@<TRIPOS>MOLECULE
PLS
   37    37     1     0     0
SMALL
bcc


@<TRIPOS>ATOM
      1 N           0.3090   -0.1320   -0.0880 n7        1 PLS     -0.807200
      2 CA          1.6910   -0.5080   -0.3770 c3        1 PLS     -0.003500
      3 CB          2.3180   -1.2500    0.8140 c3        1 PLS      0.149400
      4 OG          2.5260   -0.4230    1.9460 oh        1 PLS     -0.639800
      5 C           1.9170   -1.3840   -1.6470 c         1 PLS      0.896600
      6 O           0.9280   -1.6710   -2.3870 o         1 PLS     -0.847800
      7 OXT         3.0960   -1.7600   -1.8920 o         1 PLS     -0.847800
      8 N1         -4.5550    0.9560   -1.2210 nb        1 PLS     -0.675000
      9 C2         -3.8830   -0.1740   -1.5390 ca        1 PLS      0.334600
     10 C2A        -4.6290   -1.4030   -1.9410 c3        1 PLS     -0.120400
     11 C3         -2.4610   -0.2380   -1.4900 ca        1 PLS      0.026800
     12 O3         -1.9140   -1.4470   -1.8250 oh        1 PLS     -0.538100
     13 C4         -1.7180    0.8930   -1.0870 ca        1 PLS     -0.124300
     14 C4A        -0.2180    0.8300   -1.0470 c3        1 PLS      0.190100
     15 C5         -2.4280    2.0620   -0.7740 ca        1 PLS     -0.155600
     16 C6         -3.8380    2.0310   -0.8620 ca        1 PLS      0.372200
     17 C5A        -1.7350    3.3360   -0.3860 c3        1 PLS      0.238700
     18 O4P        -2.6380    4.3850   -0.2210 os        1 PLS     -0.578200
     19 P          -2.4460    5.3530    1.1080 p5        1 PLS      1.429800
     20 O1P        -3.3430    6.5110    0.9450 o         1 PLS     -0.838500
     21 O2P        -3.0220    4.3330    2.2470 oh        1 PLS     -0.783400
     22 O3P        -0.9990    5.3840    1.4140 o         1 PLS     -0.838500
     23 HN         -2.3260    3.8370    2.6630 ho        1 PLS      0.425000
     24 HA          2.2770    0.4430   -0.5340 h1        1 PLS      0.060700
     25 HB1         3.3420   -1.6050    0.5150 h1        1 PLS      0.041700
     26 HB2         1.6880   -2.1290    1.1150 h1        1 PLS      0.041700
     27 HOG         1.7440    0.1320    2.0490 ho        1 PLS      0.411000
     28 H2A1       -4.1320   -1.8580   -2.8340 hc        1 PLS      0.035367
     29 H2A2       -5.6970   -1.1900   -2.1850 hc        1 PLS      0.035367
     30 H2A3       -4.5900   -2.1460   -1.1060 hc        1 PLS      0.035367
     31 HO3        -0.9770   -1.3270   -2.0920 ho        1 PLS      0.484000
     32 H4A1        0.1380    0.6080   -2.1010 h1        1 PLS      0.055700
     33 H4A2        0.2040    1.8330   -0.7540 h1        1 PLS      0.055700
     34 H6         -4.4150    2.9450   -0.6220 h4        1 PLS      0.046100
     35 H5A1       -1.1430    3.1830    0.5620 h1        1 PLS      0.040200
     36 H5A2       -1.0200    3.6040   -1.2210 h1        1 PLS      0.040200
     37 H2         -0.2570   -0.9650   -0.1000 hn        1 PLS      0.352800
@<TRIPOS>BOND
     1    1    2 1   
     2    1   14 1   
     3    1   37 1   
     4    2    3 1   
     5    2    5 1   
     6    2   24 1   
     7    3    4 1   
     8    3   25 1   
     9    3   26 1   
    10    4   27 1   
    11    5    6 1   
    12    5    7 1   
    13    8    9 ar  
    14    8   16 ar  
    15    9   10 1   
    16    9   11 ar  
    17   10   28 1   
    18   10   29 1   
    19   10   30 1   
    20   11   12 1   
    21   11   13 ar  
    22   12   31 1   
    23   13   14 1   
    24   13   15 ar  
    25   14   32 1   
    26   14   33 1   
    27   15   16 ar  
    28   15   17 1   
    29   16   34 1   
    30   17   18 1   
    31   17   35 1   
    32   17   36 1   
    33   18   19 1   
    34   19   20 1   
    35   19   21 1   
    36   19   22 1   
    37   21   23 1   
@<TRIPOS>SUBSTRUCTURE
     1 PLS         1 TEMP              0 ****  ****    0 ROOT
