@<TRIPOS>MOLECULE
PLT
   47    48     1     0     0
SMALL
bcc


@<TRIPOS>ATOM
      1 N1       -163.3570  -16.6770  -63.1610 nb        1 PLT     -0.675000
      2 C2       -162.4720  -16.7520  -62.1270 ca        1 PLT      0.268600
      3 C2A      -161.0130  -16.8560  -62.4200 c3        1 PLT     -0.123400
      4 C3       -162.9150  -16.7460  -60.7860 ca        1 PLT     -0.020200
      5 O3       -162.0470  -16.7950  -59.7070 oh        1 PLT     -0.525100
      6 C4       -164.2860  -16.6480  -60.4930 ca        1 PLT     -0.167000
      7 C4A       150.8890   11.8420   65.0040 c1        1 PLT      0.297800
      8 C5       -165.1890  -16.5640  -61.5520 ca        1 PLT     -0.108600
      9 C6       -164.6580  -16.5880  -62.8730 ca        1 PLT      0.394200
     10 C5A      -166.6740  -16.4520  -61.3210 c3        1 PLT      0.245700
     11 O4P      -167.3580  -16.1800  -62.4680 os        1 PLT     -0.555200
     12 P        -168.7820  -17.1880  -62.7150 p5        1 PLT      1.307900
     13 O1P      -169.7880  -16.4990  -61.8370 o         1 PLT     -0.924167
     14 O2P      -168.9620  -17.0730  -64.2000 o         1 PLT     -0.924167
     15 O3P      -168.2760  -18.5070  -62.1900 o         1 PLT     -0.924167
     16 N         150.9120   11.9010   63.8290 n1        1 PLT     -0.761300
     17 CA        150.9640   11.9730   62.4210 c3        1 PLT      0.127800
     18 C         152.4320   12.2110   61.8660 c         1 PLT      0.922600
     19 O         152.9090   11.2680   61.1850 o         1 PLT     -0.811300
     20 OXT       152.9770   13.3150   62.1100 o         1 PLT     -0.811300
     21 CB        150.0870   13.0870   61.8240 c3        1 PLT     -0.022200
     22 CG        148.6670   13.0000   62.1880 cc        1 PLT     -0.103400
     23 CD1       148.1030   13.2710   63.4320 cd        1 PLT     -0.120100
     24 NE1       146.7020   13.1490   63.3790 na        1 PLT     -0.196400
     25 CE2       146.3620   12.6970   62.0970 ca        1 PLT     -0.056200
     26 CZ2       145.1160   12.3860   61.5360 ca        1 PLT     -0.156000
     27 CH2       145.0830   12.0150   60.1980 ca        1 PLT     -0.125000
     28 CZ3       146.2520   11.9520   59.4230 ca        1 PLT     -0.172000
     29 CE3       147.4940   12.2580   59.9650 ca        1 PLT     -0.074000
     30 CD2       147.5730   12.6290   61.3060 ca        1 PLT     -0.084800
     31 H2A1     -160.7970  -16.7440  -63.5110 hc        1 PLT      0.023700
     32 H2A2     -160.6270  -17.8530  -62.0890 hc        1 PLT      0.023700
     33 H2A3     -160.4560  -16.0590  -61.8670 hc        1 PLT      0.023700
     34 HO3      -161.2270  -17.2000  -60.0200 ho        1 PLT      0.393000
     35 H4A      -164.6280  -16.6400  -59.4510 ha        1 PLT      0.135000
     36 H6       -165.3770  -16.5350  -63.7190 h4        1 PLT      0.080100
     37 H5A1     -167.0270  -17.4280  -60.8580 h1        1 PLT      0.025200
     38 H5A2     -166.7990  -15.6160  -60.5610 h1        1 PLT      0.025200
     39 HA        150.6110   10.9750   62.0250 h1        1 PLT      0.058700
     40 HB1       150.1980   13.0120   60.7080 hc        1 PLT      0.069200
     41 HB2       150.5110   14.0800   62.1370 hc        1 PLT      0.069200
     42 HD1       148.5970   13.5680   64.3600 h4        1 PLT      0.177000
     43 HNE       146.1380   12.9980   64.1730 hn        1 PLT      0.279700
     44 HZ2       144.1970   12.4350   62.1330 ha        1 PLT      0.119000
     45 HH2       144.1190   11.7620   59.7340 ha        1 PLT      0.114000
     46 HZ3       146.1780   11.6530   58.3680 ha        1 PLT      0.119000
     47 HE3       148.4080   12.2050   59.3550 ha        1 PLT      0.143000
@<TRIPOS>BOND
     1    1    2 ar  
     2    1    9 ar  
     3    2    3 1   
     4    2    4 ar  
     5    3   31 1   
     6    3   32 1   
     7    3   33 1   
     8    4    5 1   
     9    4    6 ar  
    10    5   34 1   
    11    6    8 ar  
    12    6   35 1   
    13    7   16 3   
    14    8    9 ar  
    15    8   10 1   
    16    9   36 1   
    17   10   11 1   
    18   10   37 1   
    19   10   38 1   
    20   11   12 1   
    21   12   13 1   
    22   12   14 1   
    23   12   15 1   
    24   16   17 1   
    25   17   18 1   
    26   17   21 1   
    27   17   39 1   
    28   18   19 1   
    29   18   20 1   
    30   21   22 1   
    31   21   40 1   
    32   21   41 1   
    33   22   23 2   
    34   22   30 1   
    35   23   24 1   
    36   23   42 1   
    37   24   25 1   
    38   24   43 1   
    39   25   26 ar  
    40   25   30 ar  
    41   26   27 ar  
    42   26   44 1   
    43   27   28 ar  
    44   27   45 1   
    45   28   29 ar  
    46   28   46 1   
    47   29   30 ar  
    48   29   47 1   
@<TRIPOS>SUBSTRUCTURE
     1 PLT         1 TEMP              0 ****  ****    0 ROOT
