@<TRIPOS>MOLECULE
PLT
   47    49     1     0     0
SMALL
bcc


@<TRIPOS>ATOM
      1 N1         -0.1970    0.8480   -0.0750 nb        1 PLT     -0.684000
      2 C2          1.0680    1.3430   -0.0920 ca        1 PLT      0.301600
      3 C2A         1.5310    2.1740   -1.2420 c3        1 PLT     -0.107400
      4 C3          1.9800    1.0960    0.9660 ca        1 PLT      0.031800
      5 O3          3.2240    1.6650    0.8350 oh        1 PLT     -0.533100
      6 C4          1.5690    0.3270    2.0780 ca        1 PLT     -0.196900
      7 C4A         2.4800    0.1280    3.2210 ce        1 PLT      0.440800
      8 C5          0.2650   -0.1850    2.0880 ca        1 PLT     -0.117600
      9 C6         -0.5690    0.1110    0.9770 ca        1 PLT      0.378200
     10 C5A        -0.2620   -1.0510    3.2030 c3        1 PLT      0.256700
     11 O4P        -1.6110   -0.9110    3.4020 os        1 PLT     -0.565200
     12 P          -2.4660   -2.4160    3.5830 p5        1 PLT      1.348900
     13 O1P        -3.7430   -2.0100    4.2530 o         1 PLT     -0.932500
     14 O2P        -2.5430   -2.8810    2.1600 o         1 PLT     -0.932500
     15 O3P        -1.4860   -3.1900    4.4460 o         1 PLT     -0.932500
     16 N           3.5760   -0.5410    3.1410 n2        1 PLT     -0.563900
     17 CA          4.4440   -0.6490    4.2950 c3        1 PLT     -0.001500
     18 C           5.8480   -0.0080    4.0090 c         1 PLT      0.927600
     19 O           5.8760    1.1510    3.5040 o         1 PLT     -0.854300
     20 OXT         6.8840   -0.6440    4.3530 o         1 PLT     -0.854300
     21 CB          4.5990   -2.1100    4.7560 c3        1 PLT      0.023800
     22 CG          3.3570   -2.6650    5.3150 cc        1 PLT     -0.195400
     23 CD1         2.1440   -2.8540    4.6290 cd        1 PLT     -0.078100
     24 NE1         1.1600   -3.3530    5.4700 na        1 PLT     -0.143400
     25 CE2         1.7180   -3.4940    6.7340 ca        1 PLT     -0.065200
     26 CZ2         1.1640   -3.9560    7.9400 ca        1 PLT     -0.126000
     27 CH2         1.9820   -4.0210    9.0550 ca        1 PLT     -0.172000
     28 CZ3         3.3340   -3.6340    9.0010 ca        1 PLT     -0.203000
     29 CE3         3.9010   -3.1660    7.8250 ca        1 PLT     -0.098000
     30 CD2         3.1180   -3.0840    6.6730 ca        1 PLT     -0.094800
     31 H2A1        0.8060    2.1670   -2.0910 hc        1 PLT      0.022700
     32 H2A2        2.5170    1.7880   -1.6010 hc        1 PLT      0.022700
     33 H2A3        1.6770    3.2290   -0.9020 hc        1 PLT      0.022700
     34 HO3         3.7900    1.3720    1.5700 ho        1 PLT      0.460000
     35 H4A         2.1110    0.6180    4.1510 h4        1 PLT     -0.024200
     36 H6         -1.5990   -0.3030    0.9740 h4        1 PLT      0.072100
     37 H5A1        0.3080   -0.7710    4.1430 h1        1 PLT      0.015200
     38 H5A2       -0.0100   -2.1250    2.9440 h1        1 PLT      0.015200
     39 HA          4.0420   -0.0650    5.1810 h1        1 PLT      0.019700
     40 HB1         5.4130   -2.1210    5.5300 hc        1 PLT      0.048700
     41 HB2         4.9540   -2.7360    3.8950 hc        1 PLT      0.048700
     42 HD1         1.9140   -2.6590    3.5760 h4        1 PLT      0.188000
     43 HNE         0.1630   -3.4040    5.2210 hn        1 PLT      0.414700
     44 HZ2         0.1050   -4.2450    7.9850 ha        1 PLT      0.133000
     45 HH2         1.5690   -4.3770   10.0090 ha        1 PLT      0.086000
     46 HZ3         3.9430   -3.7000    9.9120 ha        1 PLT      0.084000
     47 HE3         4.9540   -2.8550    7.7900 ha        1 PLT      0.116000
@<TRIPOS>BOND
     1    1    2 ar  
     2    1    9 ar  
     3    2    3 1   
     4    2    4 ar  
     5    3   31 1   
     6    3   32 1   
     7    3   33 1   
     8    4    5 1   
     9    4    6 ar  
    10    5   34 1   
    11    6    7 1   
    12    6    8 ar  
    13    7   16 2   
    14    7   35 1   
    15    8    9 ar  
    16    8   10 1   
    17    9   36 1   
    18   10   11 1   
    19   10   37 1   
    20   10   38 1   
    21   11   12 1   
    22   12   13 1   
    23   12   14 1   
    24   12   15 1   
    25   16   17 1   
    26   17   18 1   
    27   17   21 1   
    28   17   39 1   
    29   18   19 1   
    30   18   20 1   
    31   21   22 1   
    32   21   40 1   
    33   21   41 1   
    34   22   23 2   
    35   22   30 1   
    36   23   24 1   
    37   23   42 1   
    38   24   25 1   
    39   24   43 1   
    40   25   26 ar  
    41   25   30 ar  
    42   26   27 ar  
    43   26   44 1   
    44   27   28 ar  
    45   27   45 1   
    46   28   29 ar  
    47   28   46 1   
    48   29   30 ar  
    49   29   47 1   
@<TRIPOS>SUBSTRUCTURE
     1 PLT         1 TEMP              0 ****  ****    0 ROOT
