@<TRIPOS>MOLECULE
PLT
   47    49     1     0     0
SMALL
bcc


@<TRIPOS>ATOM
      1 N1          3.2990    0.9680    3.2520 nb        1 PLT     -0.684000
      2 C2          4.1040    0.5330    2.2480 ca        1 PLT      0.301600
      3 C2A         5.5830    0.4960    2.4370 c3        1 PLT     -0.107400
      4 C3          3.5760    0.1030    1.0030 ca        1 PLT      0.031800
      5 O3          4.4950   -0.3270    0.0750 oh        1 PLT     -0.533100
      6 C4          2.1790    0.1100    0.7960 ca        1 PLT     -0.196900
      7 C4A         1.6110   -0.4090   -0.4630 ce        1 PLT      0.440800
      8 C5          1.3540    0.5630    1.8350 ca        1 PLT     -0.117600
      9 C6          1.9790    0.9810    3.0390 ca        1 PLT      0.378200
     10 C5A        -0.1450    0.6510    1.7060 c3        1 PLT      0.256700
     11 O4P        -0.7990    0.4630    2.8960 os        1 PLT     -0.565200
     12 P          -2.0630    1.6190    3.2050 p5        1 PLT      1.348900
     13 O1P        -2.9050    0.9420    4.2440 o         1 PLT     -0.932500
     14 O2P        -1.2660    2.8170    3.6270 o         1 PLT     -0.932500
     15 O3P        -2.6830    1.7300    1.8240 o         1 PLT     -0.932500
     16 N           1.8000    0.1510   -1.6050 n2        1 PLT     -0.563900
     17 CA          1.2530   -0.4460   -2.8050 c3        1 PLT     -0.001500
     18 C           2.3920   -0.8510   -3.8060 c         1 PLT      0.927600
     19 O           2.2550   -0.5570   -5.0270 o         1 PLT     -0.854300
     20 OXT         3.3690   -1.5130   -3.3530 o         1 PLT     -0.854300
     21 CB          0.2340    0.4820   -3.4900 c3        1 PLT      0.023800
     22 CG         -0.9970    0.6560   -2.7040 cc        1 PLT     -0.195400
     23 CD1        -1.0980    1.2400   -1.4280 cd        1 PLT     -0.078100
     24 NE1        -2.4010    1.1970   -0.9540 na        1 PLT     -0.143400
     25 CE2        -3.1800    0.5730   -1.9180 ca        1 PLT     -0.065200
     26 CZ2        -4.5540    0.2790   -1.9460 ca        1 PLT     -0.126000
     27 CH2        -5.0720   -0.3310   -3.0760 ca        1 PLT     -0.172000
     28 CZ3        -4.2580   -0.6580   -4.1760 ca        1 PLT     -0.203000
     29 CE3        -2.8980   -0.3870   -4.1690 ca        1 PLT     -0.098000
     30 CD2        -2.3280    0.2290   -3.0540 ca        1 PLT     -0.094800
     31 H2A1        5.9260   -0.5680    2.4740 hc        1 PLT      0.022700
     32 H2A2        6.0790    0.9870    1.5620 hc        1 PLT      0.022700
     33 H2A3        5.9060    1.0100    3.3730 hc        1 PLT      0.022700
     34 HO3         4.0370   -0.5240   -0.7610 ho        1 PLT      0.460000
     35 H4A         1.0050   -1.3320   -0.3090 h4        1 PLT     -0.024200
     36 H6          1.3310    1.3540    3.8600 h4        1 PLT      0.072100
     37 H5A1       -0.3870    1.6720    1.2780 h1        1 PLT      0.015200
     38 H5A2       -0.4630   -0.1340    0.9510 h1        1 PLT      0.015200
     39 HA          0.7130   -1.4190   -2.5820 h1        1 PLT      0.019700
     40 HB1         0.7130    1.4770   -3.6890 hc        1 PLT      0.048700
     41 HB2        -0.0040    0.0240   -4.4870 hc        1 PLT      0.048700
     42 HD1        -0.3090    1.6890   -0.8150 h4        1 PLT      0.188000
     43 HNE        -2.6670    1.4120    0.0170 hn        1 PLT      0.414700
     44 HZ2        -5.1870    0.5220   -1.0810 ha        1 PLT      0.133000
     45 HH2        -6.1430   -0.5730   -3.1170 ha        1 PLT      0.086000
     46 HZ3        -4.7130   -1.1440   -5.0490 ha        1 PLT      0.084000
     47 HE3        -2.2630   -0.6530   -5.0260 ha        1 PLT      0.116000
@<TRIPOS>BOND
     1    1    2 ar  
     2    1    9 ar  
     3    2    3 1   
     4    2    4 ar  
     5    3   31 1   
     6    3   32 1   
     7    3   33 1   
     8    4    5 1   
     9    4    6 ar  
    10    5   34 1   
    11    6    7 1   
    12    6    8 ar  
    13    7   16 2   
    14    7   35 1   
    15    8    9 ar  
    16    8   10 1   
    17    9   36 1   
    18   10   11 1   
    19   10   37 1   
    20   10   38 1   
    21   11   12 1   
    22   12   13 1   
    23   12   14 1   
    24   12   15 1   
    25   16   17 1   
    26   17   18 1   
    27   17   21 1   
    28   17   39 1   
    29   18   19 1   
    30   18   20 1   
    31   21   22 1   
    32   21   40 1   
    33   21   41 1   
    34   22   23 2   
    35   22   30 1   
    36   23   24 1   
    37   23   42 1   
    38   24   25 1   
    39   24   43 1   
    40   25   26 ar  
    41   25   30 ar  
    42   26   27 ar  
    43   26   44 1   
    44   27   28 ar  
    45   27   45 1   
    46   28   29 ar  
    47   28   46 1   
    48   29   30 ar  
    49   29   47 1   
@<TRIPOS>SUBSTRUCTURE
     1 PLT         1 TEMP              0 ****  ****    0 ROOT
