@<TRIPOS>MOLECULE
PLT
   47    40     1     0     0
SMALL
bcc


@<TRIPOS>ATOM
      1 N1         -3.5450    0.2030   -2.5970 n1        1 PLT     -0.159000
      2 C2         -2.3880    0.9270   -2.5560 c1        1 PLT     -0.115000
      3 C2A        -1.9840    1.7820   -3.7530 c3        1 PLT     -0.134000
      4 C3         -1.6330    0.9860   -1.3790 c1        1 PLT      0.028000
      5 O3         -0.5120    1.8400   -1.3120 o         1 PLT     -0.302000
      6 C4         -2.0510    0.3200   -0.2660 c2        1 PLT     -0.156000
      7 C4A        -1.2940    0.4880    1.0510 c2        1 PLT     -0.012000
      8 C5         -3.2230   -0.4160   -0.3000 c1        1 PLT     -0.065000
      9 C6         -3.9730   -0.4730   -1.4750 c1        1 PLT     -0.102000
     10 C5A        -3.7190   -1.1340    0.9630 c3        1 PLT      0.092000
     11 O4P        -5.0130   -1.7790    0.6810 os        1 PLT     -0.725000
     12 P          -5.8070   -2.4440    1.8770 p5        1 PLT      1.551500
     13 O1P        -7.1560   -2.9080    1.3850 o         1 PLT     -0.926500
     14 O2P        -6.0050   -1.3730    3.0480 o         1 PLT     -0.926500
     15 O3P        -5.0240   -3.6330    2.4050 o         1 PLT     -0.926500
     16 N          -0.0780   -0.1080    1.2200 n1        1 PLT     -0.189000
     17 CA          0.5040   -0.9100    0.1400 c2        1 PLT     -0.121000
     18 C          -0.3220   -2.1270   -0.0650 c2        1 PLT      0.335000
     19 O          -0.0700   -2.8840   -0.9810 o         1 PLT     -0.581000
     20 OXT        -1.3590   -2.2880    0.6060 o         1 PLT     -0.581000
     21 CB          1.8980   -1.3080    0.5150 c3        1 PLT     -0.082000
     22 CG          2.8870   -0.2700   -0.0120 c2        1 PLT     -0.107000
     23 CD1         3.3160   -0.1170   -1.3360 c1        1 PLT     -0.076000
     24 NE1         4.4110    0.6850   -1.3300 n2        1 PLT     -0.222000
     25 CE2         4.6840    1.0480    0.0000 c1        1 PLT     -0.020000
     26 CZ2         5.6990    1.8520    0.5670 c1        1 PLT     -0.139750
     27 CH2         5.7490    2.0470    1.9450 c1        1 PLT     -0.139750
     28 CZ3         4.7950    1.4480    2.7720 c1        1 PLT     -0.139750
     29 CE3         3.7990    0.6610    2.2220 c1        1 PLT     -0.139750
     30 CD2         3.7480    0.4610    0.8030 c1        1 PLT     -0.059000
     31 H2A1       -2.4710    1.4740   -4.5580 hc        1 PLT      0.060333
     32 H2A2       -2.1940    2.6660   -3.5850 hc        1 PLT      0.060333
     33 H2A3       -0.9950    1.6980   -3.9050 hc        1 PLT      0.060333
     34 HO3        -0.6650    2.5450   -1.7680 ho        1 PLT      0.257000
     35 H4A        -1.6930    1.0370    1.7940 h4        1 PLT      0.138000
     36 H6         -4.7830   -1.0730   -1.5280 ha        1 PLT      0.286000
     37 H5A1       -3.0390   -1.8390    1.2420 h1        1 PLT      0.055500
     38 H5A2       -3.8240   -0.5050    1.6630 h1        1 PLT      0.055500
     39 HA          0.5250   -0.3920   -0.6720 ha        1 PLT      0.071000
     40 HB1         1.9660   -1.3600    1.4690 hc        1 PLT      0.097500
     41 HB2         2.1100   -2.1990    0.1170 hc        1 PLT      0.097500
     42 HD1         2.9370   -0.6070   -2.1530 DU        1 PLT      0.224500
     43 HNE         4.8980    0.9510   -2.0810 DU        1 PLT      0.224500
     44 HZ2         6.4370    2.2610    0.1340 ha        1 PLT      0.113000
     45 HH2         6.2180    2.7990    2.3100 ha        1 PLT      0.113000
     46 HZ3         4.7200    1.8440    3.6430 ha        1 PLT      0.113000
     47 HE3         3.5210    0.1240    3.0390 ha        1 PLT      0.113000
@<TRIPOS>BOND
     1    1    9 1   
     2    2    3 1   
     3    2    4 1   
     4    3   31 1   
     5    3   32 1   
     6    3   33 1   
     7    4    6 1   
     8    5   34 1   
     9    6    7 1   
    10    6    8 1   
    11    7   16 1   
    12    7   35 1   
    13    8   10 1   
    14    9   36 1   
    15   10   11 1   
    16   10   37 1   
    17   10   38 1   
    18   11   12 1   
    19   12   13 1   
    20   12   14 1   
    21   12   15 1   
    22   17   18 1   
    23   17   21 1   
    24   17   39 1   
    25   18   19 1   
    26   18   20 1   
    27   21   22 1   
    28   21   40 1   
    29   21   41 1   
    30   22   23 1   
    31   22   30 1   
    32   23   24 1   
    33   24   25 1   
    34   25   30 1   
    35   26   27 1   
    36   26   44 1   
    37   27   45 1   
    38   28   29 1   
    39   28   46 1   
    40   29   47 1   
@<TRIPOS>SUBSTRUCTURE
     1 PLT         1 TEMP              0 ****  ****    0 ROOT
