@<TRIPOS>MOLECULE
PLT
   47    49     1     0     0
SMALL
bcc


@<TRIPOS>ATOM
      1 N1         -0.1930    0.8730   -0.0640 nb        1 PLT     -0.684000
      2 C2          1.0840    1.3350   -0.1010 ca        1 PLT      0.301600
      3 C2A         1.5530    2.1450   -1.2620 c3        1 PLT     -0.107400
      4 C3          2.0020    1.0710    0.9480 ca        1 PLT      0.031800
      5 O3          3.2590    1.6080    0.7960 oh        1 PLT     -0.533100
      6 C4          1.5860    0.3210    2.0700 ca        1 PLT     -0.196900
      7 C4A         2.5060    0.1070    3.2030 ce        1 PLT      0.440800
      8 C5          0.2690   -0.1560    2.1000 ca        1 PLT     -0.117600
      9 C6         -0.5710    0.1530    0.9980 ca        1 PLT      0.378200
     10 C5A        -0.2660   -1.0010    3.2290 c3        1 PLT      0.256700
     11 O4P        -1.6080   -0.8240    3.4430 os        1 PLT     -0.565200
     12 P          -2.4990   -2.3050    3.6470 p5        1 PLT      1.348900
     13 O1P        -3.7570   -1.8610    4.3290 o         1 PLT     -0.932500
     14 O2P        -2.6060   -2.7780    2.2280 o         1 PLT     -0.932500
     15 O3P        -1.5290   -3.0980    4.5030 o         1 PLT     -0.932500
     16 N           3.5830   -0.5900    3.1150 n2        1 PLT     -0.563900
     17 CA          4.4630   -0.7130    4.2580 c3        1 PLT     -0.001500
     18 C           5.8790   -0.1100    3.9500 c         1 PLT      0.927600
     19 O           5.9300    1.0440    3.4360 o         1 PLT     -0.854300
     20 OXT         6.9030   -0.7710    4.2850 o         1 PLT     -0.854300
     21 CB          4.5860   -2.1740    4.7290 c3        1 PLT      0.023800
     22 CG          3.3380   -2.6930    5.3070 cc        1 PLT     -0.195400
     23 CD1         2.1110   -2.8550    4.6380 cd        1 PLT     -0.078100
     24 NE1         1.1260   -3.3220    5.4950 na        1 PLT     -0.143400
     25 CE2         1.6950   -3.4680    6.7530 ca        1 PLT     -0.065200
     26 CZ2         1.1450   -3.9070    7.9690 ca        1 PLT     -0.126000
     27 CH2         1.9760   -3.9860    9.0750 ca        1 PLT     -0.172000
     28 CZ3         3.3360   -3.6340    9.0000 ca        1 PLT     -0.203000
     29 CE3         3.9000   -3.1890    7.8140 ca        1 PLT     -0.098000
     30 CD2         3.1050   -3.0950    6.6710 ca        1 PLT     -0.094800
     31 H2A1        0.8170    2.1530   -2.1010 hc        1 PLT      0.022700
     32 H2A2        1.7330    3.1980   -0.9320 hc        1 PLT      0.022700
     33 H2A3        2.5240    1.7300   -1.6330 hc        1 PLT      0.022700
     34 HO3         3.8260    1.3050    1.5270 ho        1 PLT      0.460000
     35 H4A         2.1610    0.6140    4.1350 h4        1 PLT     -0.024200
     36 H6         -1.6110   -0.2340    1.0110 h4        1 PLT      0.072100
     37 H5A1       -0.0450   -2.0820    2.9740 h1        1 PLT      0.015200
     38 H5A2        0.3230   -0.7290    4.1590 h1        1 PLT      0.015200
     39 HA          4.0870   -0.1130    5.1450 h1        1 PLT      0.019700
     40 HB1         4.9140   -2.8150    3.8680 hc        1 PLT      0.048700
     41 HB2         5.4090   -2.2000    5.4920 hc        1 PLT      0.048700
     42 HD1         1.8730   -2.6610    3.5870 h4        1 PLT      0.188000
     43 HNE         0.1240   -3.3490    5.2590 hn        1 PLT      0.414700
     44 HZ2         0.0800   -4.1690    8.0300 ha        1 PLT      0.133000
     45 HH2         1.5650   -4.3240   10.0360 ha        1 PLT      0.086000
     46 HZ3         3.9550   -3.7090    9.9050 ha        1 PLT      0.084000
     47 HE3         4.9600   -2.9060    7.7630 ha        1 PLT      0.116000
@<TRIPOS>BOND
     1    1    2 ar  
     2    1    9 ar  
     3    2    3 1   
     4    2    4 ar  
     5    3   31 1   
     6    3   32 1   
     7    3   33 1   
     8    4    5 1   
     9    4    6 ar  
    10    5   34 1   
    11    6    7 1   
    12    6    8 ar  
    13    7   16 2   
    14    7   35 1   
    15    8    9 ar  
    16    8   10 1   
    17    9   36 1   
    18   10   11 1   
    19   10   37 1   
    20   10   38 1   
    21   11   12 1   
    22   12   13 1   
    23   12   14 1   
    24   12   15 1   
    25   16   17 1   
    26   17   18 1   
    27   17   21 1   
    28   17   39 1   
    29   18   19 1   
    30   18   20 1   
    31   21   22 1   
    32   21   40 1   
    33   21   41 1   
    34   22   23 2   
    35   22   30 1   
    36   23   24 1   
    37   23   42 1   
    38   24   25 1   
    39   24   43 1   
    40   25   26 ar  
    41   25   30 ar  
    42   26   27 ar  
    43   26   44 1   
    44   27   28 ar  
    45   27   45 1   
    46   28   29 ar  
    47   28   46 1   
    48   29   30 ar  
    49   29   47 1   
@<TRIPOS>SUBSTRUCTURE
     1 PLT         1 TEMP              0 ****  ****    0 ROOT
