@<TRIPOS>MOLECULE
PLU
   23    22     1     0     0
SMALL
bcc


@<TRIPOS>ATOM
      1 CA          1.6180   -0.1450    0.0590 c3        1 PLU     -0.107700
      2 CB          0.1410   -0.1690   -0.0650 c3        1 PLU     -0.063400
      3 CG         -0.5410   -1.4050    0.5070 c3        1 PLU     -0.070700
      4 CD1        -2.0330   -1.1750    0.6280 c3        1 PLU     -0.083600
      5 CD2        -0.2670   -2.6260   -0.3450 c3        1 PLU     -0.083600
      6 N           2.2090    0.1520    1.3520 n4        1 PLU     -0.801600
      7 P           2.0010    1.6510   -0.7680 p5        1 PLU      1.170700
      8 O1          3.4850    1.5580   -0.5260 o         1 PLU     -0.885833
      9 O2          1.4300    1.5820   -2.1340 o         1 PLU     -0.885833
     10 O3          1.3020    2.4300    0.3180 o         1 PLU     -0.885833
     11 HA          2.1640   -0.9410   -0.4740 hx        1 PLU      0.080700
     12 HB1        -0.0680   -0.0780   -1.1690 hc        1 PLU      0.086200
     13 HB2        -0.2840    0.7600    0.4130 hc        1 PLU      0.086200
     14 HG         -0.1300   -1.5960    1.5390 hc        1 PLU      0.008700
     15 HD11       -2.2400   -0.3170    1.3130 hc        1 PLU      0.023867
     16 HD12       -2.4700   -0.9370   -0.3720 hc        1 PLU      0.023867
     17 HD13       -2.5420   -2.0840    1.0310 hc        1 PLU      0.023867
     18 HD21        0.8330   -2.7900   -0.4410 hc        1 PLU      0.023867
     19 HD22       -0.7280   -3.5360    0.1100 hc        1 PLU      0.023867
     20 HD23       -0.6910   -2.4880   -1.3690 hc        1 PLU      0.023867
     21 HN1         3.1930    0.4280    1.1290 hn        1 PLU      0.430467
     22 HN2         2.1610   -0.5930    2.0330 hn        1 PLU      0.430467
     23 HN3         1.7250    1.0170    1.6870 hn        1 PLU      0.430467
@<TRIPOS>BOND
     1    1    2 1   
     2    1    6 1   
     3    1    7 1   
     4    1   11 1   
     5    2    3 1   
     6    2   12 1   
     7    2   13 1   
     8    3    4 1   
     9    3    5 1   
    10    3   14 1   
    11    4   15 1   
    12    4   16 1   
    13    4   17 1   
    14    5   18 1   
    15    5   19 1   
    16    5   20 1   
    17    6   21 1   
    18    6   22 1   
    19    6   23 1   
    20    7    8 1   
    21    7    9 1   
    22    7   10 1   
@<TRIPOS>SUBSTRUCTURE
     1 PLU         1 TEMP              0 ****  ****    0 ROOT
