@<TRIPOS>MOLECULE
PLU
   22    21     1     0     0
SMALL
bcc


@<TRIPOS>ATOM
      1 CA         -0.6370    0.3570    0.0900 c3        1 PLU     -0.040700
      2 CB          0.2440   -0.2770    1.1330 c3        1 PLU     -0.087400
      3 CG         -0.1120    0.0340    2.5830 c3        1 PLU     -0.068700
      4 CD1         0.6310   -0.8940    3.5230 c3        1 PLU     -0.076100
      5 CD2         0.2000    1.4760    2.9240 c3        1 PLU     -0.076100
      6 N          -2.0140   -0.0420    0.0280 n3        1 PLU     -0.868800
      7 P           0.1890   -0.2020   -1.4850 p5        1 PLU      1.202700
      8 O1         -0.2580   -1.6480   -1.5460 o         1 PLU     -0.946167
      9 O2         -0.3670    0.6890   -2.5650 o         1 PLU     -0.946167
     10 O3          1.6630   -0.0000   -1.2110 o         1 PLU     -0.946167
     11 HA         -0.5930    1.4700    0.1540 h1        1 PLU      0.026700
     12 HB1         1.2970    0.0600    0.9170 hc        1 PLU      0.068700
     13 HB2         0.2200   -1.3890    0.9720 hc        1 PLU      0.068700
     14 HG         -1.2160   -0.1310    2.7350 hc        1 PLU      0.019700
     15 HD11        0.3940   -0.6610    4.5900 hc        1 PLU      0.010367
     16 HD12        0.3480   -1.9550    3.3200 hc        1 PLU      0.010367
     17 HD13        1.7330   -0.7920    3.3760 hc        1 PLU      0.010367
     18 HD21        1.2940    1.6720    2.8220 hc        1 PLU      0.010367
     19 HD22       -0.3460    2.1520    2.2220 hc        1 PLU      0.010367
     20 HD23       -0.1070    1.7160    3.9720 hc        1 PLU      0.010367
     21 HN1        -2.0850   -0.7950   -0.6430 hn        1 PLU      0.304300
     22 HN2        -2.3120   -0.4200    0.9140 hn        1 PLU      0.304300
@<TRIPOS>BOND
     1    1    2 1   
     2    1    6 1   
     3    1    7 1   
     4    1   11 1   
     5    2    3 1   
     6    2   12 1   
     7    2   13 1   
     8    3    4 1   
     9    3    5 1   
    10    3   14 1   
    11    4   15 1   
    12    4   16 1   
    13    4   17 1   
    14    5   18 1   
    15    5   19 1   
    16    5   20 1   
    17    6   21 1   
    18    6   22 1   
    19    7    8 1   
    20    7    9 1   
    21    7   10 1   
@<TRIPOS>SUBSTRUCTURE
     1 PLU         1 TEMP              0 ****  ****    0 ROOT
