@<TRIPOS>MOLECULE
PLU
   23    22     1     0     0
SMALL
bcc


@<TRIPOS>ATOM
      1 CA          1.6210   -0.1530    0.0610 c3        1 PLU     -0.107700
      2 CB          0.1430   -0.1610   -0.0580 c3        1 PLU     -0.063400
      3 CG         -0.5480   -1.4010    0.4930 c3        1 PLU     -0.070700
      4 CD1        -2.0380   -1.1610    0.6230 c3        1 PLU     -0.083600
      5 CD2        -0.2870   -2.6090   -0.3810 c3        1 PLU     -0.083600
      6 N           2.2180    0.1150    1.3570 nz        1 PLU     -0.801600
      7 P           2.0170    1.6550   -0.7330 p5        1 PLU      1.170700
      8 O1          3.5000    1.5450   -0.4980 o         1 PLU     -0.885833
      9 O2          1.4400    1.6170   -2.0980 o         1 PLU     -0.885833
     10 O3          1.3280    2.4200    0.3690 o         1 PLU     -0.885833
     11 HA          2.1580   -0.9430   -0.4890 hx        1 PLU      0.080700
     12 HB1        -0.0690   -0.0480   -1.1590 hc        1 PLU      0.086200
     13 HB2        -0.2730    0.7620    0.4390 hc        1 PLU      0.086200
     14 HG         -0.1360   -1.6150    1.5200 hc        1 PLU      0.008700
     15 HD11       -2.2350   -0.3140    1.3240 hc        1 PLU      0.023867
     16 HD12       -2.4750   -0.9020   -0.3710 hc        1 PLU      0.023867
     17 HD13       -2.5530   -2.0730    1.0110 hc        1 PLU      0.023867
     18 HD21        0.8110   -2.7810   -0.4830 hc        1 PLU      0.023867
     19 HD22       -0.7550   -3.5230    0.0590 hc        1 PLU      0.023867
     20 HD23       -0.7120   -2.4490   -1.4010 hc        1 PLU      0.023867
     21 HN1         3.2040    0.3860    1.1360 hn        1 PLU      0.430467
     22 HN2         2.1660   -0.6420    2.0250 hn        1 PLU      0.430467
     23 HN3         1.7430    0.9770    1.7100 hn        1 PLU      0.430467
@<TRIPOS>BOND
     1    1    2 1   
     2    1    6 1   
     3    1    7 1   
     4    1   11 1   
     5    2    3 1   
     6    2   12 1   
     7    2   13 1   
     8    3    4 1   
     9    3    5 1   
    10    3   14 1   
    11    4   15 1   
    12    4   16 1   
    13    4   17 1   
    14    5   18 1   
    15    5   19 1   
    16    5   20 1   
    17    6   21 1   
    18    6   22 1   
    19    6   23 1   
    20    7    8 1   
    21    7    9 1   
    22    7   10 1   
@<TRIPOS>SUBSTRUCTURE
     1 PLU         1 TEMP              0 ****  ****    0 ROOT
