@<TRIPOS>MOLECULE
PLU
   23    22     1     0     0
SMALL
bcc


@<TRIPOS>ATOM
      1 CA          1.5430   -0.0600    0.2030 c3        1 PLU     -0.073700
      2 CB          0.0340   -0.1450    0.0360 c3        1 PLU     -0.113400
      3 CG         -0.6000   -1.4450    0.4980 c3        1 PLU     -0.057700
      4 CD1        -2.1100   -1.3010    0.5300 c3        1 PLU     -0.085600
      5 CD2        -0.2080   -2.6010   -0.3970 c3        1 PLU     -0.085600
      6 N           2.0740   -0.1050    1.5380 n3        1 PLU     -0.880800
      7 P           1.9490    1.4620   -0.5290 p5        1 PLU      1.338600
      8 O1          3.5850    1.4050   -0.6140 oh        1 PLU     -0.784400
      9 O2          1.4170    1.4840   -1.9100 o         1 PLU     -0.864000
     10 O3          1.7140    2.5300    0.4760 o         1 PLU     -0.864000
     11 HA          2.0180   -0.9010   -0.3720 h1        1 PLU      0.071700
     12 HB1        -0.4250    0.7150    0.5940 hc        1 PLU      0.064700
     13 HB2        -0.1840    0.0120   -1.0580 hc        1 PLU      0.064700
     14 HG         -0.2520   -1.6750    1.5440 hc        1 PLU      0.029700
     15 HD11       -2.4080   -0.4870    1.2340 hc        1 PLU      0.025200
     16 HD12       -2.5870   -2.2530    0.8650 hc        1 PLU      0.025200
     17 HD13       -2.4980   -1.0480   -0.4860 hc        1 PLU      0.025200
     18 HD21       -0.5110   -2.3980   -1.4530 hc        1 PLU      0.025200
     19 HD22        0.8980   -2.7520   -0.3710 hc        1 PLU      0.025200
     20 HD23       -0.7040   -3.5430   -0.0590 hc        1 PLU      0.025200
     21 HN1         1.9040    0.7830    1.9820 hn        1 PLU      0.333300
     22 HN2         3.9890    1.8470    0.1240 ho        1 PLU      0.422000
     23 HN3         1.6290   -0.8210    2.0820 hn        1 PLU      0.333300
@<TRIPOS>BOND
     1    1    2 1   
     2    1    6 1   
     3    1    7 1   
     4    1   11 1   
     5    2    3 1   
     6    2   12 1   
     7    2   13 1   
     8    3    4 1   
     9    3    5 1   
    10    3   14 1   
    11    4   15 1   
    12    4   16 1   
    13    4   17 1   
    14    5   18 1   
    15    5   19 1   
    16    5   20 1   
    17    6   21 1   
    18    6   23 1   
    19    7    8 1   
    20    7    9 1   
    21    7   10 1   
    22    8   22 1   
@<TRIPOS>SUBSTRUCTURE
     1 PLU         1 TEMP              0 ****  ****    0 ROOT
