@<TRIPOS>MOLECULE
PLV
   40    40     1     0     0
SMALL
bcc


@<TRIPOS>ATOM
      1 N           0.2370   -0.6450    0.0510 n3        1 PLV     -0.801200
      2 CA          0.7240    0.3700    0.9720 c3        1 PLV      0.014500
      3 CB          0.8950   -0.1940    2.3950 c3        1 PLV      0.156400
      4 OG          1.4480   -1.5020    2.4850 os        1 PLV     -0.440600
      5 C           2.0060    1.1380    0.5280 c         1 PLV      0.880600
      6 OXT         3.0710    1.0220    1.1970 o         1 PLV     -0.846800
      7 O           1.9130    1.8890   -0.4910 o         1 PLV     -0.846800
      8 N1         -4.1740    1.3860   -1.5700 nb        1 PLV     -0.673000
      9 C2         -3.1390    2.2090   -1.2880 ca        1 PLV      0.324600
     10 C2A        -3.3720    3.6690   -1.0820 c3        1 PLV     -0.116400
     11 C3         -1.8030    1.7260   -1.1720 ca        1 PLV      0.038800
     12 O3         -0.8660    2.6810   -0.8880 oh        1 PLV     -0.539100
     13 C4         -1.5340    0.3540   -1.3590 ca        1 PLV     -0.119300
     14 C4A        -0.1310   -0.1820   -1.2760 c3        1 PLV      0.190100
     15 C5         -2.6180   -0.4870   -1.6580 ca        1 PLV     -0.135600
     16 C6         -3.9070    0.0840   -1.7480 ca        1 PLV      0.359200
     17 C5A        -2.4340   -1.9600   -1.8690 c3        1 PLV      0.214700
     18 O4P        -3.6450   -2.5970   -2.1450 os        1 PLV     -0.579200
     19 P          -3.6550   -3.7460   -3.3320 p5        1 PLV      1.430800
     20 O1P        -3.0350   -4.9880   -2.4640 oh        1 PLV     -0.783400
     21 O2P        -5.0600   -4.0110   -3.6870 o         1 PLV     -0.840000
     22 O3P        -2.5470   -3.4550   -4.2710 o         1 PLV     -0.840000
     23 C7          2.8190   -1.5840    2.1380 c3        1 PLV      0.126700
     24 HN          0.9290   -1.3680   -0.0290 hn        1 PLV      0.355800
     25 HA         -0.0880    1.1560    1.0430 h1        1 PLV      0.052700
     26 HB1        -0.1130   -0.3210    2.8770 h1        1 PLV      0.037200
     27 HB2         1.5260    0.5240    2.9830 h1        1 PLV      0.037200
     28 H2A1       -4.4480    3.9490   -1.1830 hc        1 PLV      0.032367
     29 H2A2       -3.0130    3.9570   -0.0630 hc        1 PLV      0.032367
     30 H2A3       -2.7740    4.2440   -1.8330 hc        1 PLV      0.032367
     31 HO3         0.0230    2.2720   -0.8100 ho        1 PLV      0.483000
     32 H4A1        0.5850    0.6020   -1.6730 h1        1 PLV      0.056200
     33 H4A2       -0.0560   -1.0670   -1.9740 h1        1 PLV      0.056200
     34 H6         -4.7720   -0.5680   -1.9730 h4        1 PLV      0.043100
     35 H5A1       -1.7120   -2.1330   -2.7210 h1        1 PLV      0.052200
     36 H5A2       -2.0020   -2.3870   -0.9150 h1        1 PLV      0.052200
     37 H71         2.9680   -1.3410    1.0570 h1        1 PLV      0.027367
     38 H72         3.4270   -0.8760    2.7530 h1        1 PLV      0.027367
     39 H73         3.0990   -2.6470    2.3530 h1        1 PLV      0.027367
     40 H2         -2.0970   -5.0680   -2.5910 ho        1 PLV      0.420000
@<TRIPOS>BOND
     1    1    2 1   
     2    1   14 1   
     3    1   24 1   
     4    2    3 1   
     5    2    5 1   
     6    2   25 1   
     7    3    4 1   
     8    3   26 1   
     9    3   27 1   
    10    4   23 1   
    11    5    6 1   
    12    5    7 1   
    13    8    9 ar  
    14    8   16 ar  
    15    9   10 1   
    16    9   11 ar  
    17   10   28 1   
    18   10   29 1   
    19   10   30 1   
    20   11   12 1   
    21   11   13 ar  
    22   12   31 1   
    23   13   14 1   
    24   13   15 ar  
    25   14   32 1   
    26   14   33 1   
    27   15   16 ar  
    28   15   17 1   
    29   16   34 1   
    30   17   18 1   
    31   17   35 1   
    32   17   36 1   
    33   18   19 1   
    34   19   20 1   
    35   19   21 1   
    36   19   22 1   
    37   20   40 1   
    38   23   37 1   
    39   23   38 1   
    40   23   39 1   
@<TRIPOS>SUBSTRUCTURE
     1 PLV         1 TEMP              0 ****  ****    0 ROOT
