@<TRIPOS>MOLECULE
PLV
   40    40     1     0     0
SMALL
bcc


@<TRIPOS>ATOM
      1 N           0.2670   -0.6180    0.0130 n7        1 PLV     -0.801200
      2 CA          0.7310    0.3920    0.9510 c3        1 PLV      0.013500
      3 CB          0.9490   -0.2000    2.3550 c3        1 PLV      0.156400
      4 OG          1.5580   -1.4850    2.4020 os        1 PLV     -0.440600
      5 C           1.9740    1.2220    0.5050 c         1 PLV      0.880600
      6 OXT         3.0500    1.1410    1.1600 o         1 PLV     -0.846800
      7 O           1.8350    1.9860   -0.4990 o         1 PLV     -0.846800
      8 N1         -4.2500    1.2860   -1.4610 nb        1 PLV     -0.673000
      9 C2         -3.2410    2.1410   -1.1830 ca        1 PLV      0.324600
     10 C2A        -3.5220    3.5860   -0.9380 c3        1 PLV     -0.116400
     11 C3         -1.8850    1.7040   -1.1080 ca        1 PLV      0.038800
     12 O3         -0.9780    2.6870   -0.8230 oh        1 PLV     -0.539100
     13 C4         -1.5710    0.3480   -1.3330 ca        1 PLV     -0.119300
     14 C4A        -0.1470   -0.1370   -1.2940 c3        1 PLV      0.190100
     15 C5         -2.6300   -0.5250   -1.6280 ca        1 PLV     -0.135600
     16 C6         -3.9410   -0.0010   -1.6760 ca        1 PLV      0.359200
     17 C5A        -2.3970   -1.9850   -1.8780 c3        1 PLV      0.214700
     18 O4P        -3.5890   -2.6600   -2.1440 os        1 PLV     -0.579200
     19 P          -3.5840   -3.7800   -3.3580 p5        1 PLV      1.430800
     20 O1P        -2.9020   -5.0190   -2.5340 oh        1 PLV     -0.783400
     21 O2P        -4.9870   -4.0880   -3.6880 o         1 PLV     -0.840000
     22 O3P        -2.5090   -3.4260   -4.3130 o         1 PLV     -0.840000
     23 C7          2.9250   -1.5000    2.0300 c3        1 PLV      0.126700
     24 HN         -1.9640   -5.0610   -2.6830 ho        1 PLV      0.420000
     25 HA         -0.1100    1.1440    1.0560 h1        1 PLV      0.052700
     26 HB1         1.5590    0.5290    2.9520 h1        1 PLV      0.037200
     27 HB2        -0.0440   -0.3820    2.8500 h1        1 PLV      0.037200
     28 H2A1       -3.1480    3.8640    0.0780 hc        1 PLV      0.032367
     29 H2A2       -2.9640    4.1990   -1.6900 hc        1 PLV      0.032367
     30 H2A3       -4.6090    3.8270   -1.0060 hc        1 PLV      0.032367
     31 HO3        -0.0730    2.3090   -0.7720 ho        1 PLV      0.483000
     32 H4A1        0.5300    0.6820   -1.6870 h1        1 PLV      0.056200
     33 H4A2       -0.0560   -1.0020   -2.0150 h1        1 PLV      0.056200
     34 H6         -4.7860   -0.6790   -1.8980 h4        1 PLV      0.043100
     35 H5A1       -1.9290   -2.4170   -0.9450 h1        1 PLV      0.052200
     36 H5A2       -1.6880   -2.1120   -2.7500 h1        1 PLV      0.052200
     37 H71         3.5140   -0.7810    2.6530 h1        1 PLV      0.027367
     38 H72         3.0440   -1.2240    0.9530 h1        1 PLV      0.027367
     39 H73         3.2530   -2.5540    2.2130 h1        1 PLV      0.027367
     40 H2          0.9880   -1.3080   -0.1010 hn        1 PLV      0.355800
@<TRIPOS>BOND
     1    1    2 1   
     2    1   14 1   
     3    1   40 1   
     4    2    3 1   
     5    2    5 1   
     6    2   25 1   
     7    3    4 1   
     8    3   26 1   
     9    3   27 1   
    10    4   23 1   
    11    5    6 1   
    12    5    7 1   
    13    8    9 ar  
    14    8   16 ar  
    15    9   10 1   
    16    9   11 ar  
    17   10   28 1   
    18   10   29 1   
    19   10   30 1   
    20   11   12 1   
    21   11   13 ar  
    22   12   31 1   
    23   13   14 1   
    24   13   15 ar  
    25   14   32 1   
    26   14   33 1   
    27   15   16 ar  
    28   15   17 1   
    29   16   34 1   
    30   17   18 1   
    31   17   35 1   
    32   17   36 1   
    33   18   19 1   
    34   19   20 1   
    35   19   21 1   
    36   19   22 1   
    37   20   24 1   
    38   23   37 1   
    39   23   38 1   
    40   23   39 1   
@<TRIPOS>SUBSTRUCTURE
     1 PLV         1 TEMP              0 ****  ****    0 ROOT
