@<TRIPOS>MOLECULE
PLV
   40    40     1     0     0
SMALL
bcc


@<TRIPOS>ATOM
      1 N           0.2690   -0.6240    0.0020 n3        1 PLV     -0.801200
      2 CA          0.7710    0.4010    0.9030 c3        1 PLV      0.014500
      3 CB          1.0070   -0.1570    2.3190 c3        1 PLV      0.156400
      4 OG          1.5900   -1.4540    2.3880 os        1 PLV     -0.440600
      5 C           2.0210    1.1940    0.4110 c         1 PLV      0.880600
      6 OXT         3.1090    1.1050    1.0430 o         1 PLV     -0.846800
      7 O           1.8760    1.9360   -0.6090 o         1 PLV     -0.846800
      8 N1         -4.2390    1.3270   -1.4400 nb        1 PLV     -0.673000
      9 C2         -3.2090    2.1690   -1.2020 ca        1 PLV      0.324600
     10 C2A        -3.4580    3.6250   -0.9910 c3        1 PLV     -0.116400
     11 C3         -1.8600    1.7090   -1.1410 ca        1 PLV      0.038800
     12 O3         -0.9300    2.6810   -0.8970 oh        1 PLV     -0.539100
     13 C4         -1.5750    0.3410   -1.3360 ca        1 PLV     -0.119300
     14 C4A        -0.1610   -0.1700   -1.3090 c3        1 PLV      0.190100
     15 C5         -2.6560   -0.5190   -1.5890 ca        1 PLV     -0.135600
     16 C6         -3.9580    0.0290   -1.6260 ca        1 PLV      0.359200
     17 C5A        -2.4550   -1.9890   -1.8050 c3        1 PLV      0.214700
     18 O4P        -3.6640   -2.6480   -2.0300 os        1 PLV     -0.579200
     19 P          -3.7030   -3.7990   -3.2150 p5        1 PLV      1.430800
     20 O1P        -3.0270   -5.0290   -2.3700 oh        1 PLV     -0.783400
     21 O2P        -5.1170   -4.0890   -3.5110 o         1 PLV     -0.840000
     22 O3P        -2.6390   -3.4910   -4.1980 o         1 PLV     -0.840000
     23 C7          2.9490   -1.5070    1.9890 c3        1 PLV      0.126700
     24 HN         -2.0940   -5.0930   -2.5350 ho        1 PLV      0.420000
     25 HA         -0.0530    1.1720    1.0050 h1        1 PLV      0.052700
     26 HB1         0.0200   -0.3050    2.8380 h1        1 PLV      0.037200
     27 HB2         1.6440    0.5750    2.8830 h1        1 PLV      0.037200
     28 H2A1       -4.5420    3.8850   -1.0460 hc        1 PLV      0.032367
     29 H2A2       -2.9030    4.2070   -1.7670 hc        1 PLV      0.032367
     30 H2A3       -3.0620    3.9220    0.0120 hc        1 PLV      0.032367
     31 HO3        -0.0310    2.2870   -0.8540 ho        1 PLV      0.483000
     32 H4A1       -0.0990   -1.0550   -2.0090 h1        1 PLV      0.056200
     33 H4A2        0.5240    0.6250   -1.7360 h1        1 PLV      0.056200
     34 H6         -4.8200   -0.6380   -1.8150 h4        1 PLV      0.043100
     35 H5A1       -1.7650   -2.1520   -2.6850 h1        1 PLV      0.052200
     36 H5A2       -1.9770   -2.4060   -0.8680 h1        1 PLV      0.052200
     37 H71         3.2590   -2.5630    2.1950 h1        1 PLV      0.027367
     38 H72         3.0510   -1.2620    0.9030 h1        1 PLV      0.027367
     39 H73         3.5640   -0.7850    2.5810 h1        1 PLV      0.027367
     40 H2          0.9720   -1.3320   -0.1050 hn        1 PLV      0.355800
@<TRIPOS>BOND
     1    1    2 1   
     2    1   14 1   
     3    1   40 1   
     4    2    3 1   
     5    2    5 1   
     6    2   25 1   
     7    3    4 1   
     8    3   26 1   
     9    3   27 1   
    10    4   23 1   
    11    5    6 1   
    12    5    7 1   
    13    8    9 ar  
    14    8   16 ar  
    15    9   10 1   
    16    9   11 ar  
    17   10   28 1   
    18   10   29 1   
    19   10   30 1   
    20   11   12 1   
    21   11   13 ar  
    22   12   31 1   
    23   13   14 1   
    24   13   15 ar  
    25   14   32 1   
    26   14   33 1   
    27   15   16 ar  
    28   15   17 1   
    29   16   34 1   
    30   17   18 1   
    31   17   35 1   
    32   17   36 1   
    33   18   19 1   
    34   19   20 1   
    35   19   21 1   
    36   19   22 1   
    37   20   24 1   
    38   23   37 1   
    39   23   38 1   
    40   23   39 1   
@<TRIPOS>SUBSTRUCTURE
     1 PLV         1 TEMP              0 ****  ****    0 ROOT
