@<TRIPOS>MOLECULE
PLV
   39    39     1     0     0
SMALL
bcc


@<TRIPOS>ATOM
      1 N           2.1200    0.4690   -0.1850 n3        1 PLV     -0.847200
      2 CA          3.1640    1.0870    0.6120 c3        1 PLV      0.030500
      3 CB          4.0410    0.0440    1.3280 c3        1 PLV      0.143400
      4 OG          4.5410   -1.0140    0.5160 os        1 PLV     -0.442600
      5 C           4.0840    2.0770   -0.1760 c         1 PLV      0.907600
      6 OXT         3.7560    2.4580   -1.3330 o         1 PLV     -0.851800
      7 O           5.1290    2.4790    0.4200 o         1 PLV     -0.851800
      8 N1         -1.6930   -2.8400   -1.2190 nb        1 PLV     -0.681000
      9 C2         -0.3400   -2.9550   -1.3100 ca        1 PLV      0.289600
     10 C2A         0.2620   -4.1350   -1.9980 c3        1 PLV     -0.101400
     11 C3          0.5330   -1.9940   -0.7460 ca        1 PLV      0.019800
     12 O3          1.8720   -2.2950   -0.8490 oh        1 PLV     -0.552100
     13 C4          0.0040   -0.8430   -0.1080 ca        1 PLV     -0.155300
     14 C4A         0.9100    0.1540    0.5590 c3        1 PLV      0.214100
     15 C5         -1.3890   -0.7260   -0.0370 ca        1 PLV     -0.147600
     16 C6         -2.1870   -1.7720   -0.5920 ca        1 PLV      0.365200
     17 C5A        -2.1340    0.4080    0.6310 c3        1 PLV      0.243700
     18 O4P        -3.3810    0.6190    0.1020 os        1 PLV     -0.565200
     19 P          -4.7400    0.1560    1.0780 p5        1 PLV      1.315900
     20 O1P        -5.8010    1.1370    0.6670 o         1 PLV     -0.927167
     21 O2P        -4.9280   -1.2660    0.6070 o         1 PLV     -0.927167
     22 O3P        -4.2070    0.3080    2.4790 o         1 PLV     -0.927167
     23 C7          5.2330   -0.5700   -0.6400 c3        1 PLV      0.112700
     24 HN          1.9270    1.0260   -0.9970 hn        1 PLV      0.395800
     25 HA          2.7180    1.7200    1.4420 h1        1 PLV      0.019700
     26 HB1         3.4490   -0.5030    2.1120 h1        1 PLV      0.033200
     27 HB2         4.9070    0.5850    1.7960 h1        1 PLV      0.033200
     28 H2A1        0.8240   -4.7520   -1.2540 hc        1 PLV      0.016367
     29 H2A2       -0.5060   -4.7770   -2.4910 hc        1 PLV      0.016367
     30 H2A3        0.9900   -3.7820   -2.7700 hc        1 PLV      0.016367
     31 HO3         2.3960   -1.5480   -0.5040 ho        1 PLV      0.460000
     32 H4A1        1.2230   -0.2980    1.5480 h1        1 PLV      0.033200
     33 H4A2        0.3260    1.0900    0.8020 h1        1 PLV      0.033200
     34 H6         -3.3120   -1.6860   -0.4430 h4        1 PLV      0.142100
     35 H5A1       -2.2040    0.1730    1.7370 h1        1 PLV      0.020200
     36 H5A2       -1.5280    1.3550    0.4950 h1        1 PLV      0.020200
     37 H71         4.5140   -0.1410   -1.3820 h1        1 PLV      0.032700
     38 H72         5.9960    0.2030   -0.3720 h1        1 PLV      0.032700
     39 H73         5.7200   -1.4920   -1.0460 h1        1 PLV      0.032700
@<TRIPOS>BOND
     1    1    2 1   
     2    1   14 1   
     3    1   24 1   
     4    2    3 1   
     5    2    5 1   
     6    2   25 1   
     7    3    4 1   
     8    3   26 1   
     9    3   27 1   
    10    4   23 1   
    11    5    6 1   
    12    5    7 1   
    13    8    9 ar  
    14    8   16 ar  
    15    9   10 1   
    16    9   11 ar  
    17   10   28 1   
    18   10   29 1   
    19   10   30 1   
    20   11   12 1   
    21   11   13 ar  
    22   12   31 1   
    23   13   14 1   
    24   13   15 ar  
    25   14   32 1   
    26   14   33 1   
    27   15   16 ar  
    28   15   17 1   
    29   16   34 1   
    30   17   18 1   
    31   17   35 1   
    32   17   36 1   
    33   18   19 1   
    34   19   20 1   
    35   19   21 1   
    36   19   22 1   
    37   23   37 1   
    38   23   38 1   
    39   23   39 1   
@<TRIPOS>SUBSTRUCTURE
     1 PLV         1 TEMP              0 ****  ****    0 ROOT
