@<TRIPOS>MOLECULE
PLV
   39    36     1     0     0
SMALL
bcc


@<TRIPOS>ATOM
      1 N           0.7810   -0.3330    0.8690 n3        1 PLV     -0.328000
      2 CA          2.1960   -0.5450    0.9420 c3        1 PLV     -0.117000
      3 CB          2.6330   -0.4730    2.3640 c3        1 PLV     -0.011000
      4 OG          4.0060   -0.8250    2.4570 os        1 PLV     -0.305000
      5 C           2.5530   -1.9320    0.3610 c2        1 PLV      0.327000
      6 OXT         3.4090   -2.0250   -0.5850 o         1 PLV     -0.586000
      7 O           2.0740   -2.9880    0.8920 o         1 PLV     -0.586000
      8 N1         -3.3390    1.9820   -0.7170 n1        1 PLV     -0.158000
      9 C2         -2.2650    2.5250   -0.0340 c1        1 PLV     -0.128000
     10 C2A        -2.4020    3.9270    0.6500 c3        1 PLV     -0.127000
     11 C3         -1.0800    1.8510    0.0240 c1        1 PLV      0.030000
     12 O3          0.0290    2.4480    0.6100 o         1 PLV     -0.314000
     13 C4         -0.9560    0.6380   -0.5970 c2        1 PLV     -0.141000
     14 C4A         0.3840   -0.1350   -0.5390 c3        1 PLV     -0.040000
     15 C5         -2.0180    0.1060   -1.2710 c1        1 PLV     -0.074000
     16 C6         -3.2140    0.7880   -1.3260 c1        1 PLV     -0.096000
     17 C5A        -1.8600   -1.2180   -2.0230 c3        1 PLV      0.086000
     18 O4P        -3.0340   -1.4820   -2.7500 os        1 PLV     -0.728000
     19 P          -2.9500   -2.3930   -4.0440 p5        1 PLV      1.549500
     20 O1P        -1.6410   -3.2610   -4.0030 o         1 PLV     -0.926500
     21 O2P        -2.9380   -1.4740   -5.3170 o         1 PLV     -0.926500
     22 O3P        -4.1490   -3.3110   -4.0930 o         1 PLV     -0.926500
     23 C7          4.5460   -0.7210    3.7940 c3        1 PLV     -0.084000
     24 HN          0.3600   -1.0320    1.1990 hn        1 PLV      0.191000
     25 HA          2.6640    0.1640    0.4140 h1        1 PLV      0.068000
     26 HB1         2.0890   -1.1050    2.9120 h1        1 PLV      0.085500
     27 HB2         2.5080    0.4470    2.7000 h1        1 PLV      0.085500
     28 H2A1       -3.3040    4.2590    0.5280 hc        1 PLV      0.056000
     29 H2A2       -1.7710    4.5470    0.2450 hc        1 PLV      0.056000
     30 H2A3       -2.2060    3.8420    1.6220 hc        1 PLV      0.056000
     31 HO3         0.2910    3.1440    0.1100 ho        1 PLV      0.249000
     32 H4A1        1.0960    0.3880   -1.0180 h1        1 PLV      0.080500
     33 H4A2        0.2710   -1.0200   -0.9820 h1        1 PLV      0.080500
     34 H6         -3.9460    0.3900   -1.6950 ha        1 PLV      0.282000
     35 H5A1       -1.7060   -1.9440   -1.3790 h1        1 PLV      0.060500
     36 H5A2       -1.1170   -1.1570   -2.6200 h1        1 PLV      0.060500
     37 H71         5.4650   -1.0820    3.8070 h1        1 PLV      0.066000
     38 H72         4.5590    0.2470    4.0770 h1        1 PLV      0.066000
     39 H73         3.9810   -1.2390    4.4170 h1        1 PLV      0.066000
@<TRIPOS>BOND
     1    1    2 1   
     2    1   14 1   
     3    1   24 1   
     4    2    3 1   
     5    2    5 1   
     6    2   25 1   
     7    3    4 1   
     8    3   26 1   
     9    3   27 1   
    10    4   23 1   
    11    5    6 1   
    12    5    7 1   
    13    8   16 1   
    14    9   10 1   
    15    9   11 1   
    16   10   28 1   
    17   10   29 1   
    18   10   30 1   
    19   11   13 1   
    20   12   31 1   
    21   13   14 1   
    22   13   15 1   
    23   14   32 1   
    24   14   33 1   
    25   15   17 1   
    26   16   34 1   
    27   17   18 1   
    28   17   35 1   
    29   17   36 1   
    30   18   19 1   
    31   19   20 1   
    32   19   21 1   
    33   19   22 1   
    34   23   37 1   
    35   23   38 1   
    36   23   39 1   
@<TRIPOS>SUBSTRUCTURE
     1 PLV         1 TEMP              0 ****  ****    0 ROOT
