@<TRIPOS>MOLECULE
PLW
   33    33     1     0     0
SMALL
bcc


@<TRIPOS>ATOM
      1 O          -1.8870    0.1760    1.7690 o         1 PLW     -0.813300
      2 C          -1.6370    1.1160    0.9710 c         1 PLW      0.909600
      3 C1         -1.7330    0.8500   -0.5790 c3        1 PLW     -0.088000
      4 C2         -3.2090    0.8060   -0.9400 c3        1 PLW     -0.078100
      5 N          -0.9760   -0.3260   -1.0130 na        1 PLW      0.125400
      6 C4          0.3210   -0.6590   -0.5920 cc        1 PLW     -0.203900
      7 C3          0.6010   -1.8600   -1.2900 cd        1 PLW      0.203200
      8 N2         -0.5240   -2.1560   -2.0670 nd        1 PLW     -0.400000
      9 N1         -1.4160   -1.2560   -1.8850 nc        1 PLW     -0.212800
     10 C5          1.1540    0.0780    0.4210 c3        1 PLW      0.239800
     11 N3          1.0430   -0.4950    1.7500 n3        1 PLW     -0.915800
     12 C6          2.6190    0.1310   -0.0890 c3        1 PLW     -0.049700
     13 C7          2.6620    0.8440   -1.4250 c3        1 PLW     -0.095100
     14 C8          3.5100    0.8320    0.9250 c3        1 PLW     -0.075400
     15 C9          4.9520    0.8940    0.4880 c3        1 PLW     -0.089100
     16 OXT        -1.3170    2.2910    1.2900 o         1 PLW     -0.813300
     17 H1         -1.2510    1.7300   -1.1010 h1        1 PLW      0.053700
     18 H21C       -3.7070   -0.0630   -0.4470 hc        1 PLW      0.039033
     19 H22C       -3.6760    1.7480   -0.5620 hc        1 PLW      0.039033
     20 H23C       -3.3680    0.7410   -2.0420 hc        1 PLW      0.039033
     21 H3          1.4900   -2.4790   -1.2780 h4        1 PLW      0.032100
     22 H5          0.7860    1.1520    0.4900 h1        1 PLW      0.102700
     23 H31N        0.1830   -0.1920    2.1790 hn        1 PLW      0.371300
     24 H32N        1.0480   -1.4950    1.7020 hn        1 PLW      0.371300
     25 H6          2.9900   -0.9220   -0.2290 hc        1 PLW      0.036700
     26 H71C        3.6920    0.7980   -1.8560 hc        1 PLW      0.032367
     27 H72C        1.9580    0.3650   -2.1490 hc        1 PLW      0.032367
     28 H73C        2.3740    1.9170   -1.3060 hc        1 PLW      0.032367
     29 H81C        3.1210    1.8700    1.0990 hc        1 PLW      0.054200
     30 H82C        3.4550    0.2900    1.9070 hc        1 PLW      0.054200
     31 H91C        5.3160   -0.1160    0.1780 hc        1 PLW      0.021367
     32 H92C        5.0820    1.5920   -0.3730 hc        1 PLW      0.021367
     33 H93C        5.5930    1.2560    1.3290 hc        1 PLW      0.021367
@<TRIPOS>BOND
     1    1    2 1   
     2    2    3 1   
     3    2   16 1   
     4    3    4 1   
     5    3    5 1   
     6    3   17 1   
     7    4   18 1   
     8    4   19 1   
     9    4   20 1   
    10    5    6 1   
    11    5    9 1   
    12    6    7 2   
    13    6   10 1   
    14    7    8 1   
    15    7   21 1   
    16    8    9 2   
    17   10   11 1   
    18   10   12 1   
    19   10   22 1   
    20   11   23 1   
    21   11   24 1   
    22   12   13 1   
    23   12   14 1   
    24   12   25 1   
    25   13   26 1   
    26   13   27 1   
    27   13   28 1   
    28   14   15 1   
    29   14   29 1   
    30   14   30 1   
    31   15   31 1   
    32   15   32 1   
    33   15   33 1   
@<TRIPOS>SUBSTRUCTURE
     1 PLW         1 TEMP              0 ****  ****    0 ROOT
