@<TRIPOS>MOLECULE
PLX
  140   139     1     0     0
SMALL
bcc


@<TRIPOS>ATOM
      1 C23         0.6030   -4.8090    5.7810 c3        1 PLX     -0.092100
      2 C22         2.0120   -4.3850    5.4560 c3        1 PLX     -0.080400
      3 C21         2.6740   -3.7070    6.6360 c3        1 PLX     -0.079400
      4 C20         4.0890   -3.2820    6.3050 c3        1 PLX     -0.079400
      5 C19         4.7500   -2.6040    7.4860 c3        1 PLX     -0.079400
      6 C18         6.1650   -2.1800    7.1550 c3        1 PLX     -0.079400
      7 C17         6.8260   -1.5020    8.3360 c3        1 PLX     -0.079400
      8 C16         8.2410   -1.0780    8.0050 c3        1 PLX     -0.079400
      9 C15         8.9020   -0.4000    9.1850 c3        1 PLX     -0.079400
     10 C14        10.3170    0.0230    8.8550 c3        1 PLX     -0.079400
     11 C13        10.9780    0.7010   10.0360 c3        1 PLX     -0.079400
     12 C12        12.3930    1.1240    9.7050 c3        1 PLX     -0.079400
     13 C11        13.0540    1.8020   10.8860 c3        1 PLX     -0.079400
     14 C10        14.4700    2.2240   10.5550 c3        1 PLX     -0.079400
     15 C9         15.1310    2.9010   11.7370 c3        1 PLX     -0.078400
     16 C8         16.5450    3.3260   11.4030 c3        1 PLX     -0.079400
     17 C7         17.2090    3.9880   12.5890 c3        1 PLX     -0.101400
     18 C6         18.6000    4.4940   12.2070 c3        1 PLX      0.331900
     19 O7         18.5810    5.5690   11.3000 oh        1 PLX     -0.627800
     20 O6         19.1830    5.0080   13.3950 os        1 PLX     -0.449600
     21 C4         20.5780    5.2980   13.2920 c3        1 PLX      0.112100
     22 C3         20.8930    6.1190   14.5520 c3        1 PLX      0.172400
     23 O4         22.2820    6.1940   14.7220 os        1 PLX     -0.580200
     24 P1         22.7220    6.7890   16.1840 p5        1 PLX      1.437800
     25 O1         22.3330    5.3530   16.9620 os        1 PLX     -0.582200
     26 C2         23.1900    4.9100   17.9480 c3        1 PLX      0.197400
     27 C1         23.7800    3.5330   17.5850 c3        1 PLX      0.080800
     28 N1         24.9820    3.5050   16.6770 n4        1 PLX     -0.575800
     29 C1C        26.0450    4.4350   17.1570 c3        1 PLX      0.074433
     30 C1B        25.5120    2.1080   16.6810 c3        1 PLX      0.074433
     31 C1A        24.6100    3.8570   15.2750 c3        1 PLX      0.074433
     32 O2         21.8080    7.8440   16.6190 o         1 PLX     -0.812500
     33 C5         21.4200    4.0270   13.1570 c3        1 PLX      0.109400
     34 O8         20.8040    2.8760   13.7230 os        1 PLX     -0.453600
     35 C24        20.9710    2.7200   15.1210 c3        1 PLX      0.317900
     36 O9         22.0930    1.8630   15.2320 oh        1 PLX     -0.667800
     37 C25        19.6910    2.0940   15.6730 c3        1 PLX     -0.105400
     38 C26        19.7450    2.0230   17.1820 c3        1 PLX     -0.079400
     39 C27        18.5240    1.3250   17.7410 c3        1 PLX     -0.078400
     40 C28        18.5690    1.2680   19.2530 c3        1 PLX     -0.078400
     41 C29        17.3510    0.5650   19.8120 c3        1 PLX     -0.079400
     42 C30        17.3940    0.5090   21.3240 c3        1 PLX     -0.078400
     43 C31        16.1770   -0.1960   21.8830 c3        1 PLX     -0.079400
     44 C32        16.2200   -0.2520   23.3950 c3        1 PLX     -0.078400
     45 C33        15.0040   -0.9580   23.9540 c3        1 PLX     -0.079400
     46 C34        15.0460   -1.0130   25.4660 c3        1 PLX     -0.079400
     47 C35        13.8300   -1.7190   26.0250 c3        1 PLX     -0.079400
     48 C36        13.8730   -1.7750   27.5370 c3        1 PLX     -0.079400
     49 C37        12.6570   -2.4820   28.0960 c3        1 PLX     -0.079400
     50 C38        12.6980   -2.5380   29.6080 c3        1 PLX     -0.080400
     51 C39        11.4890   -3.2400   30.1690 c3        1 PLX     -0.092100
     52 O3         24.2020    6.7350   16.2230 o         1 PLX     -0.812500
     53 H231        0.5940   -5.5270    6.6360 hc        1 PLX      0.032700
     54 H232       -0.0210   -3.9250    6.0600 hc        1 PLX      0.032700
     55 H233        0.1330   -5.3060    4.8980 hc        1 PLX      0.032700
     56 H221        2.0020   -3.6840    4.5800 hc        1 PLX      0.038200
     57 H222        2.6150   -5.2810    5.1530 hc        1 PLX      0.038200
     58 H211        2.6870   -4.4070    7.5130 hc        1 PLX      0.039700
     59 H212        2.0730   -2.8090    6.9390 hc        1 PLX      0.039700
     60 H201        4.0760   -2.5820    5.4280 hc        1 PLX      0.039200
     61 H202        4.6890   -4.1800    6.0020 hc        1 PLX      0.039200
     62 H191        4.1490   -1.7060    7.7890 hc        1 PLX      0.039700
     63 H192        4.7630   -3.3040    8.3630 hc        1 PLX      0.039700
     64 H181        6.1520   -1.4800    6.2780 hc        1 PLX      0.039700
     65 H182        6.7650   -3.0780    6.8520 hc        1 PLX      0.039700
     66 H171        6.8380   -2.2020    9.2120 hc        1 PLX      0.039700
     67 H172        6.2250   -0.6040    8.6390 hc        1 PLX      0.039700
     68 H161        8.8410   -1.9760    7.7020 hc        1 PLX      0.039200
     69 H162        8.2280   -0.3780    7.1280 hc        1 PLX      0.039200
     70 H151        8.9140   -1.1000   10.0620 hc        1 PLX      0.039200
     71 H152        8.3010    0.4980    9.4880 hc        1 PLX      0.039200
     72 H141       10.9170   -0.8750    8.5520 hc        1 PLX      0.039200
     73 H142       10.3050    0.7230    7.9780 hc        1 PLX      0.039200
     74 H131       10.3780    1.5990   10.3380 hc        1 PLX      0.039200
     75 H132       10.9900    0.0010   10.9120 hc        1 PLX      0.039200
     76 H121       12.3810    1.8240    8.8280 hc        1 PLX      0.039700
     77 H122       12.9930    0.2260    9.4020 hc        1 PLX      0.039700
     78 H111       12.4550    2.7000   11.1880 hc        1 PLX      0.039700
     79 H112       13.0660    1.1020   11.7630 hc        1 PLX      0.039700
     80 H101       15.0690    1.3250   10.2520 hc        1 PLX      0.040200
     81 H102       14.4590    2.9250    9.6790 hc        1 PLX      0.040200
     82 H91        14.5300    3.7970   12.0410 hc        1 PLX      0.040200
     83 H92        15.1460    2.2000   12.6130 hc        1 PLX      0.040200
     84 H81        16.5350    4.0410   10.5380 hc        1 PLX      0.047700
     85 H82        17.1430    2.4310   11.0870 hc        1 PLX      0.047700
     86 H71        17.3170    3.2640   13.4380 hc        1 PLX      0.057200
     87 H72        16.5900    4.8480   12.9530 hc        1 PLX      0.057200
     88 H6         19.2320    3.6960   11.7290 h2        1 PLX      0.081700
     89 HO7        18.0890    6.2930   11.7070 ho        1 PLX      0.414000
     90 H4         20.7630    5.9330   12.3800 h1        1 PLX      0.064700
     91 H31        20.4830    7.1600   14.4470 h1        1 PLX      0.051700
     92 H32        20.4300    5.6400   15.4580 h1        1 PLX      0.051700
     93 H21        22.5890    4.7260   18.8880 h1        1 PLX      0.053700
     94 H22        23.9990    5.6620   18.1620 h1        1 PLX      0.053700
     95 H11        22.9710    2.9290   17.0760 hx        1 PLX      0.091200
     96 H12        24.0900    3.0270   18.5420 hx        1 PLX      0.091200
     97 H1C1       26.1810    4.3000   18.2600 hx        1 PLX      0.101033
     98 H1C2       25.7460    5.5050   16.9280 hx        1 PLX      0.101033
     99 H1C3       27.0020    4.2030   16.6220 hx        1 PLX      0.101033
    100 H1B1       26.3690    2.0330   15.9620 hx        1 PLX      0.101033
    101 H1B2       25.8650    1.8420   17.7110 hx        1 PLX      0.101033
    102 H1B3       24.6940    1.4080   16.3640 hx        1 PLX      0.101033
    103 H1A1       24.1940    4.9110   15.2580 hx        1 PLX      0.101033
    104 H1A2       23.8290    3.1370   14.9090 hx        1 PLX      0.101033
    105 H1A3       25.5260    3.8070   14.6330 hx        1 PLX      0.101033
    106 H51        21.5250    3.7520   12.0720 h1        1 PLX      0.059200
    107 H52        22.4360    4.1970   13.6040 h1        1 PLX      0.059200
    108 H24        21.2570    3.6710   15.6560 h2        1 PLX      0.119700
    109 HO9        21.9180    1.0770   14.7010 ho        1 PLX      0.415000
    110 H251       18.8250    2.7250   15.3390 hc        1 PLX      0.061200
    111 H252       19.5570    1.0710   15.2370 hc        1 PLX      0.061200
    112 H261       19.8140    3.0610   17.6050 hc        1 PLX      0.044700
    113 H262       20.6740    1.4750   17.4940 hc        1 PLX      0.044700
    114 H271       17.5990    1.8680   17.4120 hc        1 PLX      0.041200
    115 H272       18.4620    0.2840   17.3270 hc        1 PLX      0.041200
    116 H281       19.4970    0.7310   19.5820 hc        1 PLX      0.039200
    117 H282       18.6250    2.3100   19.6660 hc        1 PLX      0.039200
    118 H291       17.2940   -0.4770   19.3990 hc        1 PLX      0.040200
    119 H292       16.4220    1.1020   19.4820 hc        1 PLX      0.040200
    120 H301       18.3230   -0.0260   21.6540 hc        1 PLX      0.039200
    121 H302       17.4480    1.5510   21.7370 hc        1 PLX      0.039200
    122 H311       16.1220   -1.2380   21.4700 hc        1 PLX      0.040200
    123 H312       15.2480    0.3390   21.5530 hc        1 PLX      0.040200
    124 H321       17.1500   -0.7860   23.7260 hc        1 PLX      0.039200
    125 H322       16.2730    0.7900   23.8080 hc        1 PLX      0.039200
    126 H331       14.0740   -0.4230   23.6240 hc        1 PLX      0.039700
    127 H332       14.9500   -1.9990   23.5410 hc        1 PLX      0.039700
    128 H341       15.0990    0.0290   25.8790 hc        1 PLX      0.039200
    129 H342       15.9760   -1.5470   25.7970 hc        1 PLX      0.039200
    130 H351       12.9000   -1.1850   25.6940 hc        1 PLX      0.039200
    131 H352       13.7770   -2.7610   25.6120 hc        1 PLX      0.039200
    132 H361       13.9250   -0.7330   27.9500 hc        1 PLX      0.039200
    133 H362       14.8030   -2.3080   27.8670 hc        1 PLX      0.039200
    134 H371       12.6040   -3.5230   27.6830 hc        1 PLX      0.039200
    135 H372       11.7270   -1.9480   27.7650 hc        1 PLX      0.039200
    136 H381       12.7530   -1.4950   30.0190 hc        1 PLX      0.038200
    137 H382       13.6300   -3.0700   29.9370 hc        1 PLX      0.038200
    138 H391       11.4320   -4.2900   29.7900 hc        1 PLX      0.032700
    139 H392       11.5400   -3.2710   31.2840 hc        1 PLX      0.032700
    140 H393       10.5520   -2.7100   29.8730 hc        1 PLX      0.032700
@<TRIPOS>BOND
     1    1    2 1   
     2    1   53 1   
     3    1   54 1   
     4    1   55 1   
     5    2    3 1   
     6    2   56 1   
     7    2   57 1   
     8    3    4 1   
     9    3   58 1   
    10    3   59 1   
    11    4    5 1   
    12    4   60 1   
    13    4   61 1   
    14    5    6 1   
    15    5   62 1   
    16    5   63 1   
    17    6    7 1   
    18    6   64 1   
    19    6   65 1   
    20    7    8 1   
    21    7   66 1   
    22    7   67 1   
    23    8    9 1   
    24    8   68 1   
    25    8   69 1   
    26    9   10 1   
    27    9   70 1   
    28    9   71 1   
    29   10   11 1   
    30   10   72 1   
    31   10   73 1   
    32   11   12 1   
    33   11   74 1   
    34   11   75 1   
    35   12   13 1   
    36   12   76 1   
    37   12   77 1   
    38   13   14 1   
    39   13   78 1   
    40   13   79 1   
    41   14   15 1   
    42   14   80 1   
    43   14   81 1   
    44   15   16 1   
    45   15   82 1   
    46   15   83 1   
    47   16   17 1   
    48   16   84 1   
    49   16   85 1   
    50   17   18 1   
    51   17   86 1   
    52   17   87 1   
    53   18   19 1   
    54   18   20 1   
    55   18   88 1   
    56   19   89 1   
    57   20   21 1   
    58   21   22 1   
    59   21   33 1   
    60   21   90 1   
    61   22   23 1   
    62   22   91 1   
    63   22   92 1   
    64   23   24 1   
    65   24   25 1   
    66   24   32 1   
    67   24   52 1   
    68   25   26 1   
    69   26   27 1   
    70   26   93 1   
    71   26   94 1   
    72   27   28 1   
    73   27   95 1   
    74   27   96 1   
    75   28   29 1   
    76   28   30 1   
    77   28   31 1   
    78   29   97 1   
    79   29   98 1   
    80   29   99 1   
    81   30  100 1   
    82   30  101 1   
    83   30  102 1   
    84   31  103 1   
    85   31  104 1   
    86   31  105 1   
    87   33   34 1   
    88   33  106 1   
    89   33  107 1   
    90   34   35 1   
    91   35   36 1   
    92   35   37 1   
    93   35  108 1   
    94   36  109 1   
    95   37   38 1   
    96   37  110 1   
    97   37  111 1   
    98   38   39 1   
    99   38  112 1   
   100   38  113 1   
   101   39   40 1   
   102   39  114 1   
   103   39  115 1   
   104   40   41 1   
   105   40  116 1   
   106   40  117 1   
   107   41   42 1   
   108   41  118 1   
   109   41  119 1   
   110   42   43 1   
   111   42  120 1   
   112   42  121 1   
   113   43   44 1   
   114   43  122 1   
   115   43  123 1   
   116   44   45 1   
   117   44  124 1   
   118   44  125 1   
   119   45   46 1   
   120   45  126 1   
   121   45  127 1   
   122   46   47 1   
   123   46  128 1   
   124   46  129 1   
   125   47   48 1   
   126   47  130 1   
   127   47  131 1   
   128   48   49 1   
   129   48  132 1   
   130   48  133 1   
   131   49   50 1   
   132   49  134 1   
   133   49  135 1   
   134   50   51 1   
   135   50  136 1   
   136   50  137 1   
   137   51  138 1   
   138   51  139 1   
   139   51  140 1   
@<TRIPOS>SUBSTRUCTURE
     1 PLX         1 TEMP              0 ****  ****    0 ROOT
