@<TRIPOS>MOLECULE
PLX
  140   139     1     0     0
SMALL
bcc


@<TRIPOS>ATOM
      1 C23        19.5390    6.9190    1.0410 c3        1 PLX     -0.092100
      2 C22        18.8660    5.5730    0.9760 c3        1 PLX     -0.080400
      3 C21        17.3660    5.7090    0.8140 c3        1 PLX     -0.079400
      4 C20        16.6940    4.3540    0.7500 c3        1 PLX     -0.079400
      5 C19        15.1950    4.4910    0.5890 c3        1 PLX     -0.078400
      6 C18        14.5230    3.1370    0.5230 c3        1 PLX     -0.079400
      7 C17        13.0240    3.2740    0.3630 c3        1 PLX     -0.078400
      8 C16        12.3520    1.9190    0.2980 c3        1 PLX     -0.079400
      9 C15        10.8530    2.0570    0.1370 c3        1 PLX     -0.078400
     10 C14        10.1810    0.7020    0.0710 c3        1 PLX     -0.079400
     11 C13         8.6820    0.8390   -0.0890 c3        1 PLX     -0.078400
     12 C12         8.0100   -0.5160   -0.1550 c3        1 PLX     -0.079400
     13 C11         6.5110   -0.3790   -0.3160 c3        1 PLX     -0.078400
     14 C10         5.8400   -1.7340   -0.3820 c3        1 PLX     -0.079400
     15 C9          4.3410   -1.5970   -0.5430 c3        1 PLX     -0.077400
     16 C8          3.6710   -2.9530   -0.6060 c3        1 PLX     -0.078400
     17 C7          2.1760   -2.8150   -0.7800 c3        1 PLX     -0.107400
     18 C6          1.5100   -4.1920   -0.7420 c3        1 PLX      0.340900
     19 O7          1.6110   -4.8370    0.4930 oh        1 PLX     -0.643800
     20 O6          0.1260   -3.9620   -0.9900 os        1 PLX     -0.456600
     21 C4         -0.6790   -5.1320   -1.1070 c3        1 PLX      0.114100
     22 C3         -1.3020   -5.5240    0.2440 c3        1 PLX      0.162400
     23 O4         -2.2960   -4.6480    0.6810 os        1 PLX     -0.582200
     24 P1         -1.9600   -3.6570    1.9370 p5        1 PLX      1.457800
     25 O1         -2.2330   -2.1910    1.1860 os        1 PLX     -0.563200
     26 C2         -3.4170   -2.1090    0.4730 c3        1 PLX      0.188400
     27 C1         -4.1910   -0.8350    0.8530 c3        1 PLX      0.088800
     28 N1         -4.8360   -0.8080    2.2150 n4        1 PLX     -0.579800
     29 C1C        -3.8000   -0.7570    3.2880 c3        1 PLX      0.077100
     30 C1B        -5.6740    0.4240    2.2960 c3        1 PLX      0.077100
     31 C1A        -5.7070   -2.0020    2.4210 c3        1 PLX      0.077100
     32 O2         -0.5410   -3.7520    2.3060 o         1 PLX     -0.828500
     33 C5         -1.7360   -4.8720   -2.1880 c3        1 PLX      0.143400
     34 O8         -2.1390   -3.5080   -2.2130 os        1 PLX     -0.441600
     35 C24        -1.7960   -2.7990   -3.3950 c3        1 PLX      0.338900
     36 O9         -0.4030   -2.8780   -3.5410 oh        1 PLX     -0.639800
     37 C25        -2.2780   -1.3600   -3.2040 c3        1 PLX     -0.107400
     38 C26        -3.7870   -1.2790   -3.2460 c3        1 PLX     -0.080400
     39 C27        -4.2830    0.0390   -2.6880 c3        1 PLX     -0.080400
     40 C28        -5.7940    0.0620   -2.5890 c3        1 PLX     -0.085400
     41 C29        -6.2780    1.2680   -1.8110 c3        1 PLX     -0.077400
     42 C30        -7.7880    1.2960   -1.7190 c3        1 PLX     -0.084400
     43 C31        -8.2640    2.4290   -0.8350 c3        1 PLX     -0.077400
     44 C32        -9.7750    2.4670   -0.7550 c3        1 PLX     -0.080400
     45 C33       -10.2500    3.5960    0.1350 c3        1 PLX     -0.078400
     46 C34       -11.7610    3.6320    0.2160 c3        1 PLX     -0.079400
     47 C35       -12.2370    4.7600    1.1060 c3        1 PLX     -0.078400
     48 C36       -13.7480    4.7960    1.1870 c3        1 PLX     -0.079400
     49 C37       -14.2230    5.9240    2.0780 c3        1 PLX     -0.079400
     50 C38       -15.7350    5.9620    2.1590 c3        1 PLX     -0.080400
     51 C39       -16.2130    7.0830    3.0450 c3        1 PLX     -0.093100
     52 O3         -3.1460   -3.6760    2.8280 o         1 PLX     -0.828500
     53 H231       19.3480    7.5020    0.1070 hc        1 PLX      0.032367
     54 H232       19.1550    7.5110    1.9070 hc        1 PLX      0.032367
     55 H233       20.6430    6.7960    1.1590 hc        1 PLX      0.032367
     56 H221       19.2820    4.9840    0.1150 hc        1 PLX      0.038700
     57 H222       19.0900    4.9940    1.9100 hc        1 PLX      0.038700
     58 H211       16.9480    6.2960    1.6740 hc        1 PLX      0.039200
     59 H212       17.1400    6.2860   -0.1200 hc        1 PLX      0.039200
     60 H201       17.1120    3.7680   -0.1110 hc        1 PLX      0.039700
     61 H202       16.9210    3.7770    1.6840 hc        1 PLX      0.039700
     62 H191       14.7770    5.0780    1.4480 hc        1 PLX      0.039200
     63 H192       14.9690    5.0690   -0.3460 hc        1 PLX      0.039200
     64 H181       14.9410    2.5500   -0.3370 hc        1 PLX      0.039700
     65 H182       14.7500    2.5590    1.4580 hc        1 PLX      0.039700
     66 H171       12.6060    3.8610    1.2230 hc        1 PLX      0.038700
     67 H172       12.7980    3.8520   -0.5720 hc        1 PLX      0.038700
     68 H161       12.7700    1.3330   -0.5620 hc        1 PLX      0.039700
     69 H162       12.5790    1.3420    1.2320 hc        1 PLX      0.039700
     70 H151       10.4350    2.6430    0.9970 hc        1 PLX      0.038700
     71 H152       10.6270    2.6340   -0.7980 hc        1 PLX      0.038700
     72 H141       10.6000    0.1160   -0.7890 hc        1 PLX      0.039700
     73 H142       10.4080    0.1240    1.0060 hc        1 PLX      0.039700
     74 H131        8.2640    1.4240    0.7720 hc        1 PLX      0.038700
     75 H132        8.4550    1.4170   -1.0230 hc        1 PLX      0.038700
     76 H121        8.4290   -1.1020   -1.0160 hc        1 PLX      0.039700
     77 H122        8.2370   -1.0940    0.7790 hc        1 PLX      0.039700
     78 H111        6.0930    0.2060    0.5450 hc        1 PLX      0.038700
     79 H112        6.2850    0.1990   -1.2500 hc        1 PLX      0.038700
     80 H101        6.2590   -2.3200   -1.2420 hc        1 PLX      0.040700
     81 H102        6.0660   -2.3120    0.5530 hc        1 PLX      0.040700
     82 H91         3.9220   -1.0110    0.3170 hc        1 PLX      0.039200
     83 H92         4.1140   -1.0210   -1.4790 hc        1 PLX      0.039200
     84 H81         4.0980   -3.5460   -1.4570 hc        1 PLX      0.048200
     85 H82         3.8800   -3.5270    0.3360 hc        1 PLX      0.048200
     86 H71         1.7440   -2.1810    0.0380 hc        1 PLX      0.058200
     87 H72         1.9380   -2.3240   -1.7580 hc        1 PLX      0.058200
     88 H6          1.9530   -4.9010   -1.4980 h2        1 PLX      0.058700
     89 HO7         1.2320   -4.2630    1.1840 ho        1 PLX      0.468000
     90 H4         -0.0420   -6.0040   -1.4340 h1        1 PLX      0.042700
     91 H31        -1.7940   -6.5300    0.1020 h1        1 PLX      0.051200
     92 H32        -0.4860   -5.6030    1.0170 h1        1 PLX      0.051200
     93 H21        -3.1810   -2.0000   -0.6310 h1        1 PLX      0.068200
     94 H22        -4.0530   -3.0240    0.6280 h1        1 PLX      0.068200
     95 H11        -3.4760    0.0350    0.8120 hx        1 PLX      0.080700
     96 H12        -5.0120   -0.6880    0.0940 hx        1 PLX      0.080700
     97 H1C1       -3.1310    0.1240    3.1140 hx        1 PLX      0.099144
     98 H1C2       -4.3080   -0.6770    4.2820 hx        1 PLX      0.099144
     99 H1C3       -3.1920   -1.7170    3.2460 hx        1 PLX      0.099144
    100 H1B1       -6.4790    0.3860    1.5150 hx        1 PLX      0.099144
    101 H1B2       -6.1420    0.4920    3.3130 hx        1 PLX      0.099144
    102 H1B3       -5.0290    1.3240    2.1220 hx        1 PLX      0.099144
    103 H1A1       -5.0610   -2.9180    2.6080 hx        1 PLX      0.099144
    104 H1A2       -6.3560   -1.8290    3.3180 hx        1 PLX      0.099144
    105 H1A3       -6.3400   -2.1550    1.5110 hx        1 PLX      0.099144
    106 H51        -1.3370   -5.1900   -3.1870 h1        1 PLX      0.047700
    107 H52        -2.6650   -5.4500   -1.9340 h1        1 PLX      0.047700
    108 H24        -2.2330   -3.2780   -4.3150 h2        1 PLX      0.059700
    109 HO9        -0.0010   -2.6890   -2.6790 ho        1 PLX      0.439000
    110 H251       -1.8940   -0.9840   -2.2190 hc        1 PLX      0.060200
    111 H252       -1.8240   -0.7330   -4.0130 hc        1 PLX      0.060200
    112 H261       -4.1480   -1.4030   -4.3000 hc        1 PLX      0.048200
    113 H262       -4.2160   -2.1270   -2.6460 hc        1 PLX      0.048200
    114 H271       -3.8390    0.2000   -1.6690 hc        1 PLX      0.037700
    115 H272       -3.9320    0.8830   -3.3370 hc        1 PLX      0.037700
    116 H281       -6.2390    0.0740   -3.6190 hc        1 PLX      0.042700
    117 H282       -6.1540   -0.8750   -2.0870 hc        1 PLX      0.042700
    118 H291       -5.8400    1.2460   -0.7760 hc        1 PLX      0.031700
    119 H292       -5.9120    2.2070   -2.3030 hc        1 PLX      0.031700
    120 H301       -8.2240    1.4100   -2.7460 hc        1 PLX      0.043200
    121 H302       -8.1610    0.3190   -1.3110 hc        1 PLX      0.043200
    122 H311       -7.8370    2.3060    0.1960 hc        1 PLX      0.034700
    123 H312       -7.8830    3.4050   -1.2360 hc        1 PLX      0.034700
    124 H321      -10.2020    2.5960   -1.7850 hc        1 PLX      0.042200
    125 H322      -10.1570    1.4890   -0.3600 hc        1 PLX      0.042200
    126 H331       -9.8220    3.4700    1.1640 hc        1 PLX      0.038200
    127 H332       -9.8710    4.5740   -0.2630 hc        1 PLX      0.038200
    128 H341      -12.1900    3.7600   -0.8140 hc        1 PLX      0.041200
    129 H342      -12.1410    2.6540    0.6130 hc        1 PLX      0.041200
    130 H351      -11.8080    4.6340    2.1350 hc        1 PLX      0.039200
    131 H352      -11.8580    5.7390    0.7090 hc        1 PLX      0.039200
    132 H361      -14.1770    4.9230    0.1580 hc        1 PLX      0.040200
    133 H362      -14.1270    3.8180    1.5840 hc        1 PLX      0.040200
    134 H371      -13.7950    5.7980    3.1070 hc        1 PLX      0.039200
    135 H372      -13.8450    6.9030    1.6800 hc        1 PLX      0.039200
    136 H381      -16.1620    6.0870    1.1290 hc        1 PLX      0.038700
    137 H382      -16.1120    4.9810    2.5550 hc        1 PLX      0.038700
    138 H391      -15.8680    8.0700    2.6530 hc        1 PLX      0.033033
    139 H392      -17.3290    7.0920    3.0910 hc        1 PLX      0.033033
    140 H393      -15.8180    6.9620    4.0830 hc        1 PLX      0.033033
@<TRIPOS>BOND
     1    1    2 1   
     2    1   53 1   
     3    1   54 1   
     4    1   55 1   
     5    2    3 1   
     6    2   56 1   
     7    2   57 1   
     8    3    4 1   
     9    3   58 1   
    10    3   59 1   
    11    4    5 1   
    12    4   60 1   
    13    4   61 1   
    14    5    6 1   
    15    5   62 1   
    16    5   63 1   
    17    6    7 1   
    18    6   64 1   
    19    6   65 1   
    20    7    8 1   
    21    7   66 1   
    22    7   67 1   
    23    8    9 1   
    24    8   68 1   
    25    8   69 1   
    26    9   10 1   
    27    9   70 1   
    28    9   71 1   
    29   10   11 1   
    30   10   72 1   
    31   10   73 1   
    32   11   12 1   
    33   11   74 1   
    34   11   75 1   
    35   12   13 1   
    36   12   76 1   
    37   12   77 1   
    38   13   14 1   
    39   13   78 1   
    40   13   79 1   
    41   14   15 1   
    42   14   80 1   
    43   14   81 1   
    44   15   16 1   
    45   15   82 1   
    46   15   83 1   
    47   16   17 1   
    48   16   84 1   
    49   16   85 1   
    50   17   18 1   
    51   17   86 1   
    52   17   87 1   
    53   18   19 1   
    54   18   20 1   
    55   18   88 1   
    56   19   89 1   
    57   20   21 1   
    58   21   22 1   
    59   21   33 1   
    60   21   90 1   
    61   22   23 1   
    62   22   91 1   
    63   22   92 1   
    64   23   24 1   
    65   24   25 1   
    66   24   32 1   
    67   24   52 1   
    68   25   26 1   
    69   26   27 1   
    70   26   93 1   
    71   26   94 1   
    72   27   28 1   
    73   27   95 1   
    74   27   96 1   
    75   28   29 1   
    76   28   30 1   
    77   28   31 1   
    78   29   97 1   
    79   29   98 1   
    80   29   99 1   
    81   30  100 1   
    82   30  101 1   
    83   30  102 1   
    84   31  103 1   
    85   31  104 1   
    86   31  105 1   
    87   33   34 1   
    88   33  106 1   
    89   33  107 1   
    90   34   35 1   
    91   35   36 1   
    92   35   37 1   
    93   35  108 1   
    94   36  109 1   
    95   37   38 1   
    96   37  110 1   
    97   37  111 1   
    98   38   39 1   
    99   38  112 1   
   100   38  113 1   
   101   39   40 1   
   102   39  114 1   
   103   39  115 1   
   104   40   41 1   
   105   40  116 1   
   106   40  117 1   
   107   41   42 1   
   108   41  118 1   
   109   41  119 1   
   110   42   43 1   
   111   42  120 1   
   112   42  121 1   
   113   43   44 1   
   114   43  122 1   
   115   43  123 1   
   116   44   45 1   
   117   44  124 1   
   118   44  125 1   
   119   45   46 1   
   120   45  126 1   
   121   45  127 1   
   122   46   47 1   
   123   46  128 1   
   124   46  129 1   
   125   47   48 1   
   126   47  130 1   
   127   47  131 1   
   128   48   49 1   
   129   48  132 1   
   130   48  133 1   
   131   49   50 1   
   132   49  134 1   
   133   49  135 1   
   134   50   51 1   
   135   50  136 1   
   136   50  137 1   
   137   51  138 1   
   138   51  139 1   
   139   51  140 1   
@<TRIPOS>SUBSTRUCTURE
     1 PLX         1 TEMP              0 ****  ****    0 ROOT
