@<TRIPOS>MOLECULE
PLX
  140   139     1     0     0
SMALL
bcc


@<TRIPOS>ATOM
      1 C23         0.4460   -4.5500    5.7860 c3        1 PLX     -0.092100
      2 C22         1.8660   -4.1640    5.4600 c3        1 PLX     -0.080400
      3 C21         2.5450   -3.4980    6.6380 c3        1 PLX     -0.079400
      4 C20         3.9700   -3.1120    6.3060 c3        1 PLX     -0.079400
      5 C19         4.6480   -2.4470    7.4840 c3        1 PLX     -0.079400
      6 C18         6.0740   -2.0590    7.1520 c3        1 PLX     -0.079400
      7 C17         6.7510   -1.3950    8.3310 c3        1 PLX     -0.079400
      8 C16         8.1760   -1.0060    7.9990 c3        1 PLX     -0.079400
      9 C15         8.8540   -0.3420    9.1780 c3        1 PLX     -0.079400
     10 C14        10.2780    0.0470    8.8460 c3        1 PLX     -0.079400
     11 C13        10.9560    0.7120   10.0250 c3        1 PLX     -0.079400
     12 C12        12.3790    1.1030    9.6930 c3        1 PLX     -0.079400
     13 C11        13.0570    1.7680   10.8710 c3        1 PLX     -0.079400
     14 C10        14.4800    2.1610   10.5370 c3        1 PLX     -0.079400
     15 C9         15.1560    2.8280   11.7160 c3        1 PLX     -0.078400
     16 C8         16.5770    3.2250   11.3780 c3        1 PLX     -0.079400
     17 C7         17.2550    3.8820   12.5590 c3        1 PLX     -0.101400
     18 C6         18.6530    4.3630   12.1710 c3        1 PLX      0.331900
     19 O7         18.6490    5.4300   11.2550 oh        1 PLX     -0.627800
     20 O6         19.2450    4.8780   13.3540 os        1 PLX     -0.449600
     21 C4         20.6450    5.1470   13.2470 c3        1 PLX      0.112100
     22 C3         20.9730    5.9750   14.4980 c3        1 PLX      0.171400
     23 O4         22.3630    6.0320   14.6650 os        1 PLX     -0.580200
     24 P1         22.8140    6.6370   16.1200 p5        1 PLX      1.437800
     25 O1         22.4080    5.2150   16.9140 os        1 PLX     -0.582200
     26 C2         23.2610    4.7700   17.9020 c3        1 PLX      0.197400
     27 C1         23.8310    3.3820   17.5520 c3        1 PLX      0.080800
     28 N1         25.0310    3.3280   16.6420 n4        1 PLX     -0.575800
     29 C1C        26.1070    4.2470   17.1100 c3        1 PLX      0.074433
     30 C1B        25.5410    1.9240   16.6590 c3        1 PLX      0.074433
     31 C1A        24.6600    3.6700   15.2370 c3        1 PLX      0.074433
     32 O2         21.9160    7.7090   16.5450 o         1 PLX     -0.812500
     33 C5         21.4680    3.8620   13.1240 c3        1 PLX      0.109400
     34 O8         20.8360    2.7260   13.7040 os        1 PLX     -0.453600
     35 C24        21.0060    2.5830   15.1040 c3        1 PLX      0.317900
     36 O9         22.1160    1.7110   15.2200 oh        1 PLX     -0.668800
     37 C25        19.7190    1.9820   15.6670 c3        1 PLX     -0.105400
     38 C26        19.7760    1.9320   17.1770 c3        1 PLX     -0.079400
     39 C27        18.5460    1.2620   17.7490 c3        1 PLX     -0.078400
     40 C28        18.5940    1.2280   19.2620 c3        1 PLX     -0.078400
     41 C29        17.3660    0.5550   19.8350 c3        1 PLX     -0.079400
     42 C30        17.4130    0.5230   21.3480 c3        1 PLX     -0.078400
     43 C31        16.1850   -0.1520   21.9220 c3        1 PLX     -0.079400
     44 C32        16.2320   -0.1840   23.4340 c3        1 PLX     -0.078400
     45 C33        15.0050   -0.8600   24.0080 c3        1 PLX     -0.079400
     46 C34        15.0530   -0.8920   25.5210 c3        1 PLX     -0.079400
     47 C35        13.8270   -1.5690   26.0950 c3        1 PLX     -0.079400
     48 C36        13.8750   -1.6020   27.6070 c3        1 PLX     -0.079400
     49 C37        12.6490   -2.2800   28.1810 c3        1 PLX     -0.079400
     50 C38        12.6950   -2.3130   29.6940 c3        1 PLX     -0.080400
     51 C39        11.4760   -2.9870   30.2700 c3        1 PLX     -0.092100
     52 O3         24.2940    6.5640   16.1570 o         1 PLX     -0.812500
     53 H231       -0.0350   -5.0390    4.9050 hc        1 PLX      0.032700
     54 H232        0.4190   -5.2640    6.6450 hc        1 PLX      0.032700
     55 H233       -0.1540   -3.6490    6.0610 hc        1 PLX      0.032700
     56 H221        1.8750   -3.4670    4.5810 hc        1 PLX      0.038200
     57 H222        2.4460   -5.0770    5.1620 hc        1 PLX      0.038200
     58 H211        1.9670   -2.5840    6.9360 hc        1 PLX      0.039700
     59 H212        2.5390   -4.1940    7.5180 hc        1 PLX      0.039700
     60 H201        4.5480   -4.0260    6.0070 hc        1 PLX      0.039200
     61 H202        3.9760   -2.4150    5.4260 hc        1 PLX      0.039200
     62 H191        4.0710   -1.5330    7.7840 hc        1 PLX      0.039700
     63 H192        4.6430   -3.1430    8.3640 hc        1 PLX      0.039700
     64 H181        6.6510   -2.9730    6.8530 hc        1 PLX      0.039700
     65 H182        6.0790   -1.3620    6.2730 hc        1 PLX      0.039700
     66 H171        6.1730   -0.4810    8.6310 hc        1 PLX      0.039700
     67 H172        6.7460   -2.0920    9.2100 hc        1 PLX      0.039700
     68 H161        8.1810   -0.3090    7.1210 hc        1 PLX      0.039200
     69 H162        8.7540   -1.9200    7.6990 hc        1 PLX      0.039200
     70 H151        8.2750    0.5710    9.4790 hc        1 PLX      0.039200
     71 H152        8.8490   -1.0400   10.0570 hc        1 PLX      0.039200
     72 H141       10.2820    0.7450    7.9680 hc        1 PLX      0.039200
     73 H142       10.8570   -0.8660    8.5450 hc        1 PLX      0.039200
     74 H131       10.3760    1.6240   10.3270 hc        1 PLX      0.039200
     75 H132       10.9530    0.0130   10.9030 hc        1 PLX      0.039200
     76 H121       12.3820    1.8010    8.8140 hc        1 PLX      0.039700
     77 H122       12.9590    0.1910    9.3910 hc        1 PLX      0.039700
     78 H111       12.4760    2.6790   11.1740 hc        1 PLX      0.039700
     79 H112       13.0550    1.0690   11.7490 hc        1 PLX      0.039700
     80 H101       15.0610    1.2500   10.2360 hc        1 PLX      0.040200
     81 H102       14.4810    2.8590    9.6590 hc        1 PLX      0.040200
     82 H91        14.5730    3.7370   12.0190 hc        1 PLX      0.039700
     83 H92        15.1590    2.1290   12.5940 hc        1 PLX      0.039700
     84 H81        17.1590    2.3180   11.0660 hc        1 PLX      0.047700
     85 H82        16.5790    3.9360   10.5090 hc        1 PLX      0.047700
     86 H71        16.6510    4.7540   12.9210 hc        1 PLX      0.057200
     87 H72        17.3540    3.1600   13.4110 hc        1 PLX      0.057200
     88 H6         19.2730    3.5520   11.6990 h2        1 PLX      0.081700
     89 HO7        18.1690    6.1650   11.6560 ho        1 PLX      0.414000
     90 H4         20.8380    5.7690   12.3280 h1        1 PLX      0.064700
     91 H31        20.5770    7.0200   14.3830 h1        1 PLX      0.051700
     92 H32        20.5060    5.5110   15.4100 h1        1 PLX      0.051700
     93 H21        24.0810    5.5130   18.1060 h1        1 PLX      0.053700
     94 H22        22.6600    4.6050   18.8460 h1        1 PLX      0.053700
     95 H11        23.0120    2.7840   17.0510 hx        1 PLX      0.091200
     96 H12        24.1360    2.8820   18.5140 hx        1 PLX      0.091200
     97 H1C1       26.2440    4.1230   18.2140 hx        1 PLX      0.101033
     98 H1C2       25.8220    5.3190   16.8700 hx        1 PLX      0.101033
     99 H1C3       27.0590    3.9970   16.5750 hx        1 PLX      0.101033
    100 H1B1       25.8930    1.6630   17.6910 hx        1 PLX      0.101033
    101 H1B2       24.7120    1.2320   16.3510 hx        1 PLX      0.101033
    102 H1B3       26.3950    1.8300   15.9390 hx        1 PLX      0.101033
    103 H1A1       24.2580    4.7300   15.2100 hx        1 PLX      0.101033
    104 H1A2       25.5730    3.6010   14.5940 hx        1 PLX      0.101033
    105 H1A3       23.8680    2.9570   14.8800 hx        1 PLX      0.101033
    106 H51        21.5650    3.5730   12.0410 h1        1 PLX      0.059200
    107 H52        22.4860    4.0210   13.5660 h1        1 PLX      0.059200
    108 H24        21.3080    3.5350   15.6260 h2        1 PLX      0.118700
    109 HO9        21.9270    0.9220   14.6970 ho        1 PLX      0.415000
    110 H251       19.5700    0.9550   15.2460 hc        1 PLX      0.061200
    111 H252       18.8610    2.6190   15.3250 hc        1 PLX      0.061200
    112 H261       20.6970    1.3740   17.4940 hc        1 PLX      0.044700
    113 H262       19.8630    2.9750   17.5840 hc        1 PLX      0.044700
    114 H271       18.4660    0.2160   17.3510 hc        1 PLX      0.041200
    115 H272       17.6280    1.8140   17.4140 hc        1 PLX      0.041200
    116 H281       18.6690    2.2750   19.6580 hc        1 PLX      0.039200
    117 H282       19.5140    0.6810   19.5970 hc        1 PLX      0.039200
    118 H291       17.2900   -0.4920   19.4390 hc        1 PLX      0.040200
    119 H292       16.4460    1.1020   19.4990 hc        1 PLX      0.040200
    120 H301       17.4860    1.5700   21.7440 hc        1 PLX      0.039200
    121 H302       18.3330   -0.0230   21.6840 hc        1 PLX      0.039200
    122 H311       16.1110   -1.1990   21.5250 hc        1 PLX      0.040200
    123 H312       15.2640    0.3950   21.5860 hc        1 PLX      0.040200
    124 H321       17.1540   -0.7290   23.7700 hc        1 PLX      0.039200
    125 H322       16.3050    0.8630   23.8300 hc        1 PLX      0.039200
    126 H331       14.0840   -0.3140   23.6730 hc        1 PLX      0.039700
    127 H332       14.9320   -1.9070   23.6110 hc        1 PLX      0.039700
    128 H341       15.1250    0.1540   25.9170 hc        1 PLX      0.039200
    129 H342       15.9750   -1.4370   25.8560 hc        1 PLX      0.039200
    130 H351       13.7540   -2.6160   25.6980 hc        1 PLX      0.039200
    131 H352       12.9050   -1.0240   25.7590 hc        1 PLX      0.039200
    132 H361       13.9470   -0.5550   28.0040 hc        1 PLX      0.039200
    133 H362       14.7970   -2.1470   27.9420 hc        1 PLX      0.039200
    134 H371       12.5760   -3.3260   27.7840 hc        1 PLX      0.039200
    135 H372       11.7270   -1.7350   27.8460 hc        1 PLX      0.039200
    136 H381       12.7690   -1.2650   30.0890 hc        1 PLX      0.038200
    137 H382       13.6190   -2.8560   30.0270 hc        1 PLX      0.038200
    138 H391       11.5310   -3.0010   31.3850 hc        1 PLX      0.032700
    139 H392       10.5470   -2.4450   29.9690 hc        1 PLX      0.032700
    140 H393       11.4000   -4.0400   29.9070 hc        1 PLX      0.032700
@<TRIPOS>BOND
     1    1    2 1   
     2    1   53 1   
     3    1   54 1   
     4    1   55 1   
     5    2    3 1   
     6    2   56 1   
     7    2   57 1   
     8    3    4 1   
     9    3   58 1   
    10    3   59 1   
    11    4    5 1   
    12    4   60 1   
    13    4   61 1   
    14    5    6 1   
    15    5   62 1   
    16    5   63 1   
    17    6    7 1   
    18    6   64 1   
    19    6   65 1   
    20    7    8 1   
    21    7   66 1   
    22    7   67 1   
    23    8    9 1   
    24    8   68 1   
    25    8   69 1   
    26    9   10 1   
    27    9   70 1   
    28    9   71 1   
    29   10   11 1   
    30   10   72 1   
    31   10   73 1   
    32   11   12 1   
    33   11   74 1   
    34   11   75 1   
    35   12   13 1   
    36   12   76 1   
    37   12   77 1   
    38   13   14 1   
    39   13   78 1   
    40   13   79 1   
    41   14   15 1   
    42   14   80 1   
    43   14   81 1   
    44   15   16 1   
    45   15   82 1   
    46   15   83 1   
    47   16   17 1   
    48   16   84 1   
    49   16   85 1   
    50   17   18 1   
    51   17   86 1   
    52   17   87 1   
    53   18   19 1   
    54   18   20 1   
    55   18   88 1   
    56   19   89 1   
    57   20   21 1   
    58   21   22 1   
    59   21   33 1   
    60   21   90 1   
    61   22   23 1   
    62   22   91 1   
    63   22   92 1   
    64   23   24 1   
    65   24   25 1   
    66   24   32 1   
    67   24   52 1   
    68   25   26 1   
    69   26   27 1   
    70   26   93 1   
    71   26   94 1   
    72   27   28 1   
    73   27   95 1   
    74   27   96 1   
    75   28   29 1   
    76   28   30 1   
    77   28   31 1   
    78   29   97 1   
    79   29   98 1   
    80   29   99 1   
    81   30  100 1   
    82   30  101 1   
    83   30  102 1   
    84   31  103 1   
    85   31  104 1   
    86   31  105 1   
    87   33   34 1   
    88   33  106 1   
    89   33  107 1   
    90   34   35 1   
    91   35   36 1   
    92   35   37 1   
    93   35  108 1   
    94   36  109 1   
    95   37   38 1   
    96   37  110 1   
    97   37  111 1   
    98   38   39 1   
    99   38  112 1   
   100   38  113 1   
   101   39   40 1   
   102   39  114 1   
   103   39  115 1   
   104   40   41 1   
   105   40  116 1   
   106   40  117 1   
   107   41   42 1   
   108   41  118 1   
   109   41  119 1   
   110   42   43 1   
   111   42  120 1   
   112   42  121 1   
   113   43   44 1   
   114   43  122 1   
   115   43  123 1   
   116   44   45 1   
   117   44  124 1   
   118   44  125 1   
   119   45   46 1   
   120   45  126 1   
   121   45  127 1   
   122   46   47 1   
   123   46  128 1   
   124   46  129 1   
   125   47   48 1   
   126   47  130 1   
   127   47  131 1   
   128   48   49 1   
   129   48  132 1   
   130   48  133 1   
   131   49   50 1   
   132   49  134 1   
   133   49  135 1   
   134   50   51 1   
   135   50  136 1   
   136   50  137 1   
   137   51  138 1   
   138   51  139 1   
   139   51  140 1   
@<TRIPOS>SUBSTRUCTURE
     1 PLX         1 TEMP              0 ****  ****    0 ROOT
