@<TRIPOS>MOLECULE
PLY
   49    48     1     0     0
SMALL
bcc


@<TRIPOS>ATOM
      1 C1          0.0030   -0.0250    0.0020 c         1 PLY      0.564900
      2 O2          1.1270   -0.5170   -0.1070 o         1 PLY     -0.528100
      3 C2         -0.7410    0.0260    1.3000 c3        1 PLY     -0.204400
      4 C3         -1.7170    1.1810    1.3410 c3        1 PLY     -0.076400
      5 C4         -2.4790    1.2030    2.6490 c3        1 PLY     -0.078400
      6 C5         -3.4560    2.3580    2.6940 c3        1 PLY     -0.079400
      7 C6         -4.2180    2.3810    4.0020 c3        1 PLY     -0.079400
      8 C7         -5.1950    3.5360    4.0480 c3        1 PLY     -0.079400
      9 C8         -5.9580    3.5590    5.3550 c3        1 PLY     -0.079400
     10 C9         -6.9350    4.7140    5.4010 c3        1 PLY     -0.079400
     11 CA         -7.6970    4.7370    6.7080 c3        1 PLY     -0.079400
     12 CB         -8.6750    5.8920    6.7540 c3        1 PLY     -0.079400
     13 CC         -9.4370    5.9150    8.0620 c3        1 PLY     -0.079400
     14 CD        -10.4140    7.0700    8.1080 c3        1 PLY     -0.079400
     15 CE        -11.1760    7.0930    9.4150 c3        1 PLY     -0.079400
     16 CF        -12.1540    8.2480    9.4630 c3        1 PLY     -0.080400
     17 CG        -12.9150    8.2750   10.7630 c3        1 PLY     -0.092100
     18 H11        -0.5310    0.4030   -0.8770 h4        1 PLY     -0.006800
     19 H21        -1.2930   -0.9460    1.4200 hc        1 PLY      0.074200
     20 H22        -0.0160    0.1010    2.1530 hc        1 PLY      0.074200
     21 H31        -2.4400    1.0990    0.4860 hc        1 PLY      0.043700
     22 H32        -1.1620    2.1480    1.2140 hc        1 PLY      0.043700
     23 H41        -1.7580    1.2860    3.5040 hc        1 PLY      0.042700
     24 H42        -3.0340    0.2360    2.7770 hc        1 PLY      0.042700
     25 H51        -4.1780    2.2750    1.8390 hc        1 PLY      0.040200
     26 H52        -2.9010    3.3250    2.5660 hc        1 PLY      0.040200
     27 H61        -4.7730    1.4140    4.1300 hc        1 PLY      0.040200
     28 H62        -3.4970    2.4640    4.8570 hc        1 PLY      0.040200
     29 H71        -5.9170    3.4530    3.1930 hc        1 PLY      0.039700
     30 H72        -4.6410    4.5030    3.9190 hc        1 PLY      0.039700
     31 H81        -5.2360    3.6430    6.2100 hc        1 PLY      0.039700
     32 H82        -6.5120    2.5920    5.4840 hc        1 PLY      0.039700
     33 H91        -7.6570    4.6300    4.5460 hc        1 PLY      0.039700
     34 H92        -6.3810    5.6810    5.2720 hc        1 PLY      0.039700
     35 HA1        -6.9760    4.8210    7.5630 hc        1 PLY      0.039700
     36 HA2        -8.2520    3.7700    6.8380 hc        1 PLY      0.039700
     37 HB1        -9.3960    5.8080    5.9000 hc        1 PLY      0.039700
     38 HB2        -8.1200    6.8590    6.6250 hc        1 PLY      0.039700
     39 HC1        -9.9910    4.9480    8.1910 hc        1 PLY      0.039700
     40 HC2        -8.7150    5.9990    8.9170 hc        1 PLY      0.039700
     41 HD1       -11.1360    6.9860    7.2530 hc        1 PLY      0.039700
     42 HD2        -9.8600    8.0370    7.9780 hc        1 PLY      0.039700
     43 HE1       -11.7310    6.1270    9.5450 hc        1 PLY      0.039700
     44 HE2       -10.4550    7.1780   10.2700 hc        1 PLY      0.039700
     45 HF1       -11.5980    9.2140    9.3310 hc        1 PLY      0.038700
     46 HF2       -12.8740    8.1630    8.6060 hc        1 PLY      0.038700
     47 HG1       -13.4960    7.3310   10.9000 hc        1 PLY      0.032700
     48 HG2       -13.6300    9.1330   10.7770 hc        1 PLY      0.032700
     49 HG3       -12.2160    8.3850   11.6270 hc        1 PLY      0.032700
@<TRIPOS>BOND
     1    1    2 2   
     2    1    3 1   
     3    1   18 1   
     4    3    4 1   
     5    3   19 1   
     6    3   20 1   
     7    4    5 1   
     8    4   21 1   
     9    4   22 1   
    10    5    6 1   
    11    5   23 1   
    12    5   24 1   
    13    6    7 1   
    14    6   25 1   
    15    6   26 1   
    16    7    8 1   
    17    7   27 1   
    18    7   28 1   
    19    8    9 1   
    20    8   29 1   
    21    8   30 1   
    22    9   10 1   
    23    9   31 1   
    24    9   32 1   
    25   10   11 1   
    26   10   33 1   
    27   10   34 1   
    28   11   12 1   
    29   11   35 1   
    30   11   36 1   
    31   12   13 1   
    32   12   37 1   
    33   12   38 1   
    34   13   14 1   
    35   13   39 1   
    36   13   40 1   
    37   14   15 1   
    38   14   41 1   
    39   14   42 1   
    40   15   16 1   
    41   15   43 1   
    42   15   44 1   
    43   16   17 1   
    44   16   45 1   
    45   16   46 1   
    46   17   47 1   
    47   17   48 1   
    48   17   49 1   
@<TRIPOS>SUBSTRUCTURE
     1 PLY         1 TEMP              0 ****  ****    0 ROOT
