@<TRIPOS>MOLECULE
PLY
   49    48     1     0     0
SMALL
bcc


@<TRIPOS>ATOM
      1 C1         -8.7700   -0.2850   -0.1950 c         1 PLY      0.564900
      2 O2         -9.8450    0.0920    0.2750 o         1 PLY     -0.528100
      3 C2         -7.5160    0.5290   -0.1160 c3        1 PLY     -0.204400
      4 C3         -6.2800   -0.3410   -0.1420 c3        1 PLY     -0.076400
      5 C4         -5.0220    0.4990   -0.0890 c3        1 PLY     -0.078400
      6 C5         -3.7820   -0.3690   -0.1130 c3        1 PLY     -0.079400
      7 C6         -2.5240    0.4700   -0.0590 c3        1 PLY     -0.079400
      8 C7         -1.2840   -0.3970   -0.0830 c3        1 PLY     -0.079400
      9 C8         -0.0250    0.4420   -0.0300 c3        1 PLY     -0.079400
     10 C9          1.2150   -0.4250   -0.0530 c3        1 PLY     -0.079400
     11 CA          2.4740    0.4140   -0.0000 c3        1 PLY     -0.079400
     12 CB          3.7140   -0.4530   -0.0240 c3        1 PLY     -0.079400
     13 CC          4.9730    0.3860    0.0290 c3        1 PLY     -0.079400
     14 CD          6.2130   -0.4810    0.0060 c3        1 PLY     -0.079400
     15 CE          7.4710    0.3580    0.0590 c3        1 PLY     -0.079400
     16 CF          8.7130   -0.5080    0.0360 c3        1 PLY     -0.080400
     17 CG          9.9680    0.3230    0.0890 c3        1 PLY     -0.092100
     18 H11        -8.6770   -1.2620   -0.7200 h4        1 PLY     -0.006800
     19 H21        -7.5280    1.1590    0.8130 hc        1 PLY      0.074200
     20 H22        -7.5080    1.2340   -0.9930 hc        1 PLY      0.074200
     21 H31        -6.2750   -0.9660   -1.0740 hc        1 PLY      0.043700
     22 H32        -6.2970   -1.0460    0.7310 hc        1 PLY      0.043700
     23 H41        -5.0260    1.1240    0.8430 hc        1 PLY      0.042700
     24 H42        -5.0030    1.2050   -0.9610 hc        1 PLY      0.042700
     25 H51        -3.7780   -0.9940   -1.0440 hc        1 PLY      0.040200
     26 H52        -3.8000   -1.0750    0.7590 hc        1 PLY      0.040200
     27 H61        -2.5280    1.0960    0.8720 hc        1 PLY      0.040200
     28 H62        -2.5050    1.1770   -0.9310 hc        1 PLY      0.040200
     29 H71        -1.2800   -1.0220   -1.0140 hc        1 PLY      0.039700
     30 H72        -1.3020   -1.1030    0.7890 hc        1 PLY      0.039700
     31 H81        -0.0290    1.0680    0.9010 hc        1 PLY      0.039700
     32 H82        -0.0070    1.1480   -0.9020 hc        1 PLY      0.039700
     33 H91         1.2190   -1.0510   -0.9850 hc        1 PLY      0.039700
     34 H92         1.1970   -1.1310    0.8190 hc        1 PLY      0.039700
     35 HA1         2.4700    1.0400    0.9310 hc        1 PLY      0.039700
     36 HA2         2.4920    1.1200   -0.8720 hc        1 PLY      0.039700
     37 HB1         3.7180   -1.0790   -0.9550 hc        1 PLY      0.039700
     38 HB2         3.6960   -1.1590    0.8480 hc        1 PLY      0.039700
     39 HC1         4.9680    1.0120    0.9610 hc        1 PLY      0.039700
     40 HC2         4.9910    1.0920   -0.8430 hc        1 PLY      0.039700
     41 HD1         6.2170   -1.1070   -0.9250 hc        1 PLY      0.039700
     42 HD2         6.1940   -1.1870    0.8780 hc        1 PLY      0.039700
     43 HE1         7.4680    0.9840    0.9900 hc        1 PLY      0.039700
     44 HE2         7.4900    1.0640   -0.8130 hc        1 PLY      0.039700
     45 HF1         8.7140   -1.1350   -0.8950 hc        1 PLY      0.038700
     46 HF2         8.6910   -1.2150    0.9080 hc        1 PLY      0.038700
     47 HG1         9.9970    0.9350    1.0220 hc        1 PLY      0.032700
     48 HG2        10.8710   -0.3350    0.0710 hc        1 PLY      0.032700
     49 HG3        10.0200    1.0160   -0.7860 hc        1 PLY      0.032700
@<TRIPOS>BOND
     1    1    2 2   
     2    1    3 1   
     3    1   18 1   
     4    3    4 1   
     5    3   19 1   
     6    3   20 1   
     7    4    5 1   
     8    4   21 1   
     9    4   22 1   
    10    5    6 1   
    11    5   23 1   
    12    5   24 1   
    13    6    7 1   
    14    6   25 1   
    15    6   26 1   
    16    7    8 1   
    17    7   27 1   
    18    7   28 1   
    19    8    9 1   
    20    8   29 1   
    21    8   30 1   
    22    9   10 1   
    23    9   31 1   
    24    9   32 1   
    25   10   11 1   
    26   10   33 1   
    27   10   34 1   
    28   11   12 1   
    29   11   35 1   
    30   11   36 1   
    31   12   13 1   
    32   12   37 1   
    33   12   38 1   
    34   13   14 1   
    35   13   39 1   
    36   13   40 1   
    37   14   15 1   
    38   14   41 1   
    39   14   42 1   
    40   15   16 1   
    41   15   43 1   
    42   15   44 1   
    43   16   17 1   
    44   16   45 1   
    45   16   46 1   
    46   17   47 1   
    47   17   48 1   
    48   17   49 1   
@<TRIPOS>SUBSTRUCTURE
     1 PLY         1 TEMP              0 ****  ****    0 ROOT
