@<TRIPOS>MOLECULE
PLY
   49    48     1     0     0
SMALL
bcc


@<TRIPOS>ATOM
      1 C1          0.0060   -0.0220    0.0020 c         1 PLY      0.564900
      2 O2          1.1330   -0.5050   -0.1070 o         1 PLY     -0.528100
      3 C2         -0.7340    0.0330    1.3030 c3        1 PLY     -0.204400
      4 C3         -1.7170    1.1830    1.3410 c3        1 PLY     -0.076400
      5 C4         -2.4750    1.2070    2.6510 c3        1 PLY     -0.078400
      6 C5         -3.4570    2.3580    2.6930 c3        1 PLY     -0.079400
      7 C6         -4.2160    2.3830    4.0020 c3        1 PLY     -0.079400
      8 C7         -5.1980    3.5340    4.0460 c3        1 PLY     -0.079400
      9 C8         -5.9580    3.5590    5.3550 c3        1 PLY     -0.079400
     10 C9         -6.9390    4.7110    5.3990 c3        1 PLY     -0.079400
     11 CA         -7.6980    4.7360    6.7080 c3        1 PLY     -0.079400
     12 CB         -8.6780    5.8890    6.7530 c3        1 PLY     -0.079400
     13 CC         -9.4380    5.9140    8.0620 c3        1 PLY     -0.079400
     14 CD        -10.4170    7.0670    8.1070 c3        1 PLY     -0.079400
     15 CE        -11.1770    7.0920    9.4160 c3        1 PLY     -0.079400
     16 CF        -12.1560    8.2450    9.4630 c3        1 PLY     -0.080400
     17 CG        -12.9150    8.2740   10.7640 c3        1 PLY     -0.092100
     18 H11        -0.5350    0.3960   -0.8770 h4        1 PLY     -0.006800
     19 H21        -1.2800   -0.9410    1.4300 hc        1 PLY      0.074200
     20 H22        -0.0060    0.1170    2.1530 hc        1 PLY      0.074200
     21 H31        -2.4420    1.0910    0.4890 hc        1 PLY      0.043700
     22 H32        -1.1680    2.1520    1.2060 hc        1 PLY      0.043700
     23 H41        -1.7510    1.2990    3.5030 hc        1 PLY      0.042700
     24 H42        -3.0240    0.2380    2.7860 hc        1 PLY      0.042700
     25 H51        -4.1810    2.2670    1.8400 hc        1 PLY      0.040200
     26 H52        -2.9080    3.3270    2.5580 hc        1 PLY      0.040200
     27 H61        -4.7660    1.4140    4.1370 hc        1 PLY      0.040200
     28 H62        -3.4930    2.4740    4.8550 hc        1 PLY      0.040200
     29 H71        -5.9220    3.4440    3.1930 hc        1 PLY      0.039700
     30 H72        -4.6480    4.5030    3.9110 hc        1 PLY      0.039700
     31 H81        -5.2340    3.6490    6.2080 hc        1 PLY      0.039700
     32 H82        -6.5080    2.5910    5.4890 hc        1 PLY      0.039700
     33 H91        -7.6620    4.6220    4.5460 hc        1 PLY      0.039700
     34 H92        -6.3880    5.6790    5.2650 hc        1 PLY      0.039700
     35 HA1        -6.9740    4.8250    7.5610 hc        1 PLY      0.039700
     36 HA2        -8.2490    3.7680    6.8420 hc        1 PLY      0.039700
     37 HB1        -9.4020    5.8000    5.9000 hc        1 PLY      0.039700
     38 HB2        -8.1270    6.8570    6.6190 hc        1 PLY      0.039700
     39 HC1        -9.9890    4.9460    8.1950 hc        1 PLY      0.039700
     40 HC2        -8.7140    6.0020    8.9150 hc        1 PLY      0.039700
     41 HD1       -11.1410    6.9790    7.2540 hc        1 PLY      0.039700
     42 HD2        -9.8650    8.0350    7.9740 hc        1 PLY      0.039700
     43 HE1       -11.7290    6.1250    9.5490 hc        1 PLY      0.039700
     44 HE2       -10.4530    7.1790   10.2690 hc        1 PLY      0.039700
     45 HF1       -11.6020    9.2120    9.3280 hc        1 PLY      0.038700
     46 HF2       -12.8780    8.1570    8.6080 hc        1 PLY      0.038700
     47 HG1       -13.4930    7.3290   10.9050 hc        1 PLY      0.032700
     48 HG2       -13.6310    9.1310   10.7780 hc        1 PLY      0.032700
     49 HG3       -12.2140    8.3860   11.6270 hc        1 PLY      0.032700
@<TRIPOS>BOND
     1    1    2 2   
     2    1    3 1   
     3    1   18 1   
     4    3    4 1   
     5    3   19 1   
     6    3   20 1   
     7    4    5 1   
     8    4   21 1   
     9    4   22 1   
    10    5    6 1   
    11    5   23 1   
    12    5   24 1   
    13    6    7 1   
    14    6   25 1   
    15    6   26 1   
    16    7    8 1   
    17    7   27 1   
    18    7   28 1   
    19    8    9 1   
    20    8   29 1   
    21    8   30 1   
    22    9   10 1   
    23    9   31 1   
    24    9   32 1   
    25   10   11 1   
    26   10   33 1   
    27   10   34 1   
    28   11   12 1   
    29   11   35 1   
    30   11   36 1   
    31   12   13 1   
    32   12   37 1   
    33   12   38 1   
    34   13   14 1   
    35   13   39 1   
    36   13   40 1   
    37   14   15 1   
    38   14   41 1   
    39   14   42 1   
    40   15   16 1   
    41   15   43 1   
    42   15   44 1   
    43   16   17 1   
    44   16   45 1   
    45   16   46 1   
    46   17   47 1   
    47   17   48 1   
    48   17   49 1   
@<TRIPOS>SUBSTRUCTURE
     1 PLY         1 TEMP              0 ****  ****    0 ROOT
