@<TRIPOS>MOLECULE
PLZ
   39    39     1     0     0
SMALL
bcc


@<TRIPOS>ATOM
      1 N1          0.9170    1.1880   -0.2820 n2        1 PLZ     -0.412000
      2 C2A         3.0310    0.4350   -1.2990 c3        1 PLZ     -0.023900
      3 O3          3.5140   -1.0370    0.9920 oh        1 PLZ     -0.530100
      4 C4A         1.8270   -1.0480    3.2390 c2        1 PLZ     -0.485000
      5 C5          2.1110   -2.8520    5.8220 c3        1 PLZ     -0.063400
      6 C6          2.8180   -3.2320    7.1020 c3        1 PLZ     -0.197400
      7 P          -2.0780    0.9400    5.0390 p5        1 PLZ      1.416800
      8 N9          1.2240   -0.8720    4.5290 n4        1 PLZ     -0.557800
      9 C8          2.0820   -1.3380    5.6570 c3        1 PLZ      0.110800
     10 C1          4.3380   -2.9990    7.0640 c         1 PLZ      0.908600
     11 O2          5.0830   -3.9380    7.4690 o         1 PLZ     -0.851800
     12 O4          4.7770   -1.8810    6.6620 o         1 PLZ     -0.851800
     13 C19         1.4360   -0.3380    2.1060 cc        1 PLZ      0.124000
     14 C13         2.3380   -0.3040    0.9830 cc        1 PLZ     -0.046900
     15 C12         2.0590    0.4510   -0.1640 cd        1 PLZ      0.050800
     16 C16         0.0610    1.1390    0.7500 cd        1 PLZ      0.044000
     17 C15         0.2270    0.3920    1.9290 cc        1 PLZ     -0.247200
     18 C5M        -0.9440    0.3170    2.8500 c3        1 PLZ      0.228600
     19 O4P        -0.7900    1.0870    4.0160 os        1 PLZ     -0.588200
     20 O2P        -1.4130   -0.3870    5.7570 oh        1 PLZ     -0.802400
     21 O1P        -3.2820    0.5770    4.2700 o         1 PLZ     -0.833500
     22 O3P        -1.9880    1.9670    6.0950 o         1 PLZ     -0.833500
     23 H2A1        4.0650    0.2750   -0.9040 hc        1 PLZ      0.029033
     24 H2A2        3.0070    1.3870   -1.8820 hc        1 PLZ      0.029033
     25 H2A3        2.7840   -0.4100   -1.9890 hc        1 PLZ      0.029033
     26 HO3         3.8940   -0.9300    1.8770 ho        1 PLZ      0.412000
     27 H4A1       -1.1180   -0.1970    6.6400 ho        1 PLZ      0.426000
     28 H4A2        2.6410   -1.7800    3.2210 hx        1 PLZ      0.153000
     29 H51         2.6430   -3.3140    4.9490 hc        1 PLZ      0.034200
     30 H52         1.0640   -3.2580    5.8370 hc        1 PLZ      0.034200
     31 H61         2.4040   -2.6430    7.9600 hc        1 PLZ      0.026700
     32 H62         2.6310   -4.3170    7.3090 hc        1 PLZ      0.026700
     33 HN9         0.3240   -1.3690    4.5780 hn        1 PLZ      0.432300
     34 H81         1.6630   -0.8680    6.5920 hx        1 PLZ      0.100200
     35 H82         3.1430   -0.9730    5.5110 hx        1 PLZ      0.100200
     36 H16        -0.8560    1.7440    0.6170 h4        1 PLZ      0.127000
     37 H5M1       -1.8760    0.6810    2.3260 h1        1 PLZ      0.024200
     38 H5M2       -1.1380   -0.7510    3.1590 h1        1 PLZ      0.024200
     39 H92         1.0180    0.1310    4.6560 hn        1 PLZ      0.432300
@<TRIPOS>BOND
     1    1   15 1   
     2    1   16 1   
     3    2   15 1   
     4    2   23 1   
     5    2   24 1   
     6    2   25 1   
     7    3   14 1   
     8    3   26 1   
     9    4    8 1   
    10    4   13 2   
    11    4   28 1   
    12    5    6 1   
    13    5    9 1   
    14    5   29 1   
    15    5   30 1   
    16    6   10 1   
    17    6   31 1   
    18    6   32 1   
    19    7   19 1   
    20    7   20 1   
    21    7   21 1   
    22    7   22 1   
    23    8    9 1   
    24    8   33 1   
    25    8   39 1   
    26    9   34 1   
    27    9   35 1   
    28   10   11 1   
    29   10   12 1   
    30   13   14 1   
    31   13   17 1   
    32   14   15 2   
    33   16   17 2   
    34   16   36 1   
    35   17   18 1   
    36   18   19 1   
    37   18   37 1   
    38   18   38 1   
    39   20   27 1   
@<TRIPOS>SUBSTRUCTURE
     1 PLZ         1 TEMP              0 ****  ****    0 ROOT
