@<TRIPOS>MOLECULE
PLZ
   39    39     1     0     0
SMALL
bcc


@<TRIPOS>ATOM
      1 N1          0.7890    1.0610   -0.3250 n2        1 PLZ     -0.412000
      2 C2A         2.8940    0.3200   -1.3690 c3        1 PLZ     -0.023900
      3 O3          3.4590   -1.0730    0.9520 oh        1 PLZ     -0.530100
      4 C4A         1.8250   -1.0500    3.2380 c2        1 PLZ     -0.485000
      5 C5          2.2050   -2.7700    5.8660 c3        1 PLZ     -0.063400
      6 C6          2.9490   -3.0980    7.1390 c3        1 PLZ     -0.197400
      7 P          -2.0780    0.9130    5.0700 p5        1 PLZ      1.416800
      8 N9          1.2480   -0.8480    4.5370 ny        1 PLZ     -0.557800
      9 C8          2.1410   -1.2620    5.6570 c3        1 PLZ      0.110800
     10 C1          4.4630   -2.8360    7.0590 c         1 PLZ      0.908600
     11 O2          5.2350   -3.7470    7.4730 o         1 PLZ     -0.851800
     12 O4          4.8690   -1.7220    6.6140 o         1 PLZ     -0.851800
     13 C19         1.3930   -0.3830    2.0940 cc        1 PLZ      0.124000
     14 C13         2.2690   -0.3640    0.9500 cc        1 PLZ     -0.046900
     15 C12         1.9480    0.3500   -0.2120 cd        1 PLZ      0.050800
     16 C16        -0.0420    1.0250    0.7280 cd        1 PLZ      0.044000
     17 C15         0.1650    0.3180    1.9250 cc        1 PLZ     -0.247200
     18 C5M        -0.9820    0.2470    2.8740 c3        1 PLZ      0.228600
     19 O4P        -0.8170    1.0550    4.0130 os        1 PLZ     -0.588200
     20 O2P        -1.3690   -0.3780    5.8110 oh        1 PLZ     -0.802400
     21 O1P        -3.2920    0.5030    4.3410 o         1 PLZ     -0.833500
     22 O3P        -1.9850    1.9730    6.0930 o         1 PLZ     -0.833500
     23 H2A1        2.6480   -0.5490   -2.0280 hc        1 PLZ      0.029033
     24 H2A2        3.9390    0.1930   -0.9940 hc        1 PLZ      0.029033
     25 H2A3        2.8370    1.2540   -1.9780 hc        1 PLZ      0.029033
     26 HO3         3.8580   -0.9320    1.8250 ho        1 PLZ      0.412000
     27 H4A1       -1.0590   -0.1570    6.6810 ho        1 PLZ      0.426000
     28 H4A2        2.6530   -1.7660    3.2230 hx        1 PLZ      0.153000
     29 H51         2.7260   -3.2480    4.9950 hc        1 PLZ      0.034200
     30 H52         1.1670   -3.1960    5.9170 hc        1 PLZ      0.034200
     31 H61         2.5420   -2.4920    7.9890 hc        1 PLZ      0.026700
     32 H62         2.7890   -4.1790    7.3820 hc        1 PLZ      0.026700
     33 HN9         0.3590   -1.3600    4.6210 hn        1 PLZ      0.432300
     34 H81         1.7340   -0.7730    6.5870 hx        1 PLZ      0.100200
     35 H82         3.1910   -0.8810    5.4750 hx        1 PLZ      0.100200
     36 H16        -0.9740    1.6070    0.5990 h4        1 PLZ      0.127000
     37 H5M1       -1.9330    0.5770    2.3620 h1        1 PLZ      0.024200
     38 H5M2       -1.1460   -0.8150    3.2190 h1        1 PLZ      0.024200
     39 H92         1.0250    0.1550    4.6390 hn        1 PLZ      0.432300
@<TRIPOS>BOND
     1    1   15 1   
     2    1   16 1   
     3    2   15 1   
     4    2   23 1   
     5    2   24 1   
     6    2   25 1   
     7    3   14 1   
     8    3   26 1   
     9    4    8 1   
    10    4   13 2   
    11    4   28 1   
    12    5    6 1   
    13    5    9 1   
    14    5   29 1   
    15    5   30 1   
    16    6   10 1   
    17    6   31 1   
    18    6   32 1   
    19    7   19 1   
    20    7   20 1   
    21    7   21 1   
    22    7   22 1   
    23    8    9 1   
    24    8   33 1   
    25    8   39 1   
    26    9   34 1   
    27    9   35 1   
    28   10   11 1   
    29   10   12 1   
    30   13   14 1   
    31   13   17 1   
    32   14   15 2   
    33   16   17 2   
    34   16   36 1   
    35   17   18 1   
    36   18   19 1   
    37   18   37 1   
    38   18   38 1   
    39   20   27 1   
@<TRIPOS>SUBSTRUCTURE
     1 PLZ         1 TEMP              0 ****  ****    0 ROOT
