@<TRIPOS>MOLECULE
PLZ
   38    38     1     0     0
SMALL
bcc


@<TRIPOS>ATOM
      1 N1          5.3700   -5.9950   -0.3460 nb        1 PLZ     -0.687000
      2 C2A         5.6250   -5.4170    2.0410 c3        1 PLZ     -0.113400
      3 O3          2.9910   -4.5740    2.0290 oh        1 PLZ     -0.530100
      4 C4A         1.2450   -4.6540   -0.2860 c3        1 PLZ      0.210100
      5 C5         -0.8890   -3.4830    1.9270 c3        1 PLZ     -0.106400
      6 C6         -0.9300   -3.9450    3.3640 c3        1 PLZ     -0.187400
      7 P           3.9550   -6.4630   -4.9580 p5        1 PLZ      1.315900
      8 N9          0.3780   -5.3200    0.6730 n3        1 PLZ     -0.827200
      9 C8         -0.8720   -4.6310    0.9170 c3        1 PLZ      0.161800
     10 C1         -1.6050   -2.9340    4.3020 c         1 PLZ      0.903600
     11 O2         -1.2010   -2.8770    5.5030 o         1 PLZ     -0.868300
     12 O4         -2.5600   -2.2190    3.8720 o         1 PLZ     -0.868300
     13 C19         2.6520   -5.1740   -0.3310 ca        1 PLZ     -0.141300
     14 C13         3.4670   -5.0660    0.8230 ca        1 PLZ     -0.040200
     15 C12         4.8090   -5.4960    0.7940 ca        1 PLZ      0.324600
     16 C16         4.6100   -6.0740   -1.4370 ca        1 PLZ      0.384200
     17 C15         3.2290   -5.7030   -1.4850 ca        1 PLZ     -0.140600
     18 C5M         2.5150   -5.8830   -2.8070 c3        1 PLZ      0.241700
     19 O4P         3.0280   -6.9080   -3.5570 os        1 PLZ     -0.563200
     20 O2P         5.3250   -6.3660   -4.3300 o         1 PLZ     -0.923833
     21 O1P         3.3330   -5.1480   -5.3510 o         1 PLZ     -0.923833
     22 O3P         3.7290   -7.6140   -5.8950 o         1 PLZ     -0.923833
     23 H2A1        5.2890   -4.5460    2.6560 hc        1 PLZ      0.023367
     24 H2A2        5.4810   -6.3480    2.6430 hc        1 PLZ      0.023367
     25 H2A3        6.7140   -5.3050    1.8190 hc        1 PLZ      0.023367
     26 HO3         2.3810   -3.8510    1.8210 ho        1 PLZ      0.407000
     27 H4A1        1.3070   -3.5380   -0.0830 h1        1 PLZ      0.032200
     28 H4A2        0.7640   -4.7720   -1.2990 h1        1 PLZ      0.032200
     29 H51        -1.8060   -2.8610    1.7330 hc        1 PLZ      0.042700
     30 H52         0.0000   -2.8190    1.7690 hc        1 PLZ      0.042700
     31 H61         0.1050   -4.1540    3.7350 hc        1 PLZ      0.025200
     32 H62        -1.5140   -4.8990    3.4450 hc        1 PLZ      0.025200
     33 HN9         0.8610   -5.4960    1.5340 hn        1 PLZ      0.364800
     34 H81        -1.2540   -4.2380   -0.0690 h1        1 PLZ      0.029700
     35 H82        -1.5990   -5.4210    1.2660 h1        1 PLZ      0.029700
     36 H16         5.0750   -6.4240   -2.4210 h4        1 PLZ      0.153100
     37 H5M1        1.4290   -6.1090   -2.5840 h1        1 PLZ      0.023700
     38 H5M2        2.5800   -4.9020   -3.3720 h1        1 PLZ      0.023700
@<TRIPOS>BOND
     1    1   15 ar  
     2    1   16 ar  
     3    2   15 1   
     4    2   23 1   
     5    2   24 1   
     6    2   25 1   
     7    3   14 1   
     8    3   26 1   
     9    4    8 1   
    10    4   13 1   
    11    4   27 1   
    12    4   28 1   
    13    5    6 1   
    14    5    9 1   
    15    5   29 1   
    16    5   30 1   
    17    6   10 1   
    18    6   31 1   
    19    6   32 1   
    20    7   19 1   
    21    7   20 1   
    22    7   21 1   
    23    7   22 1   
    24    8    9 1   
    25    8   33 1   
    26    9   34 1   
    27    9   35 1   
    28   10   11 1   
    29   10   12 1   
    30   13   14 ar  
    31   13   17 ar  
    32   14   15 ar  
    33   16   17 ar  
    34   16   36 1   
    35   17   18 1   
    36   18   19 1   
    37   18   37 1   
    38   18   38 1   
@<TRIPOS>SUBSTRUCTURE
     1 PLZ         1 TEMP              0 ****  ****    0 ROOT
