@<TRIPOS>MOLECULE
PM1
   41    44     1     0     0
SMALL
bcc


@<TRIPOS>ATOM
      1 C1         -0.4450    0.3130   -0.2220 cc        1 PM1     -0.247600
      2 C2          0.8820    0.7140   -0.3790 cd        1 PM1      0.036700
      3 N3          1.7000    0.7920    0.7070 na        1 PM1      0.038700
      4 C4          1.2310    0.4720    2.0210 cd        1 PM1      0.055700
      5 C5         -0.1310    0.0610    2.1770 cd        1 PM1     -0.149000
      6 C6         -0.9390   -0.0120    1.0730 cc        1 PM1     -0.050000
      7 C10         3.0630    1.1590    0.8290 cd        1 PM1     -0.363300
      8 C11         3.3530    1.0510    2.2420 cc        1 PM1      0.387600
      9 N12         2.2160    0.6170    2.9540 nc        1 PM1     -0.356600
     10 C13         3.8890    1.5470   -0.2950 c         1 PM1      0.629900
     11 C14         5.3130    1.8590   -0.0090 ca        1 PM1     -0.153600
     12 C15         6.2780    0.8500   -0.0920 ca        1 PM1     -0.103500
     13 C16         7.6210    1.1520    0.1330 ca        1 PM1     -0.135500
     14 C17         8.0030    2.4600    0.4360 ca        1 PM1     -0.120000
     15 C18         7.0410    3.4670    0.5120 ca        1 PM1     -0.135500
     16 C19         5.6970    3.1710    0.2880 ca        1 PM1     -0.103500
     17 C23        -1.2970    0.2400   -1.4190 c         1 PM1      0.614300
     18 C24        -2.7140   -0.1660   -1.2140 ca        1 PM1     -0.230600
     19 C25        -3.0970   -1.5210   -1.2990 ca        1 PM1      0.181400
     20 C26        -4.4440   -1.8990   -1.1450 ca        1 PM1     -0.185000
     21 C27        -5.4110   -0.9260   -0.9150 ca        1 PM1     -0.069000
     22 C28        -5.0630    0.4190   -0.8360 ca        1 PM1     -0.185000
     23 C29        -3.7170    0.8010   -0.9900 ca        1 PM1      0.181400
     24 O33        -0.8710    0.5010   -2.5490 o         1 PM1     -0.501100
     25 O34         3.4470    1.6130   -1.4540 o         1 PM1     -0.559100
     26 N35         4.5320    1.3840    2.8500 nh        1 PM1     -0.821600
     27 F36        -2.1680   -2.4770   -1.5280 f         1 PM1     -0.123900
     28 F39        -3.3930    2.1120   -0.9180 f         1 PM1     -0.123900
     29 H2          1.3130    0.9790   -1.3700 h4        1 PM1      0.226000
     30 H5         -0.4850   -0.1830    3.1890 ha        1 PM1      0.170000
     31 H6         -1.9900   -0.3260    1.1760 ha        1 PM1      0.150000
     32 H15         5.9780   -0.1780   -0.3490 ha        1 PM1      0.145500
     33 H16         8.3790    0.3590    0.0620 ha        1 PM1      0.138500
     34 H17         9.0630    2.6970    0.6070 ha        1 PM1      0.137000
     35 H18         7.3420    4.5000    0.7430 ha        1 PM1      0.138500
     36 H19         4.9380    3.9680    0.3390 ha        1 PM1      0.145500
     37 H26        -4.7170   -2.9620   -1.2140 ha        1 PM1      0.159000
     38 H27        -6.4650   -1.2220   -0.7990 ha        1 PM1      0.148000
     39 H28        -5.8260    1.1920   -0.6620 ha        1 PM1      0.159000
     40 H351        5.3410    1.4460    2.2770 hn        1 PM1      0.437300
     41 H352        4.6590    1.1230    3.7990 hn        1 PM1      0.437300
@<TRIPOS>BOND
     1    1    2 2   
     2    1    6 1   
     3    1   17 1   
     4    2    3 1   
     5    2   29 1   
     6    3    4 1   
     7    3    7 1   
     8    4    5 1   
     9    4    9 2   
    10    5    6 2   
    11    5   30 1   
    12    6   31 1   
    13    7    8 2   
    14    7   10 1   
    15    8    9 1   
    16    8   26 1   
    17   10   11 1   
    18   10   25 2   
    19   11   12 ar  
    20   11   16 ar  
    21   12   13 ar  
    22   12   32 1   
    23   13   14 ar  
    24   13   33 1   
    25   14   15 ar  
    26   14   34 1   
    27   15   16 ar  
    28   15   35 1   
    29   16   36 1   
    30   17   18 1   
    31   17   24 2   
    32   18   19 ar  
    33   18   23 ar  
    34   19   20 ar  
    35   19   27 1   
    36   20   21 ar  
    37   20   37 1   
    38   21   22 ar  
    39   21   38 1   
    40   22   23 ar  
    41   22   39 1   
    42   23   28 1   
    43   26   40 1   
    44   26   41 1   
@<TRIPOS>SUBSTRUCTURE
     1 PM1         1 TEMP              0 ****  ****    0 ROOT
