@<TRIPOS>MOLECULE
PM1
   41    44     1     0     0
SMALL
bcc


@<TRIPOS>ATOM
      1 C1         -0.4450    0.3190   -0.2300 cc        1 PM1     -0.247600
      2 C2          0.8850    0.7130   -0.3810 cd        1 PM1      0.036700
      3 N3          1.6960    0.7950    0.7090 na        1 PM1      0.038700
      4 C4          1.2170    0.4870    2.0220 cd        1 PM1      0.055700
      5 C5         -0.1480    0.0840    2.1730 cd        1 PM1     -0.149000
      6 C6         -0.9490    0.0070    1.0630 cc        1 PM1     -0.050000
      7 C10         3.0600    1.1570    0.8380 cd        1 PM1     -0.363300
      8 C11         3.3390    1.0580    2.2540 cc        1 PM1      0.387600
      9 N12         2.1960    0.6350    2.9610 nc        1 PM1     -0.356600
     10 C13         3.8950    1.5320   -0.2830 c         1 PM1      0.629900
     11 C14         5.3190    1.8380    0.0100 ca        1 PM1     -0.153600
     12 C15         6.2790    0.8220   -0.0570 ca        1 PM1     -0.103500
     13 C16         7.6220    1.1190    0.1740 ca        1 PM1     -0.135500
     14 C17         8.0090    2.4260    0.4680 ca        1 PM1     -0.120000
     15 C18         7.0540    3.4400    0.5290 ca        1 PM1     -0.135500
     16 C19         5.7090    3.1500    0.2980 ca        1 PM1     -0.103500
     17 C23        -1.2890    0.2420   -1.4330 c         1 PM1      0.614300
     18 C24        -2.7090   -0.1570   -1.2340 ca        1 PM1     -0.230600
     19 C25        -3.0970   -1.5110   -1.3130 ca        1 PM1      0.181400
     20 C26        -4.4470   -1.8830   -1.1650 ca        1 PM1     -0.185000
     21 C27        -5.4110   -0.9030   -0.9490 ca        1 PM1     -0.069000
     22 C28        -5.0580    0.4400   -0.8760 ca        1 PM1     -0.185000
     23 C29        -3.7100    0.8160   -1.0240 ca        1 PM1      0.181400
     24 O33        -0.8540    0.4930   -2.5620 o         1 PM1     -0.501100
     25 O34         3.4620    1.5930   -1.4460 o         1 PM1     -0.559100
     26 N35         4.5160    1.3900    2.8670 nv        1 PM1     -0.821600
     27 F36        -2.1710   -2.4730   -1.5300 f         1 PM1     -0.123900
     28 F39        -3.3810    2.1260   -0.9590 f         1 PM1     -0.123900
     29 H2          1.3240    0.9690   -1.3710 h4        1 PM1      0.226000
     30 H5         -0.5110   -0.1500    3.1840 ha        1 PM1      0.170000
     31 H6         -2.0030   -0.3020    1.1620 ha        1 PM1      0.150000
     32 H15         5.9740   -0.2060   -0.3070 ha        1 PM1      0.145500
     33 H16         8.3760    0.3200    0.1160 ha        1 PM1      0.138500
     34 H17         9.0700    2.6590    0.6440 ha        1 PM1      0.137000
     35 H18         7.3590    4.4730    0.7520 ha        1 PM1      0.138500
     36 H19         4.9550    3.9520    0.3370 ha        1 PM1      0.145500
     37 H26        -4.7240   -2.9450   -1.2290 ha        1 PM1      0.159000
     38 H27        -6.4670   -1.1950   -0.8370 ha        1 PM1      0.148000
     39 H28        -5.8190    1.2170   -0.7120 ha        1 PM1      0.159000
     40 H351        5.3290    1.4430    2.2990 hn        1 PM1      0.437300
     41 H352        4.6350    1.1350    3.8200 hn        1 PM1      0.437300
@<TRIPOS>BOND
     1    1    2 2   
     2    1    6 1   
     3    1   17 1   
     4    2    3 1   
     5    2   29 1   
     6    3    4 1   
     7    3    7 1   
     8    4    5 1   
     9    4    9 2   
    10    5    6 2   
    11    5   30 1   
    12    6   31 1   
    13    7    8 2   
    14    7   10 1   
    15    8    9 1   
    16    8   26 1   
    17   10   11 1   
    18   10   25 2   
    19   11   12 ar  
    20   11   16 ar  
    21   12   13 ar  
    22   12   32 1   
    23   13   14 ar  
    24   13   33 1   
    25   14   15 ar  
    26   14   34 1   
    27   15   16 ar  
    28   15   35 1   
    29   16   36 1   
    30   17   18 1   
    31   17   24 2   
    32   18   19 ar  
    33   18   23 ar  
    34   19   20 ar  
    35   19   27 1   
    36   20   21 ar  
    37   20   37 1   
    38   21   22 ar  
    39   21   38 1   
    40   22   23 ar  
    41   22   39 1   
    42   23   28 1   
    43   26   40 1   
    44   26   41 1   
@<TRIPOS>SUBSTRUCTURE
     1 PM1         1 TEMP              0 ****  ****    0 ROOT
