@<TRIPOS>MOLECULE
PM1
   42    45     1     0     0
SMALL
bcc


@<TRIPOS>ATOM
      1 C1          0.3020    0.6410    0.3710 cc        1 PM1     -0.162600
      2 C2          1.6820    0.6330    0.5000 cd        1 PM1     -0.019300
      3 N3          2.2600    0.2040    1.6730 na        1 PM1      0.059700
      4 C4          1.4420   -0.2670    2.7560 cd        1 PM1      0.027700
      5 C5          0.0170   -0.2400    2.6180 cd        1 PM1     -0.103000
      6 C6         -0.5290    0.2070    1.4450 cc        1 PM1     -0.049000
      7 C10         3.5920    0.0590    2.0660 cd        1 PM1     -0.212300
      8 C11         3.5190   -0.5190    3.3780 cc        1 PM1      0.110600
      9 N12         2.2110   -0.7030    3.8060 nc        1 PM1     -0.258600
     10 C13         4.8340    0.3670    1.3370 c         1 PM1      0.647900
     11 C14         4.8120    1.2840    0.1940 ca        1 PM1     -0.204600
     12 C15         5.5420    0.9530   -0.9570 ca        1 PM1     -0.084000
     13 C16         5.5760    1.8350   -2.0350 ca        1 PM1     -0.126000
     14 C17         4.9070    3.0570   -1.9620 ca        1 PM1     -0.073000
     15 C18         4.1990    3.4000   -0.8060 ca        1 PM1     -0.126000
     16 C19         4.1460    2.5170    0.2690 ca        1 PM1     -0.084000
     17 C23        -0.2740    1.1240   -0.9130 c         1 PM1      0.610300
     18 C24        -1.7000    0.8180   -1.1630 ca        1 PM1     -0.259600
     19 C25        -2.0930   -0.4350   -1.6830 ca        1 PM1      0.184400
     20 C26        -3.4420   -0.6970   -1.9820 ca        1 PM1     -0.175000
     21 C27        -4.3990    0.2910   -1.7690 ca        1 PM1     -0.053000
     22 C28        -4.0400    1.5350   -1.2600 ca        1 PM1     -0.175000
     23 C29        -2.6920    1.8030   -0.9610 ca        1 PM1      0.184400
     24 O33         0.4230    1.7470   -1.7170 o         1 PM1     -0.473100
     25 O34         5.8800   -0.1660    1.7510 o         1 PM1     -0.567100
     26 N35         4.6660   -0.8830    4.1870 n4        1 PM1     -0.684400
     27 F36        -1.1660   -1.3970   -1.8990 f         1 PM1     -0.124400
     28 F39        -2.3470    3.0140   -0.4690 f         1 PM1     -0.124400
     29 H2          2.3570    0.9690   -0.3160 h4        1 PM1      0.222000
     30 H5         -0.5930   -0.5880    3.4670 ha        1 PM1      0.193000
     31 H6         -1.6250    0.2360    1.3110 ha        1 PM1      0.181000
     32 H15         6.0910   -0.0010   -1.0000 ha        1 PM1      0.145500
     33 H16         6.1400    1.5680   -2.9430 ha        1 PM1      0.158000
     34 H17         4.9390    3.7570   -2.8130 ha        1 PM1      0.159000
     35 H18         3.6810    4.3700   -0.7460 ha        1 PM1      0.158000
     36 H19         3.6010    2.7980    1.1820 ha        1 PM1      0.145500
     37 H26        -3.7230   -1.6790   -2.3920 ha        1 PM1      0.170500
     38 H27        -5.4550    0.0860   -2.0120 ha        1 PM1      0.163000
     39 H28        -4.7950    2.3200   -1.0970 ha        1 PM1      0.170500
     40 H351        5.5050   -0.9230    3.5750 hn        1 PM1      0.482133
     41 H352        4.8040   -0.1800    4.9230 hn        1 PM1      0.482133
     42 H353        4.5090   -1.8010    4.6230 hn        1 PM1      0.482133
@<TRIPOS>BOND
     1    1    2 2   
     2    1    6 1   
     3    1   17 1   
     4    2    3 1   
     5    2   29 1   
     6    3    4 1   
     7    3    7 1   
     8    4    5 1   
     9    4    9 2   
    10    5    6 2   
    11    5   30 1   
    12    6   31 1   
    13    7    8 2   
    14    7   10 1   
    15    8    9 1   
    16    8   26 1   
    17   10   11 1   
    18   10   25 2   
    19   11   12 ar  
    20   11   16 ar  
    21   12   13 ar  
    22   12   32 1   
    23   13   14 ar  
    24   13   33 1   
    25   14   15 ar  
    26   14   34 1   
    27   15   16 ar  
    28   15   35 1   
    29   16   36 1   
    30   17   18 1   
    31   17   24 2   
    32   18   19 ar  
    33   18   23 ar  
    34   19   20 ar  
    35   19   27 1   
    36   20   21 ar  
    37   20   37 1   
    38   21   22 ar  
    39   21   38 1   
    40   22   23 ar  
    41   22   39 1   
    42   23   28 1   
    43   26   40 1   
    44   26   41 1   
    45   26   42 1   
@<TRIPOS>SUBSTRUCTURE
     1 PM1         1 TEMP              0 ****  ****    0 ROOT
