@<TRIPOS>MOLECULE
PM1
   41    44     1     0     0
SMALL
bcc


@<TRIPOS>ATOM
      1 C1         -0.0150   -0.0760   -1.6670 cc        1 PM1     -0.247600
      2 C2         -0.4750    0.0410   -0.3550 cd        1 PM1      0.036700
      3 N3          0.2850   -0.4230    0.6750 na        1 PM1      0.038700
      4 C4          1.5580   -1.0370    0.4460 cd        1 PM1      0.055700
      5 C5          2.0260   -1.1550   -0.9010 cd        1 PM1     -0.149000
      6 C6          1.2470   -0.6810   -1.9240 cc        1 PM1     -0.050000
      7 C10         0.0650   -0.4280    2.0740 cd        1 PM1     -0.363300
      8 C11         1.2360   -1.0690    2.6330 cc        1 PM1      0.387600
      9 N12         2.1450   -1.4250    1.6150 nc        1 PM1     -0.356600
     10 C13        -1.1220    0.1170    2.6970 c         1 PM1      0.629900
     11 C14        -1.1820    0.0810    4.1810 ca        1 PM1     -0.153600
     12 C15        -0.7040    1.1650    4.9250 ca        1 PM1     -0.103000
     13 C16        -0.8000    1.1500    6.3160 ca        1 PM1     -0.135500
     14 C17        -1.3760    0.0580    6.9660 ca        1 PM1     -0.120000
     15 C18        -1.8580   -1.0200    6.2240 ca        1 PM1     -0.135500
     16 C19        -1.7640   -1.0120    4.8330 ca        1 PM1     -0.103000
     17 C23        -0.8650    0.4390   -2.7520 c         1 PM1      0.614300
     18 C24        -0.3560    0.2770   -4.1410 ca        1 PM1     -0.230600
     19 C25         0.4150    1.2890   -4.7500 ca        1 PM1      0.181400
     20 C26         0.8620    1.1520   -6.0780 ca        1 PM1     -0.185000
     21 C27         0.5310    0.0110   -6.8020 ca        1 PM1     -0.069000
     22 C28        -0.2360   -0.9980   -6.2290 ca        1 PM1     -0.185000
     23 C29        -0.6840   -0.8650   -4.9020 ca        1 PM1      0.181400
     24 O33        -1.9530    0.9830   -2.5360 o         1 PM1     -0.501100
     25 O34        -2.0560    0.6040    2.0390 o         1 PM1     -0.559100
     26 N35         1.4370   -1.3690    3.9520 nh        1 PM1     -0.821600
     27 F36         0.7380    2.4070   -4.0600 f         1 PM1     -0.123900
     28 F39        -1.4360   -1.8510   -4.3600 f         1 PM1     -0.123900
     29 H2         -1.4560    0.5050   -0.1040 h4        1 PM1      0.226000
     30 H5          3.0040   -1.6280   -1.0700 ha        1 PM1      0.170000
     31 H6          1.5930   -0.7640   -2.9670 ha        1 PM1      0.150000
     32 H15        -0.2660    2.0340    4.4100 ha        1 PM1      0.145500
     33 H16        -0.4290    2.0060    6.8990 ha        1 PM1      0.138500
     34 H17        -1.4560    0.0510    8.0630 ha        1 PM1      0.137000
     35 H18        -2.3190   -1.8790    6.7350 ha        1 PM1      0.138500
     36 H19        -2.1530   -1.8580    4.2460 ha        1 PM1      0.145500
     37 H26         1.4630    1.9550   -6.5300 ha        1 PM1      0.159000
     38 H27         0.8780   -0.0930   -7.8420 ha        1 PM1      0.148000
     39 H28        -0.5040   -1.8990   -6.8010 ha        1 PM1      0.159000
     40 H351        2.3410   -1.6700    4.2310 hn        1 PM1      0.437300
     41 H352        0.8850   -0.8850    4.6210 hn        1 PM1      0.437300
@<TRIPOS>BOND
     1    1    2 2   
     2    1    6 1   
     3    1   17 1   
     4    2    3 1   
     5    2   29 1   
     6    3    4 1   
     7    3    7 1   
     8    4    5 1   
     9    4    9 2   
    10    5    6 2   
    11    5   30 1   
    12    6   31 1   
    13    7    8 2   
    14    7   10 1   
    15    8    9 1   
    16    8   26 1   
    17   10   11 1   
    18   10   25 2   
    19   11   12 ar  
    20   11   16 ar  
    21   12   13 ar  
    22   12   32 1   
    23   13   14 ar  
    24   13   33 1   
    25   14   15 ar  
    26   14   34 1   
    27   15   16 ar  
    28   15   35 1   
    29   16   36 1   
    30   17   18 1   
    31   17   24 2   
    32   18   19 ar  
    33   18   23 ar  
    34   19   20 ar  
    35   19   27 1   
    36   20   21 ar  
    37   20   37 1   
    38   21   22 ar  
    39   21   38 1   
    40   22   23 ar  
    41   22   39 1   
    42   23   28 1   
    43   26   40 1   
    44   26   41 1   
@<TRIPOS>SUBSTRUCTURE
     1 PM1         1 TEMP              0 ****  ****    0 ROOT
