@<TRIPOS>MOLECULE
PM2
   60    63     1     0     0
SMALL
bcc


@<TRIPOS>ATOM
      1 C1          0.1270    0.1390    0.1450 ca        1 PM2     -0.055300
      2 C2          1.4950    0.2350    0.4180 ca        1 PM2     -0.097000
      3 C3         -0.7900    0.2870    1.1960 ca        1 PM2     -0.071000
      4 C4          1.9380    0.4820    1.7220 ca        1 PM2     -0.200300
      5 C5         -0.3480    0.5320    2.4950 ca        1 PM2     -0.114000
      6 C6          1.0150    0.6330    2.7640 ca        1 PM2     -0.107000
      7 C7          3.3920    0.6340    1.9970 c3        1 PM2      0.176100
      8 N8          3.9790   -0.6580    2.4930 n4        1 PM2     -0.845600
      9 C9         -1.1310   -1.4030   -1.3550 c3        1 PM2     -0.102900
     10 C10        -1.6770   -1.6020   -2.7730 c3        1 PM2      0.075500
     11 C11        -3.8310   -0.4680   -3.2440 c         1 PM2      0.666700
     12 O12        -4.4520    0.6070   -3.1580 o         1 PM2     -0.571100
     13 C13        -0.3420   -0.1030   -1.2560 c3        1 PM2     -0.030400
     14 N14        -2.4240   -0.4740   -3.2820 n         1 PM2     -0.450800
     15 C15        -1.7260    0.7900   -3.1560 c3        1 PM2      0.075500
     16 C16        -1.1800    1.0700   -1.7540 c3        1 PM2     -0.102900
     17 C17        -4.5540   -1.7570   -3.3890 ca        1 PM2     -0.262900
     18 C18        -4.2560   -2.6730   -4.4030 ca        1 PM2     -0.063000
     19 C19        -5.6340   -2.0340   -2.5220 ca        1 PM2      0.433200
     20 C20        -5.0250   -3.8380   -4.5130 ca        1 PM2     -0.196600
     21 N21        -6.3720   -3.1550   -2.6060 nb        1 PM2     -0.659000
     22 C22        -4.7530   -4.8410   -5.5740 c3        1 PM2     -0.033100
     23 C23        -6.0690   -4.0320   -3.5820 ca        1 PM2      0.419200
     24 C24        -5.2660   -4.3750   -6.9290 c3        1 PM2     -0.032100
     25 C25        -4.9740   -5.3770   -7.9900 ca        1 PM2     -0.088300
     26 C26        -5.7000   -6.5720   -8.0490 ca        1 PM2     -0.127000
     27 C27        -3.9840   -5.1290   -8.9480 ca        1 PM2     -0.127000
     28 C28        -5.4380   -7.5070   -9.0480 ca        1 PM2     -0.126000
     29 C29        -3.7230   -6.0650   -9.9480 ca        1 PM2     -0.126000
     30 C30        -4.4480   -7.2550   -9.9990 ca        1 PM2     -0.126000
     31 H2          2.2230    0.1370   -0.4030 ha        1 PM2      0.139000
     32 H3         -1.8720    0.2180    0.9900 ha        1 PM2      0.166000
     33 H5         -1.0790    0.6560    3.3110 ha        1 PM2      0.163000
     34 H6          1.3580    0.8520    3.7870 ha        1 PM2      0.137000
     35 H7C1        3.5730    1.4120    2.7950 hx        1 PM2      0.112700
     36 H7C2        3.9560    0.9260    1.0640 hx        1 PM2      0.112700
     37 H8N1        4.9740   -0.5420    2.7010 hn        1 PM2      0.457467
     38 H8N2        3.4870   -0.9570    3.3410 hn        1 PM2      0.457467
     39 H9C1       -1.9760   -1.3940   -0.6180 hc        1 PM2      0.055450
     40 H9C2       -0.4700   -2.2720   -1.1060 hc        1 PM2      0.055450
     41 H101       -0.8070   -1.7680   -3.4720 h1        1 PM2      0.069200
     42 H102       -2.3160   -2.5290   -2.7870 h1        1 PM2      0.069200
     43 H13         0.5570   -0.1950   -1.9320 hc        1 PM2      0.057700
     44 H151       -0.8650    0.7630   -3.8850 h1        1 PM2      0.069200
     45 H152       -2.4170    1.6300   -3.4530 h1        1 PM2      0.069200
     46 H161       -2.0290    1.2620   -1.0480 hc        1 PM2      0.055450
     47 H162       -0.5530    1.9970   -1.7950 hc        1 PM2      0.055450
     48 H18        -3.4380   -2.4800   -5.1130 ha        1 PM2      0.151000
     49 H19        -5.9220   -1.3130   -1.7350 h4        1 PM2      0.038100
     50 H221       -3.6470   -5.0260   -5.6400 hc        1 PM2      0.056700
     51 H222       -5.2390   -5.8200   -5.3130 hc        1 PM2      0.056700
     52 H23        -6.7010   -4.9380   -3.6250 h4        1 PM2      0.033100
     53 H241       -6.3750   -4.2080   -6.8690 hc        1 PM2      0.054700
     54 H242       -4.7940   -3.3890   -7.1840 hc        1 PM2      0.054700
     55 H26        -6.4860   -6.7690   -7.3040 ha        1 PM2      0.129500
     56 H27        -3.4130   -4.1890   -8.9160 ha        1 PM2      0.129500
     57 H28        -6.0140   -8.4430   -9.0890 ha        1 PM2      0.134000
     58 H29        -2.9460   -5.8610  -10.6990 ha        1 PM2      0.134000
     59 H30        -4.2430   -7.9920  -10.7900 ha        1 PM2      0.136000
     60 H83         3.8650   -1.3870    1.7820 hn        1 PM2      0.457467
@<TRIPOS>BOND
     1    1    2 ar  
     2    1    3 ar  
     3    1   13 1   
     4    2    4 ar  
     5    2   31 1   
     6    3    5 ar  
     7    3   32 1   
     8    4    6 ar  
     9    4    7 1   
    10    5    6 ar  
    11    5   33 1   
    12    6   34 1   
    13    7    8 1   
    14    7   35 1   
    15    7   36 1   
    16    8   37 1   
    17    8   38 1   
    18    8   60 1   
    19    9   10 1   
    20    9   13 1   
    21    9   39 1   
    22    9   40 1   
    23   10   14 1   
    24   10   41 1   
    25   10   42 1   
    26   11   12 2   
    27   11   14 1   
    28   11   17 1   
    29   13   16 1   
    30   13   43 1   
    31   14   15 1   
    32   15   16 1   
    33   15   44 1   
    34   15   45 1   
    35   16   46 1   
    36   16   47 1   
    37   17   18 ar  
    38   17   19 ar  
    39   18   20 ar  
    40   18   48 1   
    41   19   21 ar  
    42   19   49 1   
    43   20   22 1   
    44   20   23 ar  
    45   21   23 ar  
    46   22   24 1   
    47   22   50 1   
    48   22   51 1   
    49   23   52 1   
    50   24   25 1   
    51   24   53 1   
    52   24   54 1   
    53   25   26 ar  
    54   25   27 ar  
    55   26   28 ar  
    56   26   55 1   
    57   27   29 ar  
    58   27   56 1   
    59   28   30 ar  
    60   28   57 1   
    61   29   30 ar  
    62   29   58 1   
    63   30   59 1   
@<TRIPOS>SUBSTRUCTURE
     1 PM2         1 TEMP              0 ****  ****    0 ROOT
