@<TRIPOS>MOLECULE
PM2
   60    63     1     0     0
SMALL
bcc


@<TRIPOS>ATOM
      1 C1          0.1290    0.1410    0.1420 ca        1 PM2     -0.055300
      2 C2          1.4970    0.2290    0.4220 ca        1 PM2     -0.097000
      3 C3         -0.7920    0.3030    1.1870 ca        1 PM2     -0.071000
      4 C4          1.9350    0.4810    1.7270 ca        1 PM2     -0.200300
      5 C5         -0.3540    0.5520    2.4880 ca        1 PM2     -0.114000
      6 C6          1.0080    0.6450    2.7630 ca        1 PM2     -0.107000
      7 C7          3.3880    0.6230    2.0080 c3        1 PM2      0.176100
      8 N8          3.9630   -0.6700    2.5160 nz        1 PM2     -0.845600
      9 C9         -1.1330   -1.4010   -1.3540 c3        1 PM2     -0.102900
     10 C10        -1.6730   -1.6040   -2.7750 c3        1 PM2      0.075500
     11 C11        -3.8150   -0.4570   -3.2640 c         1 PM2      0.666700
     12 O12        -4.4290    0.6240   -3.1880 o         1 PM2     -0.571100
     13 C13        -0.3350   -0.1050   -1.2590 c3        1 PM2     -0.030400
     14 N14        -2.4090   -0.4740   -3.2940 n         1 PM2     -0.450800
     15 C15        -1.7010    0.7860   -3.1720 c3        1 PM2      0.075500
     16 C16        -1.1610    1.0710   -1.7700 c3        1 PM2     -0.102900
     17 C17        -4.5480   -1.7410   -3.4040 ca        1 PM2     -0.262900
     18 C18        -4.2520   -2.6660   -4.4110 ca        1 PM2     -0.063000
     19 C19        -5.6330   -2.0050   -2.5400 ca        1 PM2      0.433200
     20 C20        -5.0280   -3.8260   -4.5170 ca        1 PM2     -0.196600
     21 N21        -6.3780   -3.1210   -2.6190 nb        1 PM2     -0.659000
     22 C22        -4.7600   -4.8370   -5.5710 c3        1 PM2     -0.033100
     23 C23        -6.0780   -4.0060   -3.5880 ca        1 PM2      0.419200
     24 C24        -5.2660   -4.3770   -6.9300 c3        1 PM2     -0.032100
     25 C25        -4.9770   -5.3870   -7.9840 ca        1 PM2     -0.088300
     26 C26        -5.7090   -6.5790   -8.0360 ca        1 PM2     -0.127000
     27 C27        -3.9840   -5.1500   -8.9410 ca        1 PM2     -0.127000
     28 C28        -5.4490   -7.5210   -9.0290 ca        1 PM2     -0.126000
     29 C29        -3.7260   -6.0940   -9.9350 ca        1 PM2     -0.126000
     30 C30        -4.4570   -7.2800   -9.9800 ca        1 PM2     -0.126000
     31 H2          2.2280    0.1200   -0.3950 ha        1 PM2      0.139000
     32 H3         -1.8740    0.2410    0.9770 ha        1 PM2      0.166000
     33 H5         -1.0890    0.6870    3.2980 ha        1 PM2      0.163000
     34 H6          1.3460    0.8670    3.7870 ha        1 PM2      0.137000
     35 H7C1        3.9600    0.9050    1.0760 hx        1 PM2      0.112700
     36 H7C2        3.5710    1.4060    2.8010 hx        1 PM2      0.112700
     37 H8N1        3.4650   -0.9590    3.3630 hn        1 PM2      0.457467
     38 H8N2        4.9580   -0.5600    2.7280 hn        1 PM2      0.457467
     39 H9C1       -1.9810   -1.3800   -0.6230 hc        1 PM2      0.055450
     40 H9C2       -0.4790   -2.2730   -1.0970 hc        1 PM2      0.055450
     41 H101       -2.3180   -2.5260   -2.7860 h1        1 PM2      0.069200
     42 H102       -0.8000   -1.7810   -3.4680 h1        1 PM2      0.069200
     43 H13         0.5670   -0.2080   -1.9310 hc        1 PM2      0.057700
     44 H151       -2.3840    1.6300   -3.4780 h1        1 PM2      0.069200
     45 H152       -0.8370    0.7490   -3.8960 h1        1 PM2      0.069200
     46 H161       -0.5260    1.9920   -1.8130 hc        1 PM2      0.055450
     47 H162       -2.0120    1.2730   -1.0690 hc        1 PM2      0.055450
     48 H18        -3.4290   -2.4820   -5.1190 ha        1 PM2      0.151000
     49 H19        -5.9190   -1.2770   -1.7580 h4        1 PM2      0.038100
     50 H221       -5.2520   -5.8110   -5.3050 hc        1 PM2      0.056700
     51 H222       -3.6550   -5.0290   -5.6330 hc        1 PM2      0.056700
     52 H23        -6.7160   -4.9080   -3.6290 h4        1 PM2      0.033100
     53 H241       -4.7880   -3.3950   -7.1900 hc        1 PM2      0.054700
     54 H242       -6.3750   -4.2030   -6.8740 hc        1 PM2      0.054700
     55 H26        -6.4970   -6.7680   -7.2920 ha        1 PM2      0.129500
     56 H27        -3.4090   -4.2130   -8.9150 ha        1 PM2      0.129500
     57 H28        -6.0310   -8.4540   -9.0660 ha        1 PM2      0.134000
     58 H29        -2.9470   -5.8990  -10.6860 ha        1 PM2      0.134000
     59 H30        -4.2540   -8.0230  -10.7650 ha        1 PM2      0.136000
     60 H83         3.8470   -1.4030    1.8090 hn        1 PM2      0.457467
@<TRIPOS>BOND
     1    1    2 ar  
     2    1    3 ar  
     3    1   13 1   
     4    2    4 ar  
     5    2   31 1   
     6    3    5 ar  
     7    3   32 1   
     8    4    6 ar  
     9    4    7 1   
    10    5    6 ar  
    11    5   33 1   
    12    6   34 1   
    13    7    8 1   
    14    7   35 1   
    15    7   36 1   
    16    8   37 1   
    17    8   38 1   
    18    8   60 1   
    19    9   10 1   
    20    9   13 1   
    21    9   39 1   
    22    9   40 1   
    23   10   14 1   
    24   10   41 1   
    25   10   42 1   
    26   11   12 2   
    27   11   14 1   
    28   11   17 1   
    29   13   16 1   
    30   13   43 1   
    31   14   15 1   
    32   15   16 1   
    33   15   44 1   
    34   15   45 1   
    35   16   46 1   
    36   16   47 1   
    37   17   18 ar  
    38   17   19 ar  
    39   18   20 ar  
    40   18   48 1   
    41   19   21 ar  
    42   19   49 1   
    43   20   22 1   
    44   20   23 ar  
    45   21   23 ar  
    46   22   24 1   
    47   22   50 1   
    48   22   51 1   
    49   23   52 1   
    50   24   25 1   
    51   24   53 1   
    52   24   54 1   
    53   25   26 ar  
    54   25   27 ar  
    55   26   28 ar  
    56   26   55 1   
    57   27   29 ar  
    58   27   56 1   
    59   28   30 ar  
    60   28   57 1   
    61   29   30 ar  
    62   29   58 1   
    63   30   59 1   
@<TRIPOS>SUBSTRUCTURE
     1 PM2         1 TEMP              0 ****  ****    0 ROOT
