@<TRIPOS>MOLECULE
PM2
   59    62     1     0     0
SMALL
bcc


@<TRIPOS>ATOM
      1 C1          0.1780    0.0370    4.7510 ca        1 PM2     -0.082300
      2 C2          1.2190    0.2880    5.6520 ca        1 PM2     -0.105000
      3 C3         -0.8630   -0.8190    5.1280 ca        1 PM2     -0.123000
      4 C4          1.2240   -0.3100    6.9150 ca        1 PM2     -0.093300
      5 C5         -0.8600   -1.4150    6.3880 ca        1 PM2     -0.130000
      6 C6          0.1800   -1.1650    7.2820 ca        1 PM2     -0.127000
      7 C7          2.3240   -0.0110    7.8920 c3        1 PM2      0.203100
      8 N8          3.6510   -0.1520    7.3370 n3        1 PM2     -0.916800
      9 C9          0.2620   -0.3570    2.2930 c3        1 PM2     -0.098900
     10 C10         0.2260    0.3100    0.9170 c3        1 PM2      0.076500
     11 C11        -1.9900    0.8900   -0.0410 c         1 PM2      0.666700
     12 O12        -3.0800    1.4750    0.1190 o         1 PM2     -0.589100
     13 C13         0.1920    0.6850    3.4030 c3        1 PM2     -0.019400
     14 N14        -0.8750    1.2300    0.7290 n         1 PM2     -0.449800
     15 C15        -1.0320    2.1910    1.8060 c3        1 PM2      0.076500
     16 C16        -1.0270    1.5770    3.2060 c3        1 PM2     -0.098900
     17 C17        -1.8380   -0.1200   -1.1240 ca        1 PM2     -0.248900
     18 C18        -0.8470   -0.0190   -2.1040 ca        1 PM2     -0.064000
     19 C19        -2.7730   -1.1740   -1.2130 ca        1 PM2      0.433200
     20 C20        -0.8070   -0.9700   -3.1310 ca        1 PM2     -0.200600
     21 N21        -2.7420   -2.1030   -2.1860 nb        1 PM2     -0.664000
     22 C22         0.2260   -0.9090   -4.1950 c3        1 PM2     -0.030100
     23 C23        -1.7780   -1.9960   -3.1200 ca        1 PM2      0.411200
     24 C24        -0.0550    0.2130   -5.1840 c3        1 PM2     -0.034100
     25 C25         0.9890    0.2750   -6.2430 ca        1 PM2     -0.083300
     26 C26         1.0130   -0.6830   -7.2640 ca        1 PM2     -0.126500
     27 C27         1.9470    1.2950   -6.2380 ca        1 PM2     -0.126500
     28 C28         1.9830   -0.6220   -8.2630 ca        1 PM2     -0.127500
     29 C29         2.9170    1.3540   -7.2390 ca        1 PM2     -0.127500
     30 C30         2.9370    0.3960   -8.2520 ca        1 PM2     -0.130000
     31 H2          2.0430    0.9620    5.3690 ha        1 PM2      0.147000
     32 H3         -1.6880   -1.0220    4.4290 ha        1 PM2      0.133000
     33 H5         -1.6830   -2.0850    6.6790 ha        1 PM2      0.132000
     34 H6          0.1760   -1.6390    8.2740 ha        1 PM2      0.131000
     35 H7C1        2.1730   -0.6540    8.8120 h1        1 PM2      0.034200
     36 H7C2        2.2170    1.0640    8.2250 h1        1 PM2      0.034200
     37 H8N1        4.3340   -0.1320    8.0690 hn        1 PM2      0.351800
     38 H8N2        3.7410   -1.0070    6.8250 hn        1 PM2      0.351800
     39 H9C1        1.2140   -0.9410    2.3790 hc        1 PM2      0.055950
     40 H9C2       -0.5910   -1.0780    2.3950 hc        1 PM2      0.055950
     41 H101        1.1770    0.9050    0.7810 h1        1 PM2      0.060950
     42 H102        0.2040   -0.4910    0.1270 h1        1 PM2      0.060950
     43 H13         1.1110    1.3350    3.3220 hc        1 PM2      0.055700
     44 H151       -0.1700    2.9150    1.7220 h1        1 PM2      0.060950
     45 H152       -1.9910    2.7640    1.6580 h1        1 PM2      0.060950
     46 H161       -1.9640    0.9840    3.3680 hc        1 PM2      0.055950
     47 H162       -1.0160    2.4080    3.9570 hc        1 PM2      0.055950
     48 H18        -0.1110    0.7990   -2.0760 ha        1 PM2      0.150000
     49 H19        -3.5880   -1.2660   -0.4710 h4        1 PM2      0.039100
     50 H221        1.2350   -0.7470   -3.7280 hc        1 PM2      0.055700
     51 H222        0.2690   -1.8860   -4.7490 hc        1 PM2      0.055700
     52 H23        -1.7830   -2.7730   -3.9050 h4        1 PM2      0.026100
     53 H241       -1.0590    0.0470   -5.6590 hc        1 PM2      0.054700
     54 H242       -0.1060    1.1880   -4.6310 hc        1 PM2      0.054700
     55 H26         0.2600   -1.4840   -7.2760 ha        1 PM2      0.131000
     56 H27         1.9340    2.0550   -5.4430 ha        1 PM2      0.131000
     57 H28         1.9950   -1.3780   -9.0620 ha        1 PM2      0.132000
     58 H29         3.6660    2.1590   -7.2280 ha        1 PM2      0.132000
     59 H30         3.7010    0.4430   -9.0400 ha        1 PM2      0.132000
@<TRIPOS>BOND
     1    1    2 ar  
     2    1    3 ar  
     3    1   13 1   
     4    2    4 ar  
     5    2   31 1   
     6    3    5 ar  
     7    3   32 1   
     8    4    6 ar  
     9    4    7 1   
    10    5    6 ar  
    11    5   33 1   
    12    6   34 1   
    13    7    8 1   
    14    7   35 1   
    15    7   36 1   
    16    8   37 1   
    17    8   38 1   
    18    9   10 1   
    19    9   13 1   
    20    9   39 1   
    21    9   40 1   
    22   10   14 1   
    23   10   41 1   
    24   10   42 1   
    25   11   12 2   
    26   11   14 1   
    27   11   17 1   
    28   13   16 1   
    29   13   43 1   
    30   14   15 1   
    31   15   16 1   
    32   15   44 1   
    33   15   45 1   
    34   16   46 1   
    35   16   47 1   
    36   17   18 ar  
    37   17   19 ar  
    38   18   20 ar  
    39   18   48 1   
    40   19   21 ar  
    41   19   49 1   
    42   20   22 1   
    43   20   23 ar  
    44   21   23 ar  
    45   22   24 1   
    46   22   50 1   
    47   22   51 1   
    48   23   52 1   
    49   24   25 1   
    50   24   53 1   
    51   24   54 1   
    52   25   26 ar  
    53   25   27 ar  
    54   26   28 ar  
    55   26   55 1   
    56   27   29 ar  
    57   27   56 1   
    58   28   30 ar  
    59   28   57 1   
    60   29   30 ar  
    61   29   58 1   
    62   30   59 1   
@<TRIPOS>SUBSTRUCTURE
     1 PM2         1 TEMP              0 ****  ****    0 ROOT
