@<TRIPOS>MOLECULE
PM2
   60    63     1     0     0
SMALL
bcc


@<TRIPOS>ATOM
      1 C1          0.1320    0.1360    0.1450 ca        1 PM2     -0.055300
      2 C2          1.5000    0.2270    0.4220 ca        1 PM2     -0.097000
      3 C3         -0.7870    0.2910    1.1930 ca        1 PM2     -0.071000
      4 C4          1.9410    0.4750    1.7280 ca        1 PM2     -0.200300
      5 C5         -0.3470    0.5380    2.4930 ca        1 PM2     -0.114000
      6 C6          1.0150    0.6330    2.7660 ca        1 PM2     -0.107000
      7 C7          3.3940    0.6210    2.0060 c3        1 PM2      0.176100
      8 N8          3.9740   -0.6730    2.5080 n4        1 PM2     -0.845600
      9 C9         -1.1290   -1.4040   -1.3540 c3        1 PM2     -0.102900
     10 C10        -1.6710   -1.6030   -2.7740 c3        1 PM2      0.075500
     11 C11        -3.8170   -0.4600   -3.2540 c         1 PM2      0.666700
     12 O12        -4.4340    0.6190   -3.1740 o         1 PM2     -0.571100
     13 C13        -0.3340   -0.1070   -1.2560 c3        1 PM2     -0.030400
     14 N14        -2.4110   -0.4730   -3.2880 n         1 PM2     -0.450800
     15 C15        -1.7070    0.7880   -3.1630 c3        1 PM2      0.075500
     16 C16        -1.1640    1.0690   -1.7610 c3        1 PM2     -0.102900
     17 C17        -4.5470   -1.7460   -3.3970 ca        1 PM2     -0.262900
     18 C18        -4.2510   -2.6660   -4.4080 ca        1 PM2     -0.063000
     19 C19        -5.6290   -2.0160   -2.5310 ca        1 PM2      0.433200
     20 C20        -5.0250   -3.8280   -4.5170 ca        1 PM2     -0.196600
     21 N21        -6.3710   -3.1340   -2.6120 nb        1 PM2     -0.659000
     22 C22        -4.7570   -4.8340   -5.5750 c3        1 PM2     -0.033100
     23 C23        -6.0710   -4.0140   -3.5860 ca        1 PM2      0.419200
     24 C24        -5.2740   -4.3720   -6.9300 c3        1 PM2     -0.032100
     25 C25        -4.9860   -5.3770   -7.9890 ca        1 PM2     -0.088300
     26 C26        -5.7120   -6.5730   -8.0400 ca        1 PM2     -0.127000
     27 C27        -4.0010   -5.1320   -8.9520 ca        1 PM2     -0.127000
     28 C28        -5.4530   -7.5110   -9.0380 ca        1 PM2     -0.126000
     29 C29        -3.7440   -6.0710   -9.9500 ca        1 PM2     -0.126000
     30 C30        -4.4680   -7.2620   -9.9940 ca        1 PM2     -0.126000
     31 H2          2.2300    0.1230   -0.3970 ha        1 PM2      0.139000
     32 H3         -1.8690    0.2270    0.9840 ha        1 PM2      0.166000
     33 H5         -1.0810    0.6670    3.3060 ha        1 PM2      0.163000
     34 H6          1.3550    0.8520    3.7900 ha        1 PM2      0.137000
     35 H7C1        3.5760    1.4010    2.8020 hx        1 PM2      0.112700
     36 H7C2        3.9630    0.9070    1.0740 hx        1 PM2      0.112700
     37 H8N1        3.4770   -0.9660    3.3560 hn        1 PM2      0.457467
     38 H8N2        4.9680   -0.5610    2.7190 hn        1 PM2      0.457467
     39 H9C1       -1.9760   -1.3880   -0.6210 hc        1 PM2      0.055450
     40 H9C2       -0.4720   -2.2750   -1.1010 hc        1 PM2      0.055450
     41 H101       -0.7990   -1.7750   -3.4700 h1        1 PM2      0.069200
     42 H102       -2.3140   -2.5270   -2.7880 h1        1 PM2      0.069200
     43 H13         0.5670   -0.2040   -1.9300 hc        1 PM2      0.057700
     44 H151       -0.8440    0.7550   -3.8890 h1        1 PM2      0.069200
     45 H152       -2.3930    1.6310   -3.4650 h1        1 PM2      0.069200
     46 H161       -0.5320    1.9930   -1.8020 hc        1 PM2      0.055450
     47 H162       -2.0140    1.2670   -1.0580 hc        1 PM2      0.055450
     48 H18        -3.4310   -2.4780   -5.1180 ha        1 PM2      0.151000
     49 H19        -5.9150   -1.2920   -1.7460 h4        1 PM2      0.038100
     50 H221       -3.6510   -5.0190   -5.6440 hc        1 PM2      0.056700
     51 H222       -5.2420   -5.8120   -5.3090 hc        1 PM2      0.056700
     52 H23        -6.7070   -4.9180   -3.6280 h4        1 PM2      0.033100
     53 H241       -6.3830   -4.2040   -6.8670 hc        1 PM2      0.054700
     54 H242       -4.8020   -3.3870   -7.1890 hc        1 PM2      0.054700
     55 H26        -6.4940   -6.7690   -7.2910 ha        1 PM2      0.129500
     56 H27        -3.4300   -4.1910   -8.9260 ha        1 PM2      0.129500
     57 H28        -6.0300   -8.4470   -9.0730 ha        1 PM2      0.134000
     58 H29        -2.9700   -5.8700  -10.7060 ha        1 PM2      0.134000
     59 H30        -4.2670   -8.0010  -10.7830 ha        1 PM2      0.136000
     60 H83         3.8580   -1.4040    1.7990 hn        1 PM2      0.457467
@<TRIPOS>BOND
     1    1    2 ar  
     2    1    3 ar  
     3    1   13 1   
     4    2    4 ar  
     5    2   31 1   
     6    3    5 ar  
     7    3   32 1   
     8    4    6 ar  
     9    4    7 1   
    10    5    6 ar  
    11    5   33 1   
    12    6   34 1   
    13    7    8 1   
    14    7   35 1   
    15    7   36 1   
    16    8   37 1   
    17    8   38 1   
    18    8   60 1   
    19    9   10 1   
    20    9   13 1   
    21    9   39 1   
    22    9   40 1   
    23   10   14 1   
    24   10   41 1   
    25   10   42 1   
    26   11   12 2   
    27   11   14 1   
    28   11   17 1   
    29   13   16 1   
    30   13   43 1   
    31   14   15 1   
    32   15   16 1   
    33   15   44 1   
    34   15   45 1   
    35   16   46 1   
    36   16   47 1   
    37   17   18 ar  
    38   17   19 ar  
    39   18   20 ar  
    40   18   48 1   
    41   19   21 ar  
    42   19   49 1   
    43   20   22 1   
    44   20   23 ar  
    45   21   23 ar  
    46   22   24 1   
    47   22   50 1   
    48   22   51 1   
    49   23   52 1   
    50   24   25 1   
    51   24   53 1   
    52   24   54 1   
    53   25   26 ar  
    54   25   27 ar  
    55   26   28 ar  
    56   26   55 1   
    57   27   29 ar  
    58   27   56 1   
    59   28   30 ar  
    60   28   57 1   
    61   29   30 ar  
    62   29   58 1   
    63   30   59 1   
@<TRIPOS>SUBSTRUCTURE
     1 PM2         1 TEMP              0 ****  ****    0 ROOT
