@<TRIPOS>MOLECULE
PM3
   28    27     1     0     0
SMALL
bcc


@<TRIPOS>ATOM
      1 N           3.6660    1.3880    1.0430 n3        1 PM3     -0.338000
      2 CA          3.8580    0.0620    0.4800 c3        1 PM3     -0.099000
      3 CB          2.8280   -0.3390   -0.5980 c3        1 PM3     -0.097000
      4 CG          1.4060   -0.1700   -0.2070 ca        1 PM3     -0.270000
      5 CD1         0.6910   -1.1990    0.4280 ca        1 PM3     -0.073000
      6 CE1        -0.6400   -1.0660    0.7600 ca        1 PM3     -0.281500
      7 CD2         0.6990    1.0070   -0.5080 ca        1 PM3     -0.073000
      8 CE2        -0.6330    1.1620   -0.1830 ca        1 PM3     -0.281500
      9 CZ         -1.3750    0.1350    0.4880 ca        1 PM3      0.141000
     10 CH4        -2.6910    0.3040    0.8760 c2        1 PM3     -0.675000
     11 P          -4.9550   -0.0740   -0.0460 p3        1 PM3      2.489000
     12 O1         -5.3760   -0.9750    1.0570 o         1 PM3     -1.175667
     13 O2         -4.7760   -0.6600   -1.3940 o         1 PM3     -1.175667
     14 O3         -5.3570    1.3520    0.0480 o         1 PM3     -1.175667
     15 C           5.2810   -0.1120   -0.1280 c2        1 PM3      0.330000
     16 OXT         5.9060   -1.1900    0.1080 o         1 PM3     -0.612500
     17 O           5.7740    0.8180   -0.8370 o         1 PM3     -0.612500
     18 H           4.1070    2.0590    0.4380 hn        1 PM3      0.127500
     19 H2          2.6810    1.5920    1.0620 hn        1 PM3      0.127500
     20 HA          3.7570   -0.6650    1.3370 h1        1 PM3      0.078000
     21 HB2         3.0390    0.2670   -1.5210 hc        1 PM3      0.057500
     22 HB3         3.0260   -1.4140   -0.8530 hc        1 PM3      0.057500
     23 HD1         1.2190   -2.1370    0.6630 ha        1 PM3      0.070000
     24 HE1        -1.1740   -1.8930    1.2460 ha        1 PM3      0.089000
     25 HD2         1.2300    1.8240   -1.0210 ha        1 PM3      0.070000
     26 HE2        -1.1600    2.0900   -0.4410 ha        1 PM3      0.089000
     27 HH42       -3.1490   -0.4250    1.5520 ha        1 PM3      0.105500
     28 HH43       -3.1420    1.3010    0.8230 ha        1 PM3      0.105500
@<TRIPOS>BOND
     1    1    2 1   
     2    1   18 1   
     3    1   19 1   
     4    2    3 1   
     5    2   15 1   
     6    2   20 1   
     7    3    4 1   
     8    3   21 1   
     9    3   22 1   
    10    4    5 1   
    11    4    7 1   
    12    5    6 1   
    13    5   23 1   
    14    6    9 1   
    15    6   24 1   
    16    7    8 1   
    17    7   25 1   
    18    8    9 1   
    19    8   26 1   
    20    9   10 1   
    21   10   27 1   
    22   10   28 1   
    23   11   12 1   
    24   11   13 1   
    25   11   14 1   
    26   15   16 1   
    27   15   17 1   
@<TRIPOS>SUBSTRUCTURE
     1 PM3         1 TEMP              0 ****  ****    0 ROOT
