@<TRIPOS>MOLECULE
PM4
   62    61     1     0     0
SMALL
bcc


@<TRIPOS>ATOM
      1 O23         3.9760   -4.0290    3.2320 o         1 PM4     -0.889300
      2 P24         3.3000   -4.3750    1.9800 p5        1 PM4      1.571500
      3 O26         1.7990   -3.8760    1.9450 oh        1 PM4     -0.776400
      4 O27         4.0280   -3.5180    0.8450 os        1 PM4     -0.599200
      5 C28         3.9600   -3.9010   -0.5100 c3        1 PM4      0.179400
      6 C29         5.3370   -4.2850   -1.0690 c3        1 PM4     -0.064000
      7 C30         5.8770   -5.5660   -0.4550 c3        1 PM4     -0.106100
      8 C31         5.1490   -4.5180   -2.5700 c3        1 PM4     -0.106100
      9 C32         6.3610   -3.1430   -0.8870 c3        1 PM4      0.100100
     10 O33         5.9200   -2.0480   -1.6740 oh        1 PM4     -0.593800
     11 C34         6.5710   -2.7150    0.5770 c         1 PM4      0.674100
     12 O35         7.1020   -3.4980    1.4030 o         1 PM4     -0.686100
     13 N36         6.2570   -1.4280    0.9500 ns        1 PM4     -0.556900
     14 C37         6.6810   -0.8400    2.1830 c3        1 PM4      0.099000
     15 C38         5.7120   -0.9790    3.3710 c3        1 PM4     -0.188400
     16 C39         6.3380   -1.7580    4.4950 c         1 PM4      0.554100
     17 O40         6.7930   -1.2960    5.5320 o         1 PM4     -0.430100
     18 N41         6.3910   -3.2420    4.3060 ny        1 PM4     -0.678800
     19 C42         7.4560   -3.9020    5.1130 c3        1 PM4      0.116800
     20 C43         7.5530   -5.3910    4.8350 c3        1 PM4     -0.068300
     21 S1          8.7980   -6.1200    5.8420 ss        1 PM4     -0.211700
     22 C1          8.0750   -6.2170    7.4190 c         1 PM4      0.585700
     23 O1          6.9610   -5.7760    7.7110 o         1 PM4     -0.526100
     24 C2          9.0140   -6.8910    8.3680 c3        1 PM4     -0.169400
     25 C3          8.3600   -8.0910    9.0270 c3        1 PM4     -0.073400
     26 C4          9.2810   -8.6980   10.0640 c3        1 PM4     -0.080400
     27 C5          8.6430   -9.9060   10.7170 c3        1 PM4     -0.079400
     28 C6          9.5520  -10.5140   11.7540 c3        1 PM4     -0.095100
     29 H24         3.2550   -5.5790    1.5790 hp        1 PM4     -0.106400
     30 H281        3.5790   -3.0060   -1.0830 h1        1 PM4      0.064200
     31 H282        3.2460   -4.7630   -0.6190 h1        1 PM4      0.064200
     32 H301        5.0850   -6.3530   -0.4490 hc        1 PM4      0.054867
     33 H302        6.7370   -5.9450   -1.0620 hc        1 PM4      0.054867
     34 H303        6.2470   -5.4010    0.5850 hc        1 PM4      0.054867
     35 H311        4.7430   -3.6000   -3.0600 hc        1 PM4      0.054867
     36 H312        6.1280   -4.7700   -3.0430 hc        1 PM4      0.054867
     37 H313        4.4420   -5.3650   -2.7370 hc        1 PM4      0.054867
     38 H32         7.3660   -3.5180   -1.2380 h1        1 PM4      0.084700
     39 H33         6.7040   -1.6290   -2.0520 ho        1 PM4      0.423000
     40 H36         5.6780   -0.8900    0.3440 hn        1 PM4      0.345500
     41 H371        7.6820   -1.2820    2.4630 h1        1 PM4      0.077200
     42 H372        6.8330    0.2650    2.0000 h1        1 PM4      0.077200
     43 H381        5.4740    0.0440    3.7750 hc        1 PM4      0.114200
     44 H382        4.7430   -1.4600    3.0720 hc        1 PM4      0.114200
     45 H41         6.5260   -3.4470    3.3000 hn        1 PM4      0.499300
     46 H421        7.2180   -3.7300    6.2050 hx        1 PM4      0.113200
     47 H422        8.4350   -3.3960    4.8750 hx        1 PM4      0.113200
     48 H431        6.5680   -5.8900    5.0240 h1        1 PM4      0.105700
     49 H432        7.8550   -5.5870    3.7740 h1        1 PM4      0.105700
     50 H21         9.3090   -6.1420    9.1550 hc        1 PM4      0.084700
     51 H22         9.9490   -7.2090    7.8310 hc        1 PM4      0.084700
     52 H31         8.1090   -8.8590    8.2500 hc        1 PM4      0.056200
     53 H32A        7.3980   -7.7720    9.5090 hc        1 PM4      0.056200
     54 H41A       10.2480   -8.9980    9.5810 hc        1 PM4      0.045200
     55 H42         9.5250   -7.9320   10.8480 hc        1 PM4      0.045200
     56 H51         7.6740   -9.6040   11.1950 hc        1 PM4      0.041700
     57 H52         8.4000  -10.6710    9.9330 hc        1 PM4      0.041700
     58 H61        10.5140  -10.8430   11.2920 hc        1 PM4      0.038033
     59 H62         9.0640  -11.4020   12.2220 hc        1 PM4      0.038033
     60 H63         9.7850   -9.7740   12.5580 hc        1 PM4      0.038033
     61 H362        1.5150   -3.2110    2.5690 ho        1 PM4      0.501000
     62 H412        5.4630   -3.6340    4.5650 hn        1 PM4      0.499300
@<TRIPOS>BOND
     1    1    2 2   
     2    2    3 1   
     3    2    4 1   
     4    2   29 1   
     5    3   61 1   
     6    4    5 1   
     7    5    6 1   
     8    5   30 1   
     9    5   31 1   
    10    6    7 1   
    11    6    8 1   
    12    6    9 1   
    13    7   32 1   
    14    7   33 1   
    15    7   34 1   
    16    8   35 1   
    17    8   36 1   
    18    8   37 1   
    19    9   10 1   
    20    9   11 1   
    21    9   38 1   
    22   10   39 1   
    23   11   12 2   
    24   11   13 1   
    25   13   14 1   
    26   13   40 1   
    27   14   15 1   
    28   14   41 1   
    29   14   42 1   
    30   15   16 1   
    31   15   43 1   
    32   15   44 1   
    33   16   17 2   
    34   16   18 1   
    35   18   19 1   
    36   18   45 1   
    37   18   62 1   
    38   19   20 1   
    39   19   46 1   
    40   19   47 1   
    41   20   21 1   
    42   20   48 1   
    43   20   49 1   
    44   21   22 1   
    45   22   23 2   
    46   22   24 1   
    47   24   25 1   
    48   24   50 1   
    49   24   51 1   
    50   25   26 1   
    51   25   52 1   
    52   25   53 1   
    53   26   27 1   
    54   26   54 1   
    55   26   55 1   
    56   27   28 1   
    57   27   56 1   
    58   27   57 1   
    59   28   58 1   
    60   28   59 1   
    61   28   60 1   
@<TRIPOS>SUBSTRUCTURE
     1 PM4         1 TEMP              0 ****  ****    0 ROOT
