@<TRIPOS>MOLECULE
PM4
   62    61     1     0     0
SMALL
bcc


@<TRIPOS>ATOM
      1 O23         3.2650    1.0630   -1.4840 o         1 PM4     -0.785300
      2 P24         4.5110    0.5670   -0.9390 p5        1 PM4      1.515500
      3 O26         4.7370    1.0950    0.5510 oh        1 PM4     -0.792400
      4 O27         4.5210   -1.0300   -0.6940 os        1 PM4     -0.568200
      5 C28         5.4380   -1.5750    0.2160 c3        1 PM4      0.179400
      6 C29         6.1580   -2.7880   -0.4050 c3        1 PM4     -0.096000
      7 C30         5.2550   -3.4930   -1.4020 c3        1 PM4     -0.092100
      8 C31         7.4290   -2.3300   -1.1100 c3        1 PM4     -0.092100
      9 C32         6.5800   -3.7700    0.7090 c3        1 PM4      0.093100
     10 O33         7.4350   -3.1890    1.6660 oh        1 PM4     -0.568800
     11 C34         5.3730   -4.3570    1.4570 c         1 PM4      0.640100
     12 O35         5.0040   -3.8540    2.5460 o         1 PM4     -0.688100
     13 N36         4.7620   -5.4970    0.9780 n         1 PM4     -0.564900
     14 C37         3.4980   -5.9610    1.4770 c3        1 PM4      0.077000
     15 C38         3.5820   -7.1570    2.4360 c3        1 PM4     -0.183400
     16 C39         3.4930   -6.7710    3.8840 c         1 PM4      0.546100
     17 O40         2.6710   -7.1700    4.6950 o         1 PM4     -0.406100
     18 N41         4.5250   -5.7940    4.3810 n4        1 PM4     -0.673800
     19 C42         4.8960   -6.0090    5.8120 c3        1 PM4      0.109800
     20 C43         5.9150   -5.0000    6.3070 c3        1 PM4     -0.075300
     21 S1          6.4870   -5.4460    7.9100 ss        1 PM4     -0.186700
     22 C1          7.4800   -6.8430    7.6300 c         1 PM4      0.585700
     23 O1          7.6040   -7.4050    6.5390 o         1 PM4     -0.543100
     24 C2          8.1310   -7.2750    8.9050 c3        1 PM4     -0.169400
     25 C3          9.6420   -7.3020    8.7660 c3        1 PM4     -0.072400
     26 C4         10.2820   -7.8390   10.0290 c3        1 PM4     -0.080400
     27 C5         11.7920   -7.8560    9.9060 c3        1 PM4     -0.079400
     28 C6         12.4370   -8.3930   11.1580 c3        1 PM4     -0.095100
     29 H24         5.6340    0.7760   -1.5120 hp        1 PM4     -0.117400
     30 H281        4.8600   -1.9100    1.1260 h1        1 PM4      0.050200
     31 H282        6.1880   -0.7940    0.5230 h1        1 PM4      0.050200
     32 H301        4.2310   -3.6330   -0.9800 hc        1 PM4      0.051700
     33 H302        5.6860   -4.4800   -1.6960 hc        1 PM4      0.051700
     34 H303        5.1520   -2.8650   -2.3220 hc        1 PM4      0.051700
     35 H311        7.1870   -1.5480   -1.8680 hc        1 PM4      0.051700
     36 H312        7.9120   -3.1900   -1.6330 hc        1 PM4      0.051700
     37 H313        8.1530   -1.9110   -0.3690 hc        1 PM4      0.051700
     38 H32         7.2000   -4.5990    0.2540 h1        1 PM4      0.107700
     39 H33         6.9700   -2.4430    2.0730 ho        1 PM4      0.424000
     40 H36         4.0340    1.6150    0.9390 ho        1 PM4      0.493000
     41 H371        2.8670   -6.2900    0.5970 h1        1 PM4      0.087700
     42 H372        2.9540   -5.1100    1.9830 h1        1 PM4      0.087700
     43 H381        2.7060   -7.8380    2.2320 hc        1 PM4      0.123200
     44 H382        4.5170   -7.7610    2.2750 hc        1 PM4      0.123200
     45 H41         4.1570   -4.8340    4.2540 hn        1 PM4      0.475800
     46 H421        3.9510   -5.9550    6.4280 hx        1 PM4      0.121700
     47 H422        5.3220   -7.0540    5.8930 hx        1 PM4      0.121700
     48 H431        6.7840   -4.9300    5.6030 h1        1 PM4      0.107700
     49 H432        5.4640   -3.9790    6.4090 h1        1 PM4      0.107700
     50 H21         7.8350   -6.5880    9.7450 hc        1 PM4      0.086700
     51 H22         7.7570   -8.3060    9.1570 hc        1 PM4      0.086700
     52 H31         9.9240   -7.9440    7.8910 hc        1 PM4      0.056200
     53 H32A       10.0220   -6.2660    8.5620 hc        1 PM4      0.056200
     54 H41A        9.9110   -8.8780   10.2290 hc        1 PM4      0.046200
     55 H42         9.9840   -7.2040   10.9040 hc        1 PM4      0.046200
     56 H51        12.1630   -6.8160    9.7070 hc        1 PM4      0.042200
     57 H52        12.0890   -8.4870    9.0270 hc        1 PM4      0.042200
     58 H61        12.1000   -9.4390   11.3590 hc        1 PM4      0.038700
     59 H62        12.1730   -7.7630   12.0410 hc        1 PM4      0.038700
     60 H63        13.5490   -8.3970   11.0470 hc        1 PM4      0.038700
     61 H362        5.0300   -5.8210    0.0730 hn        1 PM4      0.337500
     62 H412        5.3660   -5.8540    3.7910 hn        1 PM4      0.475800
@<TRIPOS>BOND
     1    1    2 2   
     2    2    3 1   
     3    2    4 1   
     4    2   29 1   
     5    3   40 1   
     6    4    5 1   
     7    5    6 1   
     8    5   30 1   
     9    5   31 1   
    10    6    7 1   
    11    6    8 1   
    12    6    9 1   
    13    7   32 1   
    14    7   33 1   
    15    7   34 1   
    16    8   35 1   
    17    8   36 1   
    18    8   37 1   
    19    9   10 1   
    20    9   11 1   
    21    9   38 1   
    22   10   39 1   
    23   11   12 2   
    24   11   13 1   
    25   13   14 1   
    26   13   61 1   
    27   14   15 1   
    28   14   41 1   
    29   14   42 1   
    30   15   16 1   
    31   15   43 1   
    32   15   44 1   
    33   16   17 2   
    34   16   18 1   
    35   18   19 1   
    36   18   45 1   
    37   18   62 1   
    38   19   20 1   
    39   19   46 1   
    40   19   47 1   
    41   20   21 1   
    42   20   48 1   
    43   20   49 1   
    44   21   22 1   
    45   22   23 2   
    46   22   24 1   
    47   24   25 1   
    48   24   50 1   
    49   24   51 1   
    50   25   26 1   
    51   25   52 1   
    52   25   53 1   
    53   26   27 1   
    54   26   54 1   
    55   26   55 1   
    56   27   28 1   
    57   27   56 1   
    58   27   57 1   
    59   28   58 1   
    60   28   59 1   
    61   28   60 1   
@<TRIPOS>SUBSTRUCTURE
     1 PM4         1 TEMP              0 ****  ****    0 ROOT
