@<TRIPOS>MOLECULE
PM4
   62    61     1     0     0
SMALL
bcc


@<TRIPOS>ATOM
      1 O23         3.8200    0.5800    1.6650 o         1 PM4     -0.767300
      2 P24         4.9050   -0.3570    1.4880 p5        1 PM4      1.509500
      3 O26         4.7500   -1.5260    2.6020 oh        1 PM4     -0.826400
      4 O27         4.8560   -1.2250    0.1430 os        1 PM4     -0.560200
      5 C28         5.8360   -2.2290    0.0050 c3        1 PM4      0.179400
      6 C29         5.4010   -3.2490   -1.0590 c3        1 PM4     -0.038000
      7 C30         3.8890   -3.3500   -1.1450 c3        1 PM4     -0.094600
      8 C31         5.9370   -2.8130   -2.4200 c3        1 PM4     -0.094600
      9 C32         6.0430   -4.6140   -0.7150 c3        1 PM4      0.089100
     10 O33         7.4410   -4.3930   -0.6660 oh        1 PM4     -0.575800
     11 C34         5.6050   -5.1880    0.6450 c         1 PM4      0.635100
     12 O35         6.4360   -5.2130    1.5890 o         1 PM4     -0.701100
     13 N36         4.3310   -5.6630    0.8040 n         1 PM4     -0.560900
     14 C37         3.8170   -6.3650    1.9490 c3        1 PM4      0.100000
     15 C38         4.4510   -6.0430    3.3050 c3        1 PM4     -0.162400
     16 C39         4.3900   -4.5750    3.6100 c         1 PM4      0.570100
     17 O40         3.4170   -3.8370    3.5550 o         1 PM4     -0.433100
     18 N41         5.6860   -3.9210    4.0240 n4        1 PM4     -0.686800
     19 C42         6.0120   -4.2190    5.4490 c3        1 PM4      0.107800
     20 C43         7.4220   -3.8070    5.8290 c3        1 PM4     -0.075300
     21 S1          7.7690   -4.2310    7.5010 ss        1 PM4     -0.188700
     22 C1          7.7930   -5.9670    7.5350 c         1 PM4      0.586700
     23 O1          7.4790   -6.6960    6.5900 o         1 PM4     -0.542100
     24 C2          8.2150   -6.4400    8.8890 c3        1 PM4     -0.169400
     25 C3          9.4510   -7.3150    8.8010 c3        1 PM4     -0.072400
     26 C4          9.8090   -7.8700   10.1640 c3        1 PM4     -0.080400
     27 C5         11.0510   -8.7330   10.0890 c3        1 PM4     -0.079400
     28 C6         11.4110   -9.2920   11.4410 c3        1 PM4     -0.095100
     29 H24         6.1340   -0.0380    1.6270 hp        1 PM4     -0.117400
     30 H281        5.9680   -2.7360    1.0020 h1        1 PM4      0.040700
     31 H282        6.8070   -1.7500   -0.3000 h1        1 PM4      0.040700
     32 H301        3.4920   -2.4440   -1.6700 hc        1 PM4      0.054533
     33 H302        3.5860   -4.2550   -1.7250 hc        1 PM4      0.054533
     34 H303        3.4210   -3.3690   -0.1330 hc        1 PM4      0.054533
     35 H311        5.5890   -1.7750   -2.6430 hc        1 PM4      0.054533
     36 H312        7.0540   -2.8310   -2.4250 hc        1 PM4      0.054533
     37 H313        5.5630   -3.4980   -3.2170 hc        1 PM4      0.054533
     38 H32         5.7980   -5.3600   -1.5230 h1        1 PM4      0.076700
     39 H33         7.8600   -5.2020   -0.3410 ho        1 PM4      0.429000
     40 H36         3.8680   -1.5970    2.9720 ho        1 PM4      0.488000
     41 H371        3.9470   -7.4790    1.7940 h1        1 PM4      0.080700
     42 H372        2.7090   -6.1440    2.0100 h1        1 PM4      0.080700
     43 H381        3.8560   -6.5770    4.1000 hc        1 PM4      0.120200
     44 H382        5.5050   -6.4370    3.3320 hc        1 PM4      0.120200
     45 H41         5.6130   -2.9000    3.8860 hn        1 PM4      0.484800
     46 H421        5.2590   -3.6830    6.0960 hx        1 PM4      0.115700
     47 H422        5.9000   -5.3370    5.5980 hx        1 PM4      0.115700
     48 H431        7.5580   -2.6960    5.7660 h1        1 PM4      0.106200
     49 H432        8.1700   -4.2920    5.1500 h1        1 PM4      0.106200
     50 H21         8.4140   -5.5620    9.5640 hc        1 PM4      0.086700
     51 H22         7.3660   -7.0290    9.3350 hc        1 PM4      0.086700
     52 H31         9.2610   -8.1560    8.0830 hc        1 PM4      0.056700
     53 H32A       10.3110   -6.7170    8.4000 hc        1 PM4      0.056700
     54 H41A        9.9800   -7.0260   10.8830 hc        1 PM4      0.046700
     55 H42         8.9530   -8.4770   10.5610 hc        1 PM4      0.046700
     56 H51        10.8790   -9.5740    9.3660 hc        1 PM4      0.042200
     57 H52        11.9060   -8.1240    9.6930 hc        1 PM4      0.042200
     58 H61        10.5810   -9.9230   11.8420 hc        1 PM4      0.039033
     59 H62        11.6090   -8.4690   12.1700 hc        1 PM4      0.039033
     60 H63        12.3290   -9.9240   11.3650 hc        1 PM4      0.039033
     61 H362        3.7170   -5.6310    0.0170 hn        1 PM4      0.344500
     62 H412        6.4400   -4.2770    3.4110 hn        1 PM4      0.484800
@<TRIPOS>BOND
     1    1    2 2   
     2    2    3 1   
     3    2    4 1   
     4    2   29 1   
     5    3   40 1   
     6    4    5 1   
     7    5    6 1   
     8    5   30 1   
     9    5   31 1   
    10    6    7 1   
    11    6    8 1   
    12    6    9 1   
    13    7   32 1   
    14    7   33 1   
    15    7   34 1   
    16    8   35 1   
    17    8   36 1   
    18    8   37 1   
    19    9   10 1   
    20    9   11 1   
    21    9   38 1   
    22   10   39 1   
    23   11   12 2   
    24   11   13 1   
    25   13   14 1   
    26   13   61 1   
    27   14   15 1   
    28   14   41 1   
    29   14   42 1   
    30   15   16 1   
    31   15   43 1   
    32   15   44 1   
    33   16   17 2   
    34   16   18 1   
    35   18   19 1   
    36   18   45 1   
    37   18   62 1   
    38   19   20 1   
    39   19   46 1   
    40   19   47 1   
    41   20   21 1   
    42   20   48 1   
    43   20   49 1   
    44   21   22 1   
    45   22   23 2   
    46   22   24 1   
    47   24   25 1   
    48   24   50 1   
    49   24   51 1   
    50   25   26 1   
    51   25   52 1   
    52   25   53 1   
    53   26   27 1   
    54   26   54 1   
    55   26   55 1   
    56   27   28 1   
    57   27   56 1   
    58   27   57 1   
    59   28   58 1   
    60   28   59 1   
    61   28   60 1   
@<TRIPOS>SUBSTRUCTURE
     1 PM4         1 TEMP              0 ****  ****    0 ROOT
