@<TRIPOS>MOLECULE
PM4
   60    59     1     0     0
SMALL
bcc


@<TRIPOS>ATOM
      1 O23         1.5100    2.5620   -2.2630 o         1 PM4     -0.861000
      2 P24         1.9800    2.0190   -0.9780 p5        1 PM4      1.365800
      3 O26         1.3240    0.8540   -0.3240 o         1 PM4     -0.861000
      4 O27         3.5820    1.6240   -1.1930 os        1 PM4     -0.580200
      5 C28         4.1240    0.5940   -0.4400 c3        1 PM4      0.191400
      6 C29         4.8870   -0.4050   -1.3380 c3        1 PM4     -0.098000
      7 C30         3.9530   -0.9800   -2.3900 c3        1 PM4     -0.084100
      8 C31         6.0210    0.3280   -2.0420 c3        1 PM4     -0.084100
      9 C32         5.4910   -1.5410   -0.4820 c3        1 PM4      0.074100
     10 O33         6.6490   -1.1270    0.2180 oh        1 PM4     -0.593800
     11 C34         4.4820   -2.0970    0.5370 c         1 PM4      0.612100
     12 O35         4.5970   -1.7830    1.7380 o         1 PM4     -0.605100
     13 N36         3.5190   -3.0010    0.0950 n         1 PM4     -0.521900
     14 C37         2.2570   -3.0760    0.8030 c3        1 PM4      0.075000
     15 C38         1.4270   -1.8020    0.6700 c3        1 PM4     -0.199400
     16 C39        -0.0280   -2.0000    1.0190 c         1 PM4      0.672100
     17 O40        -0.5250   -3.1220    1.2660 o         1 PM4     -0.666100
     18 N41        -0.7770   -0.8380    1.0690 n         1 PM4     -0.558900
     19 C42        -2.2050   -0.8580    1.1700 c3        1 PM4      0.098000
     20 C43        -2.9310   -0.4340   -0.1060 c3        1 PM4     -0.048300
     21 S1         -4.6480   -0.8550   -0.0100 ss        1 PM4     -0.259700
     22 C1         -5.4910    0.6000    0.3360 c         1 PM4      0.567700
     23 O1         -5.0150    1.7290    0.4860 o         1 PM4     -0.527100
     24 C2         -6.9630    0.3140    0.4500 c3        1 PM4     -0.170400
     25 C3         -7.7680    1.2190   -0.4600 c3        1 PM4     -0.074400
     26 C4         -9.2530    1.0120   -0.2540 c3        1 PM4     -0.078400
     27 C5        -10.0620    1.9040   -1.1710 c3        1 PM4     -0.080400
     28 C6        -11.5420    1.7070   -0.9690 c3        1 PM4     -0.092100
     29 H24         2.1420    2.9720   -0.0800 hp        1 PM4     -0.224400
     30 H281        4.8700    1.0250    0.2910 h1        1 PM4      0.028700
     31 H282        3.3140    0.0530    0.1290 h1        1 PM4      0.028700
     32 H301        3.7690   -0.2080   -3.1780 hc        1 PM4      0.039367
     33 H302        4.3990   -1.8840   -2.8700 hc        1 PM4      0.039367
     34 H303        2.9620   -1.2460   -1.9500 hc        1 PM4      0.039367
     35 H311        6.7810    0.6720   -1.3000 hc        1 PM4      0.039367
     36 H312        6.5190   -0.3450   -2.7790 hc        1 PM4      0.039367
     37 H313        5.6050    1.2200   -2.5720 hc        1 PM4      0.039367
     38 H32         5.8620   -2.3620   -1.1590 h1        1 PM4      0.077700
     39 H33         6.3600   -0.5430    0.9350 ho        1 PM4      0.421000
     40 H36         3.4240   -3.0440   -0.8990 hn        1 PM4      0.285500
     41 H371        1.6810   -3.9540    0.3970 h1        1 PM4      0.068700
     42 H372        2.4750   -3.2680    1.8910 h1        1 PM4      0.068700
     43 H381        1.8650   -0.9940    1.3190 hc        1 PM4      0.108700
     44 H382        1.4600   -1.3980   -0.3830 hc        1 PM4      0.108700
     45 H41        -0.3420   -0.0030    0.7120 hn        1 PM4      0.372500
     46 H421       -2.5410   -1.8970    1.4580 h1        1 PM4      0.059200
     47 H422       -2.5060   -0.1490    1.9960 h1        1 PM4      0.059200
     48 H431       -2.8060    0.6630   -0.2840 h1        1 PM4      0.097200
     49 H432       -2.5310   -0.9820   -0.9950 h1        1 PM4      0.097200
     50 H21        -7.1690   -0.7620    0.2020 hc        1 PM4      0.068700
     51 H22        -7.2660    0.4820    1.5180 hc        1 PM4      0.068700
     52 H31        -7.4970    2.2880   -0.2510 hc        1 PM4      0.055200
     53 H32A       -7.5020    1.0110   -1.5300 hc        1 PM4      0.055200
     54 H41A       -9.5150   -0.0620   -0.4460 hc        1 PM4      0.038200
     55 H42        -9.5200    1.2310    0.8140 hc        1 PM4      0.038200
     56 H51        -9.7940    2.9760   -0.9800 hc        1 PM4      0.041200
     57 H52        -9.7940    1.6820   -2.2380 hc        1 PM4      0.041200
     58 H61       -12.1200    2.3730   -1.6550 hc        1 PM4      0.030367
     59 H62       -11.8320    0.6490   -1.1780 hc        1 PM4      0.030367
     60 H63       -11.8320    1.9480    0.0830 hc        1 PM4      0.030367
@<TRIPOS>BOND
     1    1    2 1   
     2    2    3 1   
     3    2    4 1   
     4    2   29 1   
     5    4    5 1   
     6    5    6 1   
     7    5   30 1   
     8    5   31 1   
     9    6    7 1   
    10    6    8 1   
    11    6    9 1   
    12    7   32 1   
    13    7   33 1   
    14    7   34 1   
    15    8   35 1   
    16    8   36 1   
    17    8   37 1   
    18    9   10 1   
    19    9   11 1   
    20    9   38 1   
    21   10   39 1   
    22   11   12 2   
    23   11   13 1   
    24   13   14 1   
    25   13   40 1   
    26   14   15 1   
    27   14   41 1   
    28   14   42 1   
    29   15   16 1   
    30   15   43 1   
    31   15   44 1   
    32   16   17 2   
    33   16   18 1   
    34   18   19 1   
    35   18   45 1   
    36   19   20 1   
    37   19   46 1   
    38   19   47 1   
    39   20   21 1   
    40   20   48 1   
    41   20   49 1   
    42   21   22 1   
    43   22   23 2   
    44   22   24 1   
    45   24   25 1   
    46   24   50 1   
    47   24   51 1   
    48   25   26 1   
    49   25   52 1   
    50   25   53 1   
    51   26   27 1   
    52   26   54 1   
    53   26   55 1   
    54   27   28 1   
    55   27   56 1   
    56   27   57 1   
    57   28   58 1   
    58   28   59 1   
    59   28   60 1   
@<TRIPOS>SUBSTRUCTURE
     1 PM4         1 TEMP              0 ****  ****    0 ROOT
