@<TRIPOS>MOLECULE
PM5
   63    62     1     0     0
SMALL
bcc


@<TRIPOS>ATOM
      1 O23         1.7460    2.6320   -2.1310 o         1 PM5     -0.861000
      2 P24         2.2590    2.0480   -0.8810 p5        1 PM5      1.365800
      3 O26         1.6530    0.8350   -0.2680 o         1 PM5     -0.861000
      4 O27         3.8670    1.7130   -1.1450 os        1 PM5     -0.580200
      5 C28         4.4560    0.6680   -0.4500 c3        1 PM5      0.191400
      6 C29         5.2310   -0.2650   -1.4060 c3        1 PM5     -0.098000
      7 C30         4.2940   -0.8220   -2.4650 c3        1 PM5     -0.084100
      8 C31         6.3270    0.5340   -2.0980 c3        1 PM5     -0.084100
      9 C32         5.8870   -1.4190   -0.6140 c3        1 PM5      0.074100
     10 O33         7.0450   -1.0000    0.0820 oh        1 PM5     -0.593800
     11 C34         4.9170   -2.0520    0.3970 c         1 PM5      0.612100
     12 O35         5.0460   -1.7880    1.6100 o         1 PM5     -0.605100
     13 N36         3.9720   -2.9650   -0.0670 n         1 PM5     -0.521900
     14 C37         2.7290   -3.1110    0.6610 c3        1 PM5      0.075000
     15 C38         1.8570   -1.8590    0.6020 c3        1 PM5     -0.199400
     16 C39         0.4160   -2.1180    0.9690 c         1 PM5      0.672100
     17 O40        -0.0410   -3.2650    1.1750 o         1 PM5     -0.666100
     18 N41        -0.3670   -0.9830    1.0860 n         1 PM5     -0.558900
     19 C42        -1.7910   -1.0530    1.2130 c3        1 PM5      0.098000
     20 C43        -2.5560   -0.5960   -0.0290 c3        1 PM5     -0.048300
     21 S1         -4.2570   -1.0750    0.0810 ss        1 PM5     -0.259700
     22 C1         -5.1370    0.3360    0.5080 c         1 PM5      0.567700
     23 O1         -4.6930    1.4710    0.6990 o         1 PM5     -0.527100
     24 C2         -6.5970   -0.0020    0.6360 c3        1 PM5     -0.170400
     25 C3         -7.4470    0.9170   -0.2170 c3        1 PM5     -0.074400
     26 C4         -8.9210    0.6540    0.0080 c3        1 PM5     -0.077400
     27 C5         -9.7740    1.5590   -0.8540 c3        1 PM5     -0.079400
     28 C6        -11.2490    1.3040   -0.6290 c3        1 PM5     -0.080400
     29 C7        -12.1030    2.2020   -1.4860 c3        1 PM5     -0.092100
     30 H24         2.4100    2.9630    0.0550 hp        1 PM5     -0.224400
     31 H281        5.2030    1.0890    0.2860 h1        1 PM5      0.028700
     32 H282        3.6750    0.0770    0.1100 h1        1 PM5      0.028700
     33 H301        4.0710   -0.0220   -3.2140 hc        1 PM5      0.039367
     34 H302        4.7570   -1.6890   -2.9940 hc        1 PM5      0.039367
     35 H303        3.3200   -1.1390   -2.0190 hc        1 PM5      0.039367
     36 H311        7.0910    0.8680   -1.3560 hc        1 PM5      0.039367
     37 H312        6.8310   -0.0900   -2.8740 hc        1 PM5      0.039367
     38 H313        5.8730    1.4350   -2.5780 hc        1 PM5      0.039367
     39 H32         6.2690   -2.1970   -1.3350 h1        1 PM5      0.077700
     40 H33         6.7540   -0.4590    0.8300 ho        1 PM5      0.421000
     41 H36         3.8580   -2.9670   -1.0590 hn        1 PM5      0.285500
     42 H371        2.1710   -3.9880    0.2270 h1        1 PM5      0.068700
     43 H372        2.9740   -3.3450    1.7350 h1        1 PM5      0.068700
     44 H381        2.2840   -1.0670    1.2790 hc        1 PM5      0.108700
     45 H382        1.8570   -1.4070   -0.4320 hc        1 PM5      0.108700
     46 H41         0.0350   -0.1200    0.7590 hn        1 PM5      0.372500
     47 H421       -2.0890   -2.1140    1.4600 h1        1 PM5      0.059200
     48 H422       -2.0970   -0.3920    2.0760 h1        1 PM5      0.059200
     49 H431       -2.4680    0.5110   -0.1590 h1        1 PM5      0.097200
     50 H432       -2.1570   -1.0910   -0.9490 h1        1 PM5      0.097200
     51 H21        -6.7750   -1.0720    0.3440 hc        1 PM5      0.068700
     52 H22        -6.8830    0.1090    1.7170 hc        1 PM5      0.068700
     53 H31        -7.2050    1.9840    0.0340 hc        1 PM5      0.055200
     54 H32A       -7.1970    0.7640   -1.3000 hc        1 PM5      0.055200
     55 H41A       -9.1530   -0.4190   -0.2270 hc        1 PM5      0.038200
     56 H42        -9.1720    0.8180    1.0890 hc        1 PM5      0.038200
     57 H51        -9.5380    2.6310   -0.6210 hc        1 PM5      0.042200
     58 H52        -9.5250    1.3930   -1.9350 hc        1 PM5      0.042200
     59 H61       -11.4820    0.2300   -0.8600 hc        1 PM5      0.036700
     60 H62       -11.4960    1.4690    0.4530 hc        1 PM5      0.036700
     61 H71       -13.1860    1.9980   -1.3050 hc        1 PM5      0.031033
     62 H72       -11.9020    3.2760   -1.2530 hc        1 PM5      0.031033
     63 H73       -11.8880    2.0340   -2.5690 hc        1 PM5      0.031033
@<TRIPOS>BOND
     1    1    2 1   
     2    2    3 1   
     3    2    4 1   
     4    2   30 1   
     5    4    5 1   
     6    5    6 1   
     7    5   31 1   
     8    5   32 1   
     9    6    7 1   
    10    6    8 1   
    11    6    9 1   
    12    7   33 1   
    13    7   34 1   
    14    7   35 1   
    15    8   36 1   
    16    8   37 1   
    17    8   38 1   
    18    9   10 1   
    19    9   11 1   
    20    9   39 1   
    21   10   40 1   
    22   11   12 2   
    23   11   13 1   
    24   13   14 1   
    25   13   41 1   
    26   14   15 1   
    27   14   42 1   
    28   14   43 1   
    29   15   16 1   
    30   15   44 1   
    31   15   45 1   
    32   16   17 2   
    33   16   18 1   
    34   18   19 1   
    35   18   46 1   
    36   19   20 1   
    37   19   47 1   
    38   19   48 1   
    39   20   21 1   
    40   20   49 1   
    41   20   50 1   
    42   21   22 1   
    43   22   23 2   
    44   22   24 1   
    45   24   25 1   
    46   24   51 1   
    47   24   52 1   
    48   25   26 1   
    49   25   53 1   
    50   25   54 1   
    51   26   27 1   
    52   26   55 1   
    53   26   56 1   
    54   27   28 1   
    55   27   57 1   
    56   27   58 1   
    57   28   29 1   
    58   28   59 1   
    59   28   60 1   
    60   29   61 1   
    61   29   62 1   
    62   29   63 1   
@<TRIPOS>SUBSTRUCTURE
     1 PM5         1 TEMP              0 ****  ****    0 ROOT
