@<TRIPOS>MOLECULE
PM5
   65    64     1     0     0
SMALL
bcc


@<TRIPOS>ATOM
      1 O23         4.1310   -3.7120    3.4480 o         1 PM5     -0.889300
      2 P24         3.3000   -4.0600    2.2920 p5        1 PM5      1.571500
      3 O26         1.8890   -3.3460    2.3250 oh        1 PM5     -0.776400
      4 O27         4.0360   -3.4240    1.0250 os        1 PM5     -0.599200
      5 C28         3.7900   -3.9080   -0.2750 c3        1 PM5      0.179400
      6 C29         5.0420   -4.5400   -0.9000 c3        1 PM5     -0.064000
      7 C30         5.4490   -5.8300   -0.2060 c3        1 PM5     -0.106100
      8 C31         4.6860   -4.8710   -2.3500 c3        1 PM5     -0.106100
      9 C32         6.2300   -3.5530   -0.9120 c3        1 PM5      0.100100
     10 O33         5.8790   -2.4760   -1.7660 oh        1 PM5     -0.593800
     11 C34         6.6320   -3.0370    0.4830 c         1 PM5      0.674100
     12 O35         7.1200   -3.8160    1.3370 o         1 PM5     -0.686100
     13 N36         6.5380   -1.6900    0.7500 ns        1 PM5     -0.556900
     14 C37         7.1530   -1.0680    1.8820 c3        1 PM5      0.099000
     15 C38         6.2870   -0.9570    3.1500 c3        1 PM5     -0.188400
     16 C39         6.8940   -1.7210    4.2930 c         1 PM5      0.554100
     17 O40         7.5020   -1.2440    5.2420 o         1 PM5     -0.430100
     18 N41         6.7210   -3.2070    4.2470 ny        1 PM5     -0.678800
     19 C42         7.7520   -3.9470    5.0270 c3        1 PM5      0.116800
     20 C43         7.6160   -5.4510    4.8850 c3        1 PM5     -0.068300
     21 S1          8.8330   -6.2700    5.8570 ss        1 PM5     -0.211700
     22 C1          8.2480   -6.1310    7.4870 c         1 PM5      0.585700
     23 O1          7.2370   -5.5110    7.8210 o         1 PM5     -0.526100
     24 C2          9.1650   -6.8550    8.4200 c3        1 PM5     -0.169400
     25 C3          8.4140   -7.8930    9.2320 c3        1 PM5     -0.073400
     26 C4          9.3310   -8.5420   10.2470 c3        1 PM5     -0.079400
     27 C5          8.5920   -9.5900   11.0520 c3        1 PM5     -0.079400
     28 C6          9.5030  -10.2410   12.0720 c3        1 PM5     -0.079400
     29 C7          8.7730  -11.2860   12.8750 c3        1 PM5     -0.094100
     30 H24         3.0480   -5.2740    2.0170 hp        1 PM5     -0.106400
     31 H281        2.9540   -4.6590   -0.2430 h1        1 PM5      0.064200
     32 H282        3.4890   -3.0190   -0.9030 h1        1 PM5      0.064200
     33 H301        4.5580   -6.4860   -0.0600 hc        1 PM5      0.054867
     34 H302        5.9320   -5.6330    0.7810 hc        1 PM5      0.054867
     35 H303        6.1870   -6.3850   -0.8370 hc        1 PM5      0.054867
     36 H311        5.5720   -5.3070   -2.8710 hc        1 PM5      0.054867
     37 H312        4.3720   -3.9490   -2.8970 hc        1 PM5      0.054867
     38 H313        3.8540   -5.6140   -2.3780 hc        1 PM5      0.054867
     39 H32         7.1360   -4.1030   -1.3010 h1        1 PM5      0.084700
     40 H33         6.6760   -2.2130   -2.2430 ho        1 PM5      0.423000
     41 H36         5.9890   -1.1260    0.1410 hn        1 PM5      0.345500
     42 H371        7.4420   -0.0190    1.5790 h1        1 PM5      0.077200
     43 H372        8.1030   -1.6290    2.1260 h1        1 PM5      0.077200
     44 H381        6.2350    0.1210    3.4680 hc        1 PM5      0.114200
     45 H382        5.2350   -1.3100    2.9760 hc        1 PM5      0.114200
     46 H41         5.7750   -3.4330    4.6150 hn        1 PM5      0.498800
     47 H421        8.7670   -3.6110    4.6680 hx        1 PM5      0.113200
     48 H422        7.6400   -3.6520    6.1140 hx        1 PM5      0.113200
     49 H431        7.7900   -5.7770    3.8270 h1        1 PM5      0.105700
     50 H432        6.5920   -5.7830    5.1960 h1        1 PM5      0.105700
     51 H21         9.9970   -7.3470    7.8450 hc        1 PM5      0.084700
     52 H22         9.6290   -6.0970    9.1110 hc        1 PM5      0.084700
     53 H31         7.9920   -8.6760    8.5490 hc        1 PM5      0.056200
     54 H32A        7.5510   -7.4010    9.7550 hc        1 PM5      0.056200
     55 H41A        9.7440   -7.7600   10.9380 hc        1 PM5      0.044700
     56 H42        10.2020   -9.0150    9.7220 hc        1 PM5      0.044700
     57 H51         7.7190   -9.1180   11.5750 hc        1 PM5      0.042700
     58 H52         8.1810  -10.3740   10.3630 hc        1 PM5      0.042700
     59 H61         9.9140   -9.4550   12.7600 hc        1 PM5      0.041200
     60 H62        10.3770  -10.7100   11.5470 hc        1 PM5      0.041200
     61 H71         7.9130  -10.8330   13.4250 hc        1 PM5      0.036367
     62 H72         8.3780  -12.0910   12.2090 hc        1 PM5      0.036367
     63 H73         9.4620  -11.7520   13.6200 hc        1 PM5      0.036367
     64 H362        1.7610   -2.5940    2.9010 ho        1 PM5      0.501000
     65 H412        6.7320   -3.5150    3.2580 hn        1 PM5      0.498800
@<TRIPOS>BOND
     1    1    2 2   
     2    2    3 1   
     3    2    4 1   
     4    2   30 1   
     5    3   64 1   
     6    4    5 1   
     7    5    6 1   
     8    5   31 1   
     9    5   32 1   
    10    6    7 1   
    11    6    8 1   
    12    6    9 1   
    13    7   33 1   
    14    7   34 1   
    15    7   35 1   
    16    8   36 1   
    17    8   37 1   
    18    8   38 1   
    19    9   10 1   
    20    9   11 1   
    21    9   39 1   
    22   10   40 1   
    23   11   12 2   
    24   11   13 1   
    25   13   14 1   
    26   13   41 1   
    27   14   15 1   
    28   14   42 1   
    29   14   43 1   
    30   15   16 1   
    31   15   44 1   
    32   15   45 1   
    33   16   17 2   
    34   16   18 1   
    35   18   19 1   
    36   18   46 1   
    37   18   65 1   
    38   19   20 1   
    39   19   47 1   
    40   19   48 1   
    41   20   21 1   
    42   20   49 1   
    43   20   50 1   
    44   21   22 1   
    45   22   23 2   
    46   22   24 1   
    47   24   25 1   
    48   24   51 1   
    49   24   52 1   
    50   25   26 1   
    51   25   53 1   
    52   25   54 1   
    53   26   27 1   
    54   26   55 1   
    55   26   56 1   
    56   27   28 1   
    57   27   57 1   
    58   27   58 1   
    59   28   29 1   
    60   28   59 1   
    61   28   60 1   
    62   29   61 1   
    63   29   62 1   
    64   29   63 1   
@<TRIPOS>SUBSTRUCTURE
     1 PM5         1 TEMP              0 ****  ****    0 ROOT
