@<TRIPOS>MOLECULE
PM5
   65    64     1     0     0
SMALL
bcc


@<TRIPOS>ATOM
      1 O23         2.6460   -6.0670   -0.2450 o         1 PM5     -0.801300
      2 P24         3.2620   -5.8190    1.0440 p5        1 PM5      1.500500
      3 O26         4.8000   -6.3230    0.9460 oh        1 PM5     -0.804400
      4 O27         3.4680   -4.2730    1.4040 os        1 PM5     -0.593200
      5 C28         2.9500   -3.2870    0.5350 c3        1 PM5      0.157400
      6 C29         4.0400   -2.3050    0.0700 c3        1 PM5     -0.095000
      7 C30         4.8290   -2.8910   -1.0860 c3        1 PM5     -0.099600
      8 C31         3.3100   -1.0560   -0.4290 c3        1 PM5     -0.099600
      9 C32         4.9550   -1.8610    1.2330 c3        1 PM5      0.113100
     10 O33         4.2330   -1.6590    2.4230 oh        1 PM5     -0.568800
     11 C34         6.1040   -2.8380    1.5230 c         1 PM5      0.659100
     12 O35         6.0190   -3.6650    2.4610 o         1 PM5     -0.681100
     13 N36         7.2600   -2.7600    0.7760 n         1 PM5     -0.569900
     14 C37         8.3960   -3.5980    1.0160 c3        1 PM5      0.099000
     15 C38         8.2390   -5.0510    0.5240 c3        1 PM5     -0.188400
     16 C39         8.4400   -6.0480    1.6300 c         1 PM5      0.546100
     17 O40         9.3790   -6.8200    1.7540 o         1 PM5     -0.412100
     18 N41         7.3540   -6.0930    2.6670 n4        1 PM5     -0.683800
     19 C42         7.6160   -7.0690    3.7650 c3        1 PM5      0.110800
     20 C43         6.5560   -7.0240    4.8490 c3        1 PM5     -0.070300
     21 S1          6.9940   -8.0920    6.1770 ss        1 PM5     -0.202700
     22 C1          8.3100   -7.2780    6.9700 c         1 PM5      0.588700
     23 O1          8.8370   -6.2390    6.5650 o         1 PM5     -0.532100
     24 C2          8.7180   -8.0390    8.1900 c3        1 PM5     -0.169400
     25 C3          8.6400   -7.1680    9.4300 c3        1 PM5     -0.073400
     26 C4          9.1550   -7.9170   10.6400 c3        1 PM5     -0.079400
     27 C5          9.0670   -7.0600   11.8860 c3        1 PM5     -0.079400
     28 C6          9.5850   -7.8030   13.0990 c3        1 PM5     -0.079400
     29 C7          9.4990   -6.9550   14.3420 c3        1 PM5     -0.094100
     30 H24         2.8610   -6.3380    2.1350 hp        1 PM5     -0.082400
     31 H281        2.4670   -3.7780   -0.3560 h1        1 PM5      0.081700
     32 H282        2.1830   -2.7090    1.1290 h1        1 PM5      0.081700
     33 H301        4.1370   -3.1310   -1.9320 hc        1 PM5      0.050367
     34 H302        5.3560   -3.8290   -0.7920 hc        1 PM5      0.050367
     35 H303        5.5820   -2.1540   -1.4600 hc        1 PM5      0.050367
     36 H311        2.5250   -1.3400   -1.1710 hc        1 PM5      0.050367
     37 H312        4.0290   -0.3590   -0.9220 hc        1 PM5      0.050367
     38 H313        2.8280   -0.5260    0.4290 hc        1 PM5      0.050367
     39 H32         5.3840   -0.8420    0.9950 h1        1 PM5      0.102700
     40 H33         3.9540   -2.5260    2.7590 ho        1 PM5      0.436000
     41 H36         5.0390   -6.6420    0.0750 ho        1 PM5      0.479000
     42 H371        9.2840   -3.1460    0.4850 h1        1 PM5      0.079200
     43 H372        8.6230   -3.5920    2.1220 h1        1 PM5      0.079200
     44 H381        9.0210   -5.2650   -0.2570 hc        1 PM5      0.112200
     45 H382        7.2310   -5.2250    0.0550 hc        1 PM5      0.112200
     46 H41         7.2480   -5.1400    3.0670 hn        1 PM5      0.489800
     47 H421        8.6260   -6.8160    4.2100 hx        1 PM5      0.118700
     48 H422        7.6770   -8.0980    3.3090 hx        1 PM5      0.118700
     49 H431        6.4240   -5.9780    5.2310 h1        1 PM5      0.103700
     50 H432        5.5670   -7.3890    4.4720 h1        1 PM5      0.103700
     51 H21         9.7760   -8.3930    8.0430 hc        1 PM5      0.085700
     52 H22         8.0680   -8.9470    8.3180 hc        1 PM5      0.085700
     53 H31         9.2460   -6.2370    9.2690 hc        1 PM5      0.056700
     54 H32A        7.5780   -6.8520    9.6050 hc        1 PM5      0.056700
     55 H41A        8.5580   -8.8560   10.7870 hc        1 PM5      0.045200
     56 H42        10.2210   -8.2230   10.4700 hc        1 PM5      0.045200
     57 H51         9.6610   -6.1200   11.7390 hc        1 PM5      0.043200
     58 H52         8.0010   -6.7550   12.0590 hc        1 PM5      0.043200
     59 H61         8.9910   -8.7440   13.2430 hc        1 PM5      0.041200
     60 H62        10.6510   -8.1080   12.9240 hc        1 PM5      0.041200
     61 H71         8.4410   -6.6620   14.5470 hc        1 PM5      0.036700
     62 H72         9.8860   -7.5210   15.2230 hc        1 PM5      0.036700
     63 H73        10.1040   -6.0230   14.2270 hc        1 PM5      0.036700
     64 H362        7.2980   -2.1370    0.0030 hn        1 PM5      0.337500
     65 H412        6.4610   -6.3140    2.1980 hn        1 PM5      0.489800
@<TRIPOS>BOND
     1    1    2 2   
     2    2    3 1   
     3    2    4 1   
     4    2   30 1   
     5    3   41 1   
     6    4    5 1   
     7    5    6 1   
     8    5   31 1   
     9    5   32 1   
    10    6    7 1   
    11    6    8 1   
    12    6    9 1   
    13    7   33 1   
    14    7   34 1   
    15    7   35 1   
    16    8   36 1   
    17    8   37 1   
    18    8   38 1   
    19    9   10 1   
    20    9   11 1   
    21    9   39 1   
    22   10   40 1   
    23   11   12 2   
    24   11   13 1   
    25   13   14 1   
    26   13   64 1   
    27   14   15 1   
    28   14   42 1   
    29   14   43 1   
    30   15   16 1   
    31   15   44 1   
    32   15   45 1   
    33   16   17 2   
    34   16   18 1   
    35   18   19 1   
    36   18   46 1   
    37   18   65 1   
    38   19   20 1   
    39   19   47 1   
    40   19   48 1   
    41   20   21 1   
    42   20   49 1   
    43   20   50 1   
    44   21   22 1   
    45   22   23 2   
    46   22   24 1   
    47   24   25 1   
    48   24   51 1   
    49   24   52 1   
    50   25   26 1   
    51   25   53 1   
    52   25   54 1   
    53   26   27 1   
    54   26   55 1   
    55   26   56 1   
    56   27   28 1   
    57   27   57 1   
    58   27   58 1   
    59   28   29 1   
    60   28   59 1   
    61   28   60 1   
    62   29   61 1   
    63   29   62 1   
    64   29   63 1   
@<TRIPOS>SUBSTRUCTURE
     1 PM5         1 TEMP              0 ****  ****    0 ROOT
