@<TRIPOS>MOLECULE
PM5
   65    64     1     0     0
SMALL
bcc


@<TRIPOS>ATOM
      1 O23         2.4020    0.0370   -2.0750 o         1 PM5     -0.779300
      2 P24         3.0890   -0.4140   -0.8840 p5        1 PM5      1.512500
      3 O26         2.4450   -1.7920   -0.3740 oh        1 PM5     -0.796400
      4 O27         4.6160   -0.8770   -1.1170 os        1 PM5     -0.558200
      5 C28         5.2880   -1.5310   -0.0730 c3        1 PM5      0.180400
      6 C29         6.0110   -2.7800   -0.6070 c3        1 PM5     -0.087000
      7 C30         5.0640   -3.6460   -1.4190 c3        1 PM5     -0.097600
      8 C31         7.1720   -2.3400   -1.4900 c3        1 PM5     -0.097600
      9 C32         6.5870   -3.5980    0.5670 c3        1 PM5      0.090100
     10 O33         7.5490   -2.9040    1.3260 oh        1 PM5     -0.567800
     11 C34         5.4880   -4.0680    1.5340 c         1 PM5      0.634100
     12 O35         5.2330   -3.4030    2.5670 o         1 PM5     -0.685100
     13 N36         4.8570   -5.2740    1.3120 n         1 PM5     -0.565900
     14 C37         3.6640   -5.6600    2.0150 c3        1 PM5      0.074000
     15 C38         3.8740   -6.7280    3.0970 c3        1 PM5     -0.182400
     16 C39         4.0560   -6.1610    4.4750 c         1 PM5      0.547100
     17 O40         3.3890   -6.4220    5.4650 o         1 PM5     -0.406100
     18 N41         5.1780   -5.1720    4.6490 n4        1 PM5     -0.674800
     19 C42         5.7960   -5.2180    6.0080 c3        1 PM5      0.108800
     20 C43         6.9060   -4.1970    6.1790 c3        1 PM5     -0.075300
     21 S1          7.7470   -4.4630    7.7010 ss        1 PM5     -0.187700
     22 C1          8.6540   -5.9210    7.4330 c         1 PM5      0.586700
     23 O1          8.5580   -6.6260    6.4240 o         1 PM5     -0.543100
     24 C2          9.5490   -6.1880    8.5980 c3        1 PM5     -0.170400
     25 C3          9.3640   -7.5960    9.1300 c3        1 PM5     -0.073400
     26 C4         10.3590   -7.8840   10.2340 c3        1 PM5     -0.080400
     27 C5         10.1690   -9.2820   10.7840 c3        1 PM5     -0.079400
     28 C6         11.1640   -9.5770   11.8860 c3        1 PM5     -0.080400
     29 C7         10.9790  -10.9660   12.4390 c3        1 PM5     -0.094100
     30 H24         3.1510    0.2930    0.1790 hp        1 PM5     -0.120400
     31 H281        4.5580   -1.8180    0.7340 h1        1 PM5      0.044200
     32 H282        6.0600   -0.8190    0.3410 h1        1 PM5      0.044200
     33 H301        4.0900   -3.7840   -0.8890 hc        1 PM5      0.054867
     34 H302        5.5200   -4.6440   -1.6260 hc        1 PM5      0.054867
     35 H303        4.8560   -3.1480   -2.3990 hc        1 PM5      0.054867
     36 H311        7.9650   -1.8510   -0.8730 hc        1 PM5      0.054867
     37 H312        6.8010   -1.6090   -2.2500 hc        1 PM5      0.054867
     38 H313        7.6160   -3.2190   -2.0150 hc        1 PM5      0.054867
     39 H32         7.1540   -4.4830    0.1520 h1        1 PM5      0.108700
     40 H33         7.1390   -2.0970    1.6700 ho        1 PM5      0.423000
     41 H36         1.7800   -2.1760   -0.9430 ho        1 PM5      0.486000
     42 H371        3.1830   -4.7480    2.4760 h1        1 PM5      0.088700
     43 H372        2.9310   -6.0900    1.2700 h1        1 PM5      0.088700
     44 H381        2.9510   -7.3760    3.1380 hc        1 PM5      0.123200
     45 H382        4.7440   -7.4010    2.8610 hc        1 PM5      0.123200
     46 H41         5.8990   -5.3430    3.9360 hn        1 PM5      0.474800
     47 H421        6.2100   -6.2610    6.1530 hx        1 PM5      0.122700
     48 H422        4.9780   -5.0460    6.7680 hx        1 PM5      0.122700
     49 H431        7.6350   -4.2540    5.3300 h1        1 PM5      0.107200
     50 H432        6.5000   -3.1540    6.2230 h1        1 PM5      0.107200
     51 H21         9.3590   -5.4390    9.4150 hc        1 PM5      0.089700
     52 H22        10.6130   -6.0510    8.2530 hc        1 PM5      0.089700
     53 H31         8.3200   -7.7190    9.5210 hc        1 PM5      0.054200
     54 H32A        9.4990   -8.3310    8.2920 hc        1 PM5      0.054200
     55 H41A       11.4030   -7.7750    9.8400 hc        1 PM5      0.046700
     56 H42        10.2350   -7.1350   11.0600 hc        1 PM5      0.046700
     57 H51        10.2900  -10.0320    9.9590 hc        1 PM5      0.042200
     58 H52         9.1250   -9.3930   11.1820 hc        1 PM5      0.042200
     59 H61        11.0440   -8.8240   12.7100 hc        1 PM5      0.042200
     60 H62        12.2070   -9.4660   11.4880 hc        1 PM5      0.042200
     61 H71        11.7220  -11.1620   13.2490 hc        1 PM5      0.037033
     62 H72         9.9530  -11.0890   12.8650 hc        1 PM5      0.037033
     63 H73        11.1200  -11.7320   11.6380 hc        1 PM5      0.037033
     64 H362        5.0230   -5.7280    0.4390 hn        1 PM5      0.336500
     65 H412        4.8070   -4.2210    4.4640 hn        1 PM5      0.474800
@<TRIPOS>BOND
     1    1    2 2   
     2    2    3 1   
     3    2    4 1   
     4    2   30 1   
     5    3   41 1   
     6    4    5 1   
     7    5    6 1   
     8    5   31 1   
     9    5   32 1   
    10    6    7 1   
    11    6    8 1   
    12    6    9 1   
    13    7   33 1   
    14    7   34 1   
    15    7   35 1   
    16    8   36 1   
    17    8   37 1   
    18    8   38 1   
    19    9   10 1   
    20    9   11 1   
    21    9   39 1   
    22   10   40 1   
    23   11   12 2   
    24   11   13 1   
    25   13   14 1   
    26   13   64 1   
    27   14   15 1   
    28   14   42 1   
    29   14   43 1   
    30   15   16 1   
    31   15   44 1   
    32   15   45 1   
    33   16   17 2   
    34   16   18 1   
    35   18   19 1   
    36   18   46 1   
    37   18   65 1   
    38   19   20 1   
    39   19   47 1   
    40   19   48 1   
    41   20   21 1   
    42   20   49 1   
    43   20   50 1   
    44   21   22 1   
    45   22   23 2   
    46   22   24 1   
    47   24   25 1   
    48   24   51 1   
    49   24   52 1   
    50   25   26 1   
    51   25   53 1   
    52   25   54 1   
    53   26   27 1   
    54   26   55 1   
    55   26   56 1   
    56   27   28 1   
    57   27   57 1   
    58   27   58 1   
    59   28   29 1   
    60   28   59 1   
    61   28   60 1   
    62   29   61 1   
    63   29   62 1   
    64   29   63 1   
@<TRIPOS>SUBSTRUCTURE
     1 PM5         1 TEMP              0 ****  ****    0 ROOT
