@<TRIPOS>MOLECULE
PM5
   63    62     1     0     0
SMALL
bcc


@<TRIPOS>ATOM
      1 O23         3.8890    6.6780   -3.1690 o         1 PM5     -0.851000
      2 P24         2.6410    7.5140   -3.3670 p5        1 PM5      1.341800
      3 O26         2.6520    8.1180   -4.7560 o         1 PM5     -0.851000
      4 O27         1.3380    6.5810   -3.1960 os        1 PM5     -0.579200
      5 C28         0.5990    6.6460   -1.9530 c3        1 PM5      0.200400
      6 C29        -0.7590    5.8730   -2.1090 c3        1 PM5     -0.110000
      7 C30        -1.8120    6.8100   -2.6830 c3        1 PM5     -0.102600
      8 C31        -0.5720    4.7120   -3.0340 c3        1 PM5     -0.102600
      9 C32        -1.2140    5.3650   -0.7500 c3        1 PM5      0.081100
     10 O33        -1.8140    6.4130   -0.0370 oh        1 PM5     -0.625800
     11 C34        -2.2190    4.2370   -0.9390 c         1 PM5      0.677100
     12 O35        -3.2250    4.4280   -1.5740 o         1 PM5     -0.648100
     13 N36        -1.9890    2.9300   -0.2980 n         1 PM5     -0.561900
     14 C37        -3.1050    1.9640   -0.1670 c3        1 PM5      0.086000
     15 C38        -2.5460    0.5650    0.0800 c3        1 PM5     -0.178400
     16 C39        -3.6330   -0.3100    0.7790 c         1 PM5      0.655100
     17 O40        -4.6590    0.2030    1.1830 o         1 PM5     -0.640100
     18 N41        -3.4270   -1.7140    0.9380 n         1 PM5     -0.553900
     19 C42        -3.7870   -2.3550    2.1680 c3        1 PM5      0.098000
     20 C43        -3.2990   -3.8040    2.1510 c3        1 PM5     -0.049300
     21 S1         -1.5120   -3.8320    2.1910 ss        1 PM5     -0.289700
     22 C1         -0.9320   -5.5370    2.0970 c         1 PM5      0.604700
     23 O1         -1.5430   -6.3480    1.4350 o         1 PM5     -0.540100
     24 C2          0.4150   -5.9280    2.7410 c3        1 PM5     -0.163400
     25 C3          1.4260   -6.2720    1.6420 c3        1 PM5     -0.081400
     26 C4          2.8500   -6.1150    2.1880 c3        1 PM5     -0.074400
     27 C5          3.8760   -6.3840    1.0450 c3        1 PM5     -0.087400
     28 C6          5.2660   -5.8500    1.4610 c3        1 PM5     -0.065400
     29 C7          6.2560   -6.0520    0.3090 c3        1 PM5     -0.119100
     30 H24         2.6100    8.4800   -2.4690 hp        1 PM5     -0.208400
     31 H281        1.1310    6.2350   -1.2320 h1        1 PM5      0.026200
     32 H282        0.4170    7.5820   -1.7300 h1        1 PM5      0.026200
     33 H301       -2.6470    6.3090   -2.8420 hc        1 PM5      0.048533
     34 H302       -1.4900    7.1840   -3.5260 hc        1 PM5      0.048533
     35 H303       -1.9830    7.5360   -2.0490 hc        1 PM5      0.048533
     36 H311       -0.0710    4.0090   -2.5760 hc        1 PM5      0.048533
     37 H312       -0.0760    5.0040   -3.8310 hc        1 PM5      0.048533
     38 H313       -1.4450    4.3670   -3.3020 hc        1 PM5      0.048533
     39 H32        -0.4330    5.0290   -0.2460 h1        1 PM5      0.077700
     40 H33        -1.4120    6.5040    0.7550 ho        1 PM5      0.423000
     41 H36        -1.1480    2.7130    0.0240 hn        1 PM5      0.321500
     42 H371       -3.6710    2.2230    0.5830 h1        1 PM5      0.071700
     43 H372       -3.6340    1.9630   -0.9900 h1        1 PM5      0.071700
     44 H381       -2.2970    0.1550   -0.7770 hc        1 PM5      0.074700
     45 H382       -1.7600    0.6250    0.6520 hc        1 PM5      0.074700
     46 H41        -3.1430   -2.2120    0.2360 hn        1 PM5      0.345500
     47 H421       -4.7660   -2.3400    2.2720 h1        1 PM5      0.066200
     48 H422       -3.3730   -1.8800    2.9160 h1        1 PM5      0.066200
     49 H431       -3.6540   -4.2800    2.9420 h1        1 PM5      0.086700
     50 H432       -3.6190   -4.2500    1.3260 h1        1 PM5      0.086700
     51 H21         0.7550   -5.1720    3.2760 hc        1 PM5      0.068700
     52 H22         0.2860   -6.7040    3.3200 hc        1 PM5      0.068700
     53 H31         1.3000   -5.6670    0.8820 hc        1 PM5      0.065700
     54 H32A        1.2890   -7.1920    1.3510 hc        1 PM5      0.065700
     55 H41A        2.9940   -6.7530    2.9100 hc        1 PM5      0.029700
     56 H42         2.9700   -5.2020    2.5280 hc        1 PM5      0.029700
     57 H51         3.5810   -5.9280    0.2280 hc        1 PM5      0.054700
     58 H52         3.9350   -7.3550    0.8770 hc        1 PM5      0.054700
     59 H61         5.1990   -4.8980    1.6710 hc        1 PM5      0.020200
     60 H62         5.5800   -6.3360    2.2480 hc        1 PM5      0.020200
     61 H71         5.8480   -5.7570   -0.5270 hc        1 PM5      0.050700
     62 H72         6.4910   -7.0070    0.2410 hc        1 PM5      0.050700
     63 H73         7.0750   -5.5220    0.4810 hc        1 PM5      0.050700
@<TRIPOS>BOND
     1    1    2 1   
     2    2    3 1   
     3    2    4 1   
     4    2   30 1   
     5    4    5 1   
     6    5    6 1   
     7    5   31 1   
     8    5   32 1   
     9    6    7 1   
    10    6    8 1   
    11    6    9 1   
    12    7   33 1   
    13    7   34 1   
    14    7   35 1   
    15    8   36 1   
    16    8   37 1   
    17    8   38 1   
    18    9   10 1   
    19    9   11 1   
    20    9   39 1   
    21   10   40 1   
    22   11   12 2   
    23   11   13 1   
    24   13   14 1   
    25   13   41 1   
    26   14   15 1   
    27   14   42 1   
    28   14   43 1   
    29   15   16 1   
    30   15   44 1   
    31   15   45 1   
    32   16   17 2   
    33   16   18 1   
    34   18   19 1   
    35   18   46 1   
    36   19   20 1   
    37   19   47 1   
    38   19   48 1   
    39   20   21 1   
    40   20   49 1   
    41   20   50 1   
    42   21   22 1   
    43   22   23 2   
    44   22   24 1   
    45   24   25 1   
    46   24   51 1   
    47   24   52 1   
    48   25   26 1   
    49   25   53 1   
    50   25   54 1   
    51   26   27 1   
    52   26   55 1   
    53   26   56 1   
    54   27   28 1   
    55   27   57 1   
    56   27   58 1   
    57   28   29 1   
    58   28   59 1   
    59   28   60 1   
    60   29   61 1   
    61   29   62 1   
    62   29   63 1   
@<TRIPOS>SUBSTRUCTURE
     1 PM5         1 TEMP              0 ****  ****    0 ROOT
