@<TRIPOS>MOLECULE
PM6
   14    15     1     0     0
SMALL
bcc


@<TRIPOS>ATOM
      1 N9          2.5500    0.3130   -0.1570 na        1 PM6     -0.378000
      2 C4          1.3900   -0.4540   -0.0140 ca        1 PM6      0.432800
      3 N3          1.2080   -1.8070    0.0140 nb        1 PM6     -0.697000
      4 C2         -0.0900   -2.1570    0.1710 ca        1 PM6      0.662900
      5 N1         -1.1880   -1.3550    0.2990 nb        1 PM6     -0.745000
      6 C6         -1.0110   -0.0150    0.2710 ca        1 PM6      0.589600
      7 C5          0.2940    0.5170    0.1120 ca        1 PM6     -0.159200
      8 N7          0.8120    1.8190    0.0440 nc        1 PM6     -0.525100
      9 C8          2.1360    1.6620   -0.1140 cd        1 PM6      0.415700
     10 S6         -2.3010    1.0690    0.4210 sh        1 PM6     -0.251100
     11 HN9         3.4670   -0.0310   -0.2650 hn        1 PM6      0.321700
     12 H2         -0.2930   -3.2490    0.2000 h5        1 PM6      0.057100
     13 H8          2.8600    2.4810   -0.2040 h5        1 PM6      0.076800
     14 HS6        -3.3190    0.2300    0.5470 hs        1 PM6      0.198800
@<TRIPOS>BOND
     1    1    2 1   
     2    1    9 1   
     3    1   11 1   
     4    2    3 ar  
     5    2    7 ar  
     6    3    4 ar  
     7    4    5 ar  
     8    4   12 1   
     9    5    6 ar  
    10    6    7 ar  
    11    6   10 1   
    12    7    8 1   
    13    8    9 2   
    14    9   13 1   
    15   10   14 1   
@<TRIPOS>SUBSTRUCTURE
     1 PM6         1 TEMP              0 ****  ****    0 ROOT
