@<TRIPOS>MOLECULE
PM6
   14    15     1     0     0
SMALL
bcc


@<TRIPOS>ATOM
      1 N9         -0.0160    0.0830    0.0430 na        1 PM6     -0.378000
      2 C4          1.3810    0.0120    0.0090 ca        1 PM6      0.432800
      3 N3          2.3040    0.0300    1.0150 nb        1 PM6     -0.697000
      4 C2          3.5750   -0.0620    0.5600 ca        1 PM6      0.662900
      5 N1          4.0230   -0.1670   -0.7250 nb        1 PM6     -0.745000
      6 C6          3.1110   -0.1860   -1.7240 ca        1 PM6      0.589600
      7 C5          1.7300   -0.0970   -1.4140 ca        1 PM6     -0.159200
      8 N7          0.5600   -0.0890   -2.1870 nc        1 PM6     -0.525100
      9 C8         -0.4440    0.0180   -1.3010 cd        1 PM6      0.415700
     10 S6          3.5580   -0.3120   -3.3500 sh        1 PM6     -0.251100
     11 HN9        -0.5760    0.1630    0.8490 hn        1 PM6      0.321700
     12 H2          4.3660   -0.0510    1.3400 h5        1 PM6      0.057100
     13 H8         -1.5100    0.0540   -1.5590 h5        1 PM6      0.076800
     14 HS6         4.8770   -0.3710   -3.2440 hs        1 PM6      0.198800
@<TRIPOS>BOND
     1    1    2 1   
     2    1    9 1   
     3    1   11 1   
     4    2    3 ar  
     5    2    7 ar  
     6    3    4 ar  
     7    4    5 ar  
     8    4   12 1   
     9    5    6 ar  
    10    6    7 ar  
    11    6   10 1   
    12    7    8 1   
    13    8    9 2   
    14    9   13 1   
    15   10   14 1   
@<TRIPOS>SUBSTRUCTURE
     1 PM6         1 TEMP              0 ****  ****    0 ROOT
