@<TRIPOS>MOLECULE
PM6
   14     9     1     0     0
SMALL
bcc


@<TRIPOS>ATOM
      1 N9         -1.9320    0.0230    0.7970 ne        1 PM6     -0.498400
      2 C4         -0.5720    0.0230    0.7970 cg        1 PM6      0.093000
      3 N3          0.3410    0.0230    1.8090 n1        1 PM6     -0.496800
      4 C2          1.6750    0.0230    1.5240 c1        1 PM6      0.383300
      5 N1          2.0970    0.0230    0.2260 n1        1 PM6     -0.544800
      6 C6          1.2000    0.0230   -0.7730 c1        1 PM6      0.484900
      7 C5         -0.1560    0.0230   -0.4860 c1        1 PM6     -0.168000
      8 N7         -1.2570    0.0230   -1.2840 n1        1 PM6     -0.098000
      9 C8         -2.3500    0.0230   -0.4880 c1        1 PM6      0.180400
     10 S6          1.9450    0.3570   -2.3470 sh        1 PM6     -0.148900
     11 HN9        -2.4680    0.0230    1.5350 DU        1 PM6      0.239000
     12 H2          2.3290    0.0230    2.2490 ha        1 PM6      0.136500
     13 H8         -3.2790    0.0230   -0.7890 DU        1 PM6      0.239000
     14 HS6         2.4270   -0.6300   -2.7710 hs        1 PM6      0.198800
@<TRIPOS>BOND
     1    1    2 1   
     2    1    9 2   
     3    2    7 3   
     4    3    4 3   
     5    4   12 1   
     6    5    6 3   
     7    6   10 1   
     8    8    9 2   
     9   10   14 1   
@<TRIPOS>SUBSTRUCTURE
     1 PM6         1 TEMP              0 ****  ****    0 ROOT
