@<TRIPOS>MOLECULE
PM8
   74    73     1     0     0
SMALL
bcc


@<TRIPOS>ATOM
      1 O23         4.0280    1.4740   -0.6870 o         1 PM8     -0.782300
      2 P24         4.7060    0.3500   -0.0780 p5        1 PM8      1.513500
      3 O26         3.6510   -0.5460    0.7340 oh        1 PM8     -0.796400
      4 O27         5.2880   -0.7400   -1.1090 os        1 PM8     -0.563200
      5 C28         5.7720   -1.9570   -0.5980 c3        1 PM8      0.187400
      6 C29         5.2240   -3.1340   -1.4230 c3        1 PM8     -0.048000
      7 C30         3.7110   -3.0770   -1.5220 c3        1 PM8     -0.100600
      8 C31         5.8120   -3.0710   -2.8290 c3        1 PM8     -0.100600
      9 C32         5.6940   -4.4530   -0.7690 c3        1 PM8      0.091100
     10 O33         7.1090   -4.4200   -0.7600 oh        1 PM8     -0.565800
     11 C34         5.2100   -4.6540    0.6780 c         1 PM8      0.650100
     12 O35         6.0500   -4.6450    1.6150 o         1 PM8     -0.728100
     13 N36         3.8950   -4.9530    0.9220 n         1 PM8     -0.551900
     14 C37         3.2930   -4.9980    2.2270 c3        1 PM8      0.094000
     15 C38         4.1050   -5.7140    3.3160 c3        1 PM8     -0.153400
     16 C39         5.0270   -4.7460    4.0030 c         1 PM8      0.578100
     17 O40         4.7550   -3.6220    4.3970 o         1 PM8     -0.423100
     18 N41         6.4470   -5.2100    4.2450 n4        1 PM8     -0.666800
     19 C42         6.9140   -4.9360    5.6360 c3        1 PM8      0.105800
     20 C43         8.3690   -5.3100    5.8510 c3        1 PM8     -0.077300
     21 S1          8.7810   -5.2140    7.5580 ss        1 PM8     -0.181700
     22 C1          7.9570   -6.5710    8.2650 c         1 PM8      0.584700
     23 O1          7.1790   -7.3090    7.6540 o         1 PM8     -0.545100
     24 C2          8.3040   -6.6870    9.7130 c3        1 PM8     -0.169400
     25 C3          8.8980   -8.0480   10.0270 c3        1 PM8     -0.072400
     26 C4          9.1500   -8.1880   11.5130 c3        1 PM8     -0.079400
     27 C5          9.7550   -9.5380   11.8350 c3        1 PM8     -0.078400
     28 C6         10.0050   -9.6840   13.3210 c3        1 PM8     -0.079400
     29 C7         10.6120  -11.0330   13.6440 c3        1 PM8     -0.079400
     30 C8         10.8630  -11.1780   15.1300 c3        1 PM8     -0.079400
     31 C9         11.4710  -12.5260   15.4550 c3        1 PM8     -0.079400
     32 C10        11.7250  -12.6750   16.9330 c3        1 PM8     -0.094100
     33 H24         5.6570    0.5070    0.7630 hp        1 PM8     -0.125400
     34 H281        6.8970   -1.9600   -0.6870 h1        1 PM8      0.049200
     35 H282        5.4680   -2.0670    0.4790 h1        1 PM8      0.049200
     36 H301        3.2460   -2.7940   -0.5460 hc        1 PM8      0.054700
     37 H302        3.4240   -2.2930   -2.2680 hc        1 PM8      0.054700
     38 H303        3.2970   -4.0530   -1.8730 hc        1 PM8      0.054700
     39 H311        6.9160   -3.2330   -2.7980 hc        1 PM8      0.054700
     40 H312        5.3490   -3.8530   -3.4770 hc        1 PM8      0.054700
     41 H313        5.6080   -2.0630   -3.2680 hc        1 PM8      0.054700
     42 H32         5.3350   -5.3230   -1.3910 h1        1 PM8      0.072700
     43 H33         7.4190   -5.2080   -0.2940 ho        1 PM8      0.415000
     44 H36         3.2550   -4.9130    0.1580 hn        1 PM8      0.344500
     45 H371        3.0620   -3.9490    2.5820 h1        1 PM8      0.084200
     46 H372        2.3140   -5.5540    2.1230 h1        1 PM8      0.084200
     47 H381        4.6510   -6.5950    2.8870 hc        1 PM8      0.108200
     48 H382        3.3880   -6.0930    4.0990 hc        1 PM8      0.108200
     49 H41         6.5230   -6.2100    4.0420 hn        1 PM8      0.469300
     50 H421        6.7530   -3.8370    5.8430 hx        1 PM8      0.122700
     51 H422        6.2600   -5.5400    6.3340 hx        1 PM8      0.122700
     52 H431        8.5760   -6.3440    5.4730 h1        1 PM8      0.105200
     53 H432        9.0560   -4.5980    5.3250 h1        1 PM8      0.105200
     54 H21         7.3630   -6.5390   10.3120 hc        1 PM8      0.087200
     55 H22         9.0270   -5.8770   10.0070 hc        1 PM8      0.087200
     56 H31         9.8610   -8.1800    9.4670 hc        1 PM8      0.056700
     57 H32A        8.1930   -8.8500    9.6810 hc        1 PM8      0.056700
     58 H41A        8.1850   -8.0660   12.0730 hc        1 PM8      0.046200
     59 H42         9.8400   -7.3740   11.8590 hc        1 PM8      0.046200
     60 H51         9.0660  -10.3530   11.4880 hc        1 PM8      0.043200
     61 H52        10.7210   -9.6610   11.2770 hc        1 PM8      0.043200
     62 H61        10.6940   -8.8690   13.6680 hc        1 PM8      0.042700
     63 H62         9.0400   -9.5620   13.8790 hc        1 PM8      0.042700
     64 H71         9.9230  -11.8480   13.2980 hc        1 PM8      0.040700
     65 H72        11.5770  -11.1550   13.0850 hc        1 PM8      0.040700
     66 H81        11.5510  -10.3630   15.4770 hc        1 PM8      0.040700
     67 H82         9.8980  -11.0570   15.6890 hc        1 PM8      0.040700
     68 H91        12.4350  -12.6470   14.8930 hc        1 PM8      0.038700
     69 H92        10.7820  -13.3410   15.1070 hc        1 PM8      0.038700
     70 H101       12.1730  -13.6740   17.1510 hc        1 PM8      0.034700
     71 H102       10.7720  -12.5820   17.5090 hc        1 PM8      0.034700
     72 H103       12.4300  -11.8870   17.2940 hc        1 PM8      0.034700
     73 H362        2.7330   -0.2990    0.6350 ho        1 PM8      0.485000
     74 H412        7.0460   -4.7070    3.5680 hn        1 PM8      0.469300
@<TRIPOS>BOND
     1    1    2 2   
     2    2    3 1   
     3    2    4 1   
     4    2   33 1   
     5    3   73 1   
     6    4    5 1   
     7    5    6 1   
     8    5   34 1   
     9    5   35 1   
    10    6    7 1   
    11    6    8 1   
    12    6    9 1   
    13    7   36 1   
    14    7   37 1   
    15    7   38 1   
    16    8   39 1   
    17    8   40 1   
    18    8   41 1   
    19    9   10 1   
    20    9   11 1   
    21    9   42 1   
    22   10   43 1   
    23   11   12 2   
    24   11   13 1   
    25   13   14 1   
    26   13   44 1   
    27   14   15 1   
    28   14   45 1   
    29   14   46 1   
    30   15   16 1   
    31   15   47 1   
    32   15   48 1   
    33   16   17 2   
    34   16   18 1   
    35   18   19 1   
    36   18   49 1   
    37   18   74 1   
    38   19   20 1   
    39   19   50 1   
    40   19   51 1   
    41   20   21 1   
    42   20   52 1   
    43   20   53 1   
    44   21   22 1   
    45   22   23 2   
    46   22   24 1   
    47   24   25 1   
    48   24   54 1   
    49   24   55 1   
    50   25   26 1   
    51   25   56 1   
    52   25   57 1   
    53   26   27 1   
    54   26   58 1   
    55   26   59 1   
    56   27   28 1   
    57   27   60 1   
    58   27   61 1   
    59   28   29 1   
    60   28   62 1   
    61   28   63 1   
    62   29   30 1   
    63   29   64 1   
    64   29   65 1   
    65   30   31 1   
    66   30   66 1   
    67   30   67 1   
    68   31   32 1   
    69   31   68 1   
    70   31   69 1   
    71   32   70 1   
    72   32   71 1   
    73   32   72 1   
@<TRIPOS>SUBSTRUCTURE
     1 PM8         1 TEMP              0 ****  ****    0 ROOT
