@<TRIPOS>MOLECULE
PM8
   74    73     1     0     0
SMALL
bcc


@<TRIPOS>ATOM
      1 O23         4.2640   -3.3520    3.6160 o         1 PM8     -0.889300
      2 P24         3.4140   -3.8680    2.5400 p5        1 PM8      1.571500
      3 O26         2.0510   -3.0750    2.4140 oh        1 PM8     -0.776400
      4 O27         4.1910   -3.5370    1.1840 os        1 PM8     -0.599200
      5 C28         3.9090   -4.2400   -0.0040 c3        1 PM8      0.179400
      6 C29         5.1120   -5.0640   -0.4850 c3        1 PM8     -0.064000
      7 C30         5.4300   -6.2230    0.4440 c3        1 PM8     -0.106100
      8 C31         4.7310   -5.6370   -1.8510 c3        1 PM8     -0.106100
      9 C32         6.3660   -4.1810   -0.6700 c3        1 PM8      0.101100
     10 O33         6.0890   -3.2640   -1.7160 oh        1 PM8     -0.593800
     11 C34         6.8050   -3.4380    0.6060 c         1 PM8      0.674100
     12 O35         7.2370   -4.0730    1.5990 o         1 PM8     -0.686100
     13 N36         6.8100   -2.0620    0.6120 n         1 PM8     -0.556900
     14 C37         7.4630   -1.2820    1.6170 c3        1 PM8      0.099000
     15 C38         6.5970   -0.8590    2.8170 c3        1 PM8     -0.188400
     16 C39         7.1300   -1.4230    4.1050 c         1 PM8      0.555100
     17 O40         7.7260   -0.8040    4.9760 o         1 PM8     -0.432100
     18 N41         6.8850   -2.8820    4.3280 n4        1 PM8     -0.681800
     19 C42         7.8850   -3.5180    5.2330 c3        1 PM8      0.124800
     20 C43         7.6680   -5.0140    5.3680 c3        1 PM8     -0.073300
     21 S1          8.8680   -5.6840    6.4660 ss        1 PM8     -0.224700
     22 C1          8.0270   -5.8280    7.9840 c         1 PM8      0.590700
     23 O1          6.8580   -5.4930    8.1760 o         1 PM8     -0.517100
     24 C2          8.9440   -6.4120    9.0100 c3        1 PM8     -0.168400
     25 C3          8.3390   -7.6490    9.6470 c3        1 PM8     -0.073400
     26 C4          9.2270   -8.1650   10.7590 c3        1 PM8     -0.079400
     27 C5          8.6370   -9.4090   11.3900 c3        1 PM8     -0.078400
     28 C6          9.5210   -9.9260   12.5050 c3        1 PM8     -0.079400
     29 C7          8.9330  -11.1700   13.1360 c3        1 PM8     -0.079400
     30 C8          9.8150  -11.6880   14.2520 c3        1 PM8     -0.079400
     31 C9          9.2290  -12.9330   14.8840 c3        1 PM8     -0.079400
     32 C10        10.1050  -13.4520   15.9950 c3        1 PM8     -0.093100
     33 H24         3.0870   -5.0940    2.5020 hp        1 PM8     -0.105400
     34 H281        3.0230   -4.9120    0.1610 h1        1 PM8      0.064700
     35 H282        3.6690   -3.4670   -0.7910 h1        1 PM8      0.064700
     36 H301        6.1260   -6.9370   -0.0620 hc        1 PM8      0.055200
     37 H302        5.9270   -5.8770    1.3820 hc        1 PM8      0.055200
     38 H303        4.4950   -6.7780    0.7010 hc        1 PM8      0.055200
     39 H311        3.8490   -6.3130   -1.7460 hc        1 PM8      0.055200
     40 H312        4.4800   -4.8160   -2.5640 hc        1 PM8      0.055200
     41 H313        5.5830   -6.2240   -2.2700 hc        1 PM8      0.055200
     42 H32         7.2300   -4.8560   -0.9380 h1        1 PM8      0.085700
     43 H33         6.9000   -3.1570   -2.2300 ho        1 PM8      0.423000
     44 H36         1.9690   -2.2210    2.8330 ho        1 PM8      0.501000
     45 H371        8.3630   -1.8560    1.9860 h1        1 PM8      0.077200
     46 H372        7.8380   -0.3360    1.1240 h1        1 PM8      0.077200
     47 H381        5.5230   -1.1650    2.6920 hc        1 PM8      0.114700
     48 H382        6.6230    0.2620    2.9150 hc        1 PM8      0.114700
     49 H41         5.9310   -2.9920    4.7270 hn        1 PM8      0.499300
     50 H421        8.9110   -3.3110    4.8130 hx        1 PM8      0.109200
     51 H422        7.8060   -3.0150    6.2400 hx        1 PM8      0.109200
     52 H431        7.8000   -5.5270    4.3800 h1        1 PM8      0.108200
     53 H432        6.6370   -5.2370    5.7490 h1        1 PM8      0.108200
     54 H21         9.9370   -6.6660    8.5470 hc        1 PM8      0.084700
     55 H22         9.1250   -5.6300    9.7990 hc        1 PM8      0.084700
     56 H31         8.2040   -8.4470    8.8700 hc        1 PM8      0.056700
     57 H32A        7.3230   -7.3980   10.0530 hc        1 PM8      0.056700
     58 H41A        9.3540   -7.3700   11.5410 hc        1 PM8      0.044700
     59 H42        10.2470   -8.3970   10.3520 hc        1 PM8      0.044700
     60 H51         8.5120  -10.2040   10.6090 hc        1 PM8      0.042700
     61 H52         7.6170   -9.1780   11.7950 hc        1 PM8      0.042700
     62 H61        10.5420  -10.1560   12.1010 hc        1 PM8      0.041700
     63 H62         9.6450   -9.1310   13.2870 hc        1 PM8      0.041700
     64 H71         7.9120  -10.9410   13.5410 hc        1 PM8      0.040200
     65 H72         8.8080  -11.9660   12.3550 hc        1 PM8      0.040200
     66 H81         9.9400  -10.8930   15.0330 hc        1 PM8      0.040700
     67 H82        10.8370  -11.9180   13.8480 hc        1 PM8      0.040700
     68 H91         8.2070  -12.7010   15.2860 hc        1 PM8      0.038700
     69 H92         9.1040  -13.7260   14.1010 hc        1 PM8      0.038700
     70 H101       11.1200  -13.7120   15.6090 hc        1 PM8      0.034700
     71 H102       10.2210  -12.6840   16.7980 hc        1 PM8      0.034700
     72 H103        9.6540  -14.3690   16.4480 hc        1 PM8      0.034700
     73 H362        6.3040   -1.5860   -0.1020 hn        1 PM8      0.345500
     74 H412        6.8760   -3.3660    3.4110 hn        1 PM8      0.499300
@<TRIPOS>BOND
     1    1    2 2   
     2    2    3 1   
     3    2    4 1   
     4    2   33 1   
     5    3   44 1   
     6    4    5 1   
     7    5    6 1   
     8    5   34 1   
     9    5   35 1   
    10    6    7 1   
    11    6    8 1   
    12    6    9 1   
    13    7   36 1   
    14    7   37 1   
    15    7   38 1   
    16    8   39 1   
    17    8   40 1   
    18    8   41 1   
    19    9   10 1   
    20    9   11 1   
    21    9   42 1   
    22   10   43 1   
    23   11   12 2   
    24   11   13 1   
    25   13   14 1   
    26   13   73 1   
    27   14   15 1   
    28   14   45 1   
    29   14   46 1   
    30   15   16 1   
    31   15   47 1   
    32   15   48 1   
    33   16   17 2   
    34   16   18 1   
    35   18   19 1   
    36   18   49 1   
    37   18   74 1   
    38   19   20 1   
    39   19   50 1   
    40   19   51 1   
    41   20   21 1   
    42   20   52 1   
    43   20   53 1   
    44   21   22 1   
    45   22   23 2   
    46   22   24 1   
    47   24   25 1   
    48   24   54 1   
    49   24   55 1   
    50   25   26 1   
    51   25   56 1   
    52   25   57 1   
    53   26   27 1   
    54   26   58 1   
    55   26   59 1   
    56   27   28 1   
    57   27   60 1   
    58   27   61 1   
    59   28   29 1   
    60   28   62 1   
    61   28   63 1   
    62   29   30 1   
    63   29   64 1   
    64   29   65 1   
    65   30   31 1   
    66   30   66 1   
    67   30   67 1   
    68   31   32 1   
    69   31   68 1   
    70   31   69 1   
    71   32   70 1   
    72   32   71 1   
    73   32   72 1   
@<TRIPOS>SUBSTRUCTURE
     1 PM8         1 TEMP              0 ****  ****    0 ROOT
