@<TRIPOS>MOLECULE
PM8
   72    71     1     0     0
SMALL
bcc


@<TRIPOS>ATOM
      1 O23         4.3640    3.0910   -2.6160 o         1 PM8     -0.857500
      2 P24         4.5860    2.2070   -1.4610 p5        1 PM8      1.361800
      3 O26         4.0570    0.8170   -1.3800 o         1 PM8     -0.857500
      4 O27         6.2290    2.0500   -1.2470 os        1 PM8     -0.574200
      5 C28         6.6600    0.9820   -0.4710 c3        1 PM8      0.198400
      6 C29         7.4110   -0.0860   -1.3000 c3        1 PM8     -0.093000
      7 C30         6.7720   -0.2810   -2.6690 c3        1 PM8     -0.087600
      8 C31         8.8470    0.3850   -1.5010 c3        1 PM8     -0.087600
      9 C32         7.4350   -1.4270   -0.5390 c3        1 PM8      0.083100
     10 O33         8.4250   -1.4320    0.4770 oh        1 PM8     -0.598800
     11 C34         6.0980   -1.8620    0.0880 c         1 PM8      0.614100
     12 O35         6.0980   -2.1820    1.2980 o         1 PM8     -0.642100
     13 N36         4.9900   -2.0150   -0.7300 n         1 PM8     -0.519900
     14 C37         3.7480   -2.4900   -0.1690 c3        1 PM8      0.092000
     15 C38         2.8230   -1.3880    0.3470 c3        1 PM8     -0.208400
     16 C39         1.4410   -1.9280    0.6210 c         1 PM8      0.665100
     17 O40         1.1270   -3.1280    0.4800 o         1 PM8     -0.631100
     18 N41         0.5040   -1.0090    1.0890 n         1 PM8     -0.572900
     19 C42        -0.8820   -1.3400    1.2320 c3        1 PM8      0.097000
     20 C43        -1.7670   -0.8880    0.0720 c3        1 PM8     -0.058300
     21 S1         -3.4140   -1.4970    0.2830 ss        1 PM8     -0.245700
     22 C1         -4.3540   -0.1490    0.7810 c         1 PM8      0.567700
     23 O1         -3.9660    1.0120    0.9480 o         1 PM8     -0.530100
     24 C2         -5.7770   -0.5780    1.0060 c3        1 PM8     -0.170400
     25 C3         -6.7410    0.2870    0.2210 c3        1 PM8     -0.074400
     26 C4         -8.1750   -0.0720    0.5450 c3        1 PM8     -0.078400
     27 C5         -9.1420    0.7800   -0.2500 c3        1 PM8     -0.079400
     28 C6        -10.5780    0.4270    0.0750 c3        1 PM8     -0.078400
     29 C7        -11.5450    1.2780   -0.7200 c3        1 PM8     -0.079400
     30 C8        -12.9810    0.9270   -0.3960 c3        1 PM8     -0.079400
     31 C9        -13.9500    1.7770   -1.1900 c3        1 PM8     -0.080400
     32 C10       -15.3810    1.4310   -0.8710 c3        1 PM8     -0.092100
     33 H24         4.2970    2.8200   -0.3270 hp        1 PM8     -0.232400
     34 H281        7.3750    1.3810    0.3060 h1        1 PM8      0.020200
     35 H282        5.7830    0.5120    0.0570 h1        1 PM8      0.020200
     36 H301        7.3080    0.3300   -3.4360 hc        1 PM8      0.040367
     37 H302        6.8010   -1.3490   -2.9890 hc        1 PM8      0.040367
     38 H303        5.7070    0.0760   -2.6520 hc        1 PM8      0.040367
     39 H311        9.3820    0.4490   -0.5230 hc        1 PM8      0.040367
     40 H312        9.3990   -0.3280   -2.1590 hc        1 PM8      0.040367
     41 H313        8.8380    1.3960   -1.9750 hc        1 PM8      0.040367
     42 H32         7.7710   -2.2430   -1.2440 h1        1 PM8      0.080700
     43 H33         8.0430   -1.0140    1.2610 ho        1 PM8      0.415000
     44 H36         4.8710   -1.3060   -1.4360 hn        1 PM8      0.352500
     45 H371        3.2150   -3.0550   -0.9870 h1        1 PM8      0.060700
     46 H372        3.9670   -3.2100    0.6700 h1        1 PM8      0.060700
     47 H381        3.2480   -0.9480    1.2870 hc        1 PM8      0.113200
     48 H382        2.7640   -0.5540   -0.4160 hc        1 PM8      0.113200
     49 H41         0.7310   -0.0450    1.0190 hn        1 PM8      0.311500
     50 H421       -0.9740   -2.4590    1.3470 h1        1 PM8      0.064700
     51 H422       -1.2600   -0.8530    2.1780 h1        1 PM8      0.064700
     52 H431       -1.7770    0.2270   -0.0110 h1        1 PM8      0.093700
     53 H432       -1.3960   -1.3130   -0.8940 h1        1 PM8      0.093700
     54 H21        -5.9060   -1.6560    0.7200 hc        1 PM8      0.071200
     55 H22        -5.9940   -0.4880    2.1060 hc        1 PM8      0.071200
     56 H31        -6.5510    1.3660    0.4630 hc        1 PM8      0.055200
     57 H32A       -6.5570    0.1540   -0.8770 hc        1 PM8      0.055200
     58 H41A       -8.3540   -1.1560    0.3180 hc        1 PM8      0.039200
     59 H42        -8.3610    0.0720    1.6420 hc        1 PM8      0.039200
     60 H51        -8.9600    1.8640   -0.0250 hc        1 PM8      0.042200
     61 H52        -8.9580    0.6340   -1.3470 hc        1 PM8      0.042200
     62 H61       -10.7590   -0.6570   -0.1490 hc        1 PM8      0.038700
     63 H62       -10.7630    0.5740    1.1720 hc        1 PM8      0.038700
     64 H71       -11.3640    2.3620   -0.4960 hc        1 PM8      0.040700
     65 H72       -11.3610    1.1320   -1.8170 hc        1 PM8      0.040700
     66 H81       -13.1630   -0.1580   -0.6190 hc        1 PM8      0.038700
     67 H82       -13.1660    1.0730    0.7010 hc        1 PM8      0.038700
     68 H91       -13.7650    2.8610   -0.9670 hc        1 PM8      0.038700
     69 H92       -13.7620    1.6300   -2.2870 hc        1 PM8      0.038700
     70 H101      -15.5940    1.5940    0.2130 hc        1 PM8      0.031367
     71 H102      -16.0780    2.0680   -1.4670 hc        1 PM8      0.031367
     72 H103      -15.5910    0.3600   -1.1100 hc        1 PM8      0.031367
@<TRIPOS>BOND
     1    1    2 1   
     2    2    3 1   
     3    2    4 1   
     4    2   33 1   
     5    4    5 1   
     6    5    6 1   
     7    5   34 1   
     8    5   35 1   
     9    6    7 1   
    10    6    8 1   
    11    6    9 1   
    12    7   36 1   
    13    7   37 1   
    14    7   38 1   
    15    8   39 1   
    16    8   40 1   
    17    8   41 1   
    18    9   10 1   
    19    9   11 1   
    20    9   42 1   
    21   10   43 1   
    22   11   12 2   
    23   11   13 1   
    24   13   14 1   
    25   13   44 1   
    26   14   15 1   
    27   14   45 1   
    28   14   46 1   
    29   15   16 1   
    30   15   47 1   
    31   15   48 1   
    32   16   17 2   
    33   16   18 1   
    34   18   19 1   
    35   18   49 1   
    36   19   20 1   
    37   19   50 1   
    38   19   51 1   
    39   20   21 1   
    40   20   52 1   
    41   20   53 1   
    42   21   22 1   
    43   22   23 2   
    44   22   24 1   
    45   24   25 1   
    46   24   54 1   
    47   24   55 1   
    48   25   26 1   
    49   25   56 1   
    50   25   57 1   
    51   26   27 1   
    52   26   58 1   
    53   26   59 1   
    54   27   28 1   
    55   27   60 1   
    56   27   61 1   
    57   28   29 1   
    58   28   62 1   
    59   28   63 1   
    60   29   30 1   
    61   29   64 1   
    62   29   65 1   
    63   30   31 1   
    64   30   66 1   
    65   30   67 1   
    66   31   32 1   
    67   31   68 1   
    68   31   69 1   
    69   32   70 1   
    70   32   71 1   
    71   32   72 1   
@<TRIPOS>SUBSTRUCTURE
     1 PM8         1 TEMP              0 ****  ****    0 ROOT
