@<TRIPOS>MOLECULE
PM8
   74    73     1     0     0
SMALL
bcc


@<TRIPOS>ATOM
      1 O23         5.8540    1.2990   -0.5360 o         1 PM8     -0.781300
      2 P24         6.1990    0.1230    0.2340 p5        1 PM8      1.512500
      3 O26         4.8640   -0.5040    0.8720 oh        1 PM8     -0.798400
      4 O27         6.7370   -1.1250   -0.6260 os        1 PM8     -0.564200
      5 C28         6.8660   -2.3720    0.0110 c3        1 PM8      0.186400
      6 C29         6.3200   -3.4870   -0.8970 c3        1 PM8     -0.047000
      7 C30         4.9480   -3.1320   -1.4380 c3        1 PM8     -0.099600
      8 C31         7.2760   -3.6860   -2.0690 c3        1 PM8     -0.099600
      9 C32         6.2820   -4.8020   -0.0860 c3        1 PM8      0.093100
     10 O33         7.5940   -5.0150    0.4010 oh        1 PM8     -0.563800
     11 C34         5.3210   -4.7660    1.1130 c         1 PM8      0.644100
     12 O35         5.7740   -4.7430    2.2850 o         1 PM8     -0.708100
     13 N36         3.9640   -4.8520    0.9080 ns        1 PM8     -0.557900
     14 C37         3.0100   -4.6520    1.9610 c3        1 PM8      0.098000
     15 C38         2.8580   -5.8390    2.9310 c3        1 PM8     -0.180400
     16 C39         3.1510   -5.4430    4.3520 c         1 PM8      0.545100
     17 O40         2.3430   -5.3260    5.2600 o         1 PM8     -0.404100
     18 N41         4.5970   -5.1670    4.6710 ny        1 PM8     -0.671800
     19 C42         4.8890   -5.0950    6.1330 c3        1 PM8      0.109800
     20 C43         6.3470   -4.7880    6.4210 c3        1 PM8     -0.074300
     21 S1          6.6740   -4.9550    8.1420 ss        1 PM8     -0.189700
     22 C1          6.6440   -6.6730    8.4070 c         1 PM8      0.586700
     23 O1          6.3390   -7.5050    7.5490 o         1 PM8     -0.540100
     24 C2          7.0110   -6.9810    9.8230 c3        1 PM8     -0.169400
     25 C3          8.2060   -7.9130    9.8890 c3        1 PM8     -0.072400
     26 C4          8.5020   -8.2990   11.3230 c3        1 PM8     -0.079400
     27 C5          9.7030   -9.2170   11.3990 c3        1 PM8     -0.078400
     28 C6         10.0000   -9.6080   12.8320 c3        1 PM8     -0.079400
     29 C7         11.2020  -10.5250   12.9110 c3        1 PM8     -0.079400
     30 C8         11.4990  -10.9170   14.3420 c3        1 PM8     -0.079400
     31 C9         12.7010  -11.8340   14.4230 c3        1 PM8     -0.079400
     32 C10        13.0010  -12.2270   15.8470 c3        1 PM8     -0.093100
     33 H24         6.9950    0.1730    1.2340 hp        1 PM8     -0.122400
     34 H281        6.3060   -2.3630    0.9870 h1        1 PM8      0.051200
     35 H282        7.9610   -2.5720    0.1970 h1        1 PM8      0.051200
     36 H301        5.0620   -2.3540   -2.2350 hc        1 PM8      0.054367
     37 H302        4.4560   -4.0250   -1.8930 hc        1 PM8      0.054367
     38 H303        4.2940   -2.7010   -0.6420 hc        1 PM8      0.054367
     39 H311        6.8470   -4.4090   -2.8020 hc        1 PM8      0.054367
     40 H312        7.4420   -2.7040   -2.5770 hc        1 PM8      0.054367
     41 H313        8.2590   -4.0750   -1.7070 hc        1 PM8      0.054367
     42 H32         5.9810   -5.6500   -0.7660 h1        1 PM8      0.072700
     43 H33         7.5770   -5.7970    0.9690 ho        1 PM8      0.418000
     44 H36         4.0450   -0.1050    0.5830 ho        1 PM8      0.484000
     45 H371        3.2880   -3.7250    2.5430 h1        1 PM8      0.075700
     46 H372        2.0020   -4.4650    1.4880 h1        1 PM8      0.075700
     47 H381        3.5100   -6.7060    2.6380 hc        1 PM8      0.118700
     48 H382        1.7910   -6.2000    2.9080 hc        1 PM8      0.118700
     49 H41         4.8690   -4.2830    4.2070 hn        1 PM8      0.476800
     50 H421        4.2200   -4.3050    6.5840 hx        1 PM8      0.121200
     51 H422        4.6110   -6.0960    6.5800 hx        1 PM8      0.121200
     52 H431        7.0200   -5.4710    5.8420 h1        1 PM8      0.106200
     53 H432        6.6050   -3.7320    6.1540 h1        1 PM8      0.106200
     54 H21         6.1240   -7.4690   10.3160 hc        1 PM8      0.086700
     55 H22         7.2340   -6.0310   10.3830 hc        1 PM8      0.086700
     56 H31         9.1030   -7.4120    9.4400 hc        1 PM8      0.056200
     57 H32A        7.9940   -8.8330    9.2810 hc        1 PM8      0.056200
     58 H41A        7.6090   -8.8100   11.7690 hc        1 PM8      0.046200
     59 H42         8.6950   -7.3750   11.9300 hc        1 PM8      0.046200
     60 H51         9.5120  -10.1390   10.7900 hc        1 PM8      0.043200
     61 H52        10.5980   -8.7060   10.9560 hc        1 PM8      0.043200
     62 H61         9.1060  -10.1200   13.2750 hc        1 PM8      0.042700
     63 H62        10.1900   -8.6860   13.4420 hc        1 PM8      0.042700
     64 H71        11.0120  -11.4480   12.3000 hc        1 PM8      0.040700
     65 H72        12.0960  -10.0140   12.4670 hc        1 PM8      0.040700
     66 H81        11.6890   -9.9950   14.9530 hc        1 PM8      0.040700
     67 H82        10.6050  -11.4290   14.7860 hc        1 PM8      0.040700
     68 H91        12.5100  -12.7550   13.8110 hc        1 PM8      0.038700
     69 H92        13.5940  -11.3210   13.9780 hc        1 PM8      0.038700
     70 H101       12.1320  -12.7620   16.3000 hc        1 PM8      0.034700
     71 H102       13.8890  -12.9020   15.8840 hc        1 PM8      0.034700
     72 H103       13.2180  -11.3240   16.4680 hc        1 PM8      0.034700
     73 H362        3.6180   -4.8500   -0.0260 hn        1 PM8      0.344500
     74 H412        5.1800   -5.8960    4.2340 hn        1 PM8      0.476800
@<TRIPOS>BOND
     1    1    2 2   
     2    2    3 1   
     3    2    4 1   
     4    2   33 1   
     5    3   44 1   
     6    4    5 1   
     7    5    6 1   
     8    5   34 1   
     9    5   35 1   
    10    6    7 1   
    11    6    8 1   
    12    6    9 1   
    13    7   36 1   
    14    7   37 1   
    15    7   38 1   
    16    8   39 1   
    17    8   40 1   
    18    8   41 1   
    19    9   10 1   
    20    9   11 1   
    21    9   42 1   
    22   10   43 1   
    23   11   12 2   
    24   11   13 1   
    25   13   14 1   
    26   13   73 1   
    27   14   15 1   
    28   14   45 1   
    29   14   46 1   
    30   15   16 1   
    31   15   47 1   
    32   15   48 1   
    33   16   17 2   
    34   16   18 1   
    35   18   19 1   
    36   18   49 1   
    37   18   74 1   
    38   19   20 1   
    39   19   50 1   
    40   19   51 1   
    41   20   21 1   
    42   20   52 1   
    43   20   53 1   
    44   21   22 1   
    45   22   23 2   
    46   22   24 1   
    47   24   25 1   
    48   24   54 1   
    49   24   55 1   
    50   25   26 1   
    51   25   56 1   
    52   25   57 1   
    53   26   27 1   
    54   26   58 1   
    55   26   59 1   
    56   27   28 1   
    57   27   60 1   
    58   27   61 1   
    59   28   29 1   
    60   28   62 1   
    61   28   63 1   
    62   29   30 1   
    63   29   64 1   
    64   29   65 1   
    65   30   31 1   
    66   30   66 1   
    67   30   67 1   
    68   31   32 1   
    69   31   68 1   
    70   31   69 1   
    71   32   70 1   
    72   32   71 1   
    73   32   72 1   
@<TRIPOS>SUBSTRUCTURE
     1 PM8         1 TEMP              0 ****  ****    0 ROOT
