@<TRIPOS>MOLECULE
PM9
   40    36     1     0     0
SMALL
bcc


@<TRIPOS>ATOM
      1 N        -217.4990   11.9190  -57.7190 n3        1 PM9      0.061000
      2 C        -217.6190   14.0410  -58.9770 c2        1 PM9      0.392000
      3 O2       -217.3840   15.2760  -59.1070 o         1 PM9     -0.619500
      4 CB       -216.7920   13.9520  -56.6040 c1        1 PM9      0.049000
      5 CG       -216.3760   14.5590  -55.6070 c1        1 PM9     -0.706000
      6 SD       -215.8930   15.3230  -54.3730 ss        1 PM9      0.396000
      7 CE       -214.1260   15.3940  -54.4030 c3        1 PM9     -0.449000
      8 O1       -218.1560   13.3660  -59.9230 o         1 PM9     -0.619500
      9 C2       -214.8460   10.5600  -53.9570 c3        1 PM9      0.022000
     10 C2A      -214.0880   11.7370  -53.3400 c3        1 PM9     -0.222000
     11 C3       -215.4690   10.9840  -55.2600 c2        1 PM9     -0.141000
     12 C4       -216.7880   10.8500  -55.5650 c2        1 PM9     -0.025000
     13 C4A      -217.3350   10.9680  -56.8700 c1        1 PM9     -0.374000
     14 C5       -217.7360   10.3360  -54.5270 c3        1 PM9     -0.137000
     15 C5A      1082.2390  -59.6570  278.8780 c1        1 PM9      0.201000
     16 C6       -217.1210    9.8730  -53.2570 c1        1 PM9     -0.183000
     17 N1       -215.8350    9.9850  -53.0430 n3        1 PM9     -0.189000
     18 O4P      1083.1360  -58.9710  279.1910 o         1 PM9     -0.200000
     19 CA       -217.2630   13.3160  -57.6940 c2        1 PM9     -0.357000
     20 P        1085.3190  -59.2150  280.4680 p3        1 PM9      2.389000
     21 H4       -217.8970   11.6490  -58.6100 hn        1 PM9      0.249000
     22 HBC1       17.2630   -1.6050   -7.1260 ha        1 PM9      0.000000
     23 HBC2       16.5910   -1.5410   -7.1740 ha        1 PM9      0.000000
     24 HGC1        8.7670   -0.9350   -2.2470 ha        1 PM9      0.000000
     25 HGC2        8.3220   -0.5090   -2.5270 ha        1 PM9      0.000000
     26 HEC1     -213.7430   15.8330  -55.3480 h1        1 PM9      0.061000
     27 HEC2     -213.8240   16.0390  -53.5490 h1        1 PM9      0.061000
     28 HEC3     -213.6690   14.3870  -54.2800 h1        1 PM9      0.061000
     29 H2A1     -213.3180   12.0770  -54.0750 hc        1 PM9      0.078000
     30 H2A2     -213.5850   11.4400  -52.3890 hc        1 PM9      0.078000
     31 H2A3     -214.7790   12.5940  -53.1440 hc        1 PM9      0.078000
     32 H3       -214.9180   12.2700  -56.5420 ho        1 PM9      0.239000
     33 H5A1     -218.3310    9.4820  -54.9500 hc        1 PM9      0.115000
     34 H5A2     -218.4650   11.1530  -54.2630 hc        1 PM9      0.115000
     35 H6       -215.4710    9.7070  -52.1620 hn        1 PM9      0.203000
     36 HN       -214.0870    9.7450  -54.1780 h1        1 PM9      0.060000
     37 O3       -214.5240   11.4700  -56.1470 oh        1 PM9     -0.297000
     38 O1P      1084.5060  -60.4450  280.3510 o         1 PM9     -1.130333
     39 O3P      1085.1360  -58.3260  281.6280 o         1 PM9     -1.130333
     40 O2P      1086.3420  -58.9150  279.4510 o         1 PM9     -1.130333
@<TRIPOS>BOND
     1    1   13 1   
     2    1   19 1   
     3    1   21 1   
     4    2    3 1   
     5    2    8 1   
     6    2   19 1   
     7    4    5 1   
     8    4   19 1   
     9    5    6 1   
    10    6    7 1   
    11    7   26 1   
    12    7   27 1   
    13    7   28 1   
    14    9   10 1   
    15    9   11 1   
    16    9   17 1   
    17    9   36 1   
    18   10   29 1   
    19   10   30 1   
    20   10   31 1   
    21   11   12 1   
    22   11   37 1   
    23   12   13 1   
    24   12   14 1   
    25   14   16 1   
    26   14   33 1   
    27   14   34 1   
    28   15   18 1   
    29   16   17 1   
    30   17   35 1   
    31   20   38 1   
    32   20   39 1   
    33   20   40 1   
    34   22   23 1   
    35   24   25 1   
    36   32   37 1   
@<TRIPOS>SUBSTRUCTURE
     1 PM9         1 TEMP              0 ****  ****    0 ROOT
