@<TRIPOS>MOLECULE
PM9
   40    36     1     0     0
SMALL
bcc


@<TRIPOS>ATOM
      1 N        -208.0780   14.9700  -30.5850 n3        1 PM9      0.061000
      2 C        -208.2840   13.4020  -32.4820 c2        1 PM9      0.392000
      3 O2       -208.0700   12.2850  -33.0350 o         1 PM9     -0.619500
      4 CB       -206.7700   12.9290  -30.5320 c1        1 PM9      0.049000
      5 CG       -205.9310   12.1860  -30.0030 c1        1 PM9     -0.706000
      6 SD       -204.8750   11.2750  -29.3740 ss        1 PM9      0.396000
      7 CE       -205.6820   10.1150  -28.3120 c3        1 PM9     -0.449000
      8 O1       -209.0320   14.2810  -33.0360 o         1 PM9     -0.619500
      9 C2       -206.8440   14.2900  -26.0000 c3        1 PM9      0.022000
     10 C2A      -206.2700   12.8920  -25.7610 c3        1 PM9     -0.222000
     11 C3       -207.4220   14.3720  -27.3870 c2        1 PM9     -0.141000
     12 C4       -207.0860   15.3150  -28.3090 c2        1 PM9     -0.025000
     13 C4A      -207.8220   15.5920  -29.4910 c1        1 PM9     -0.374000
     14 C5       -205.9980   16.2940  -27.9980 c3        1 PM9     -0.137000
     15 C5A      1032.9180  -60.4030  165.4820 c1        1 PM9      0.201000
     16 C6       -205.4600   16.2520  -26.6140 c1        1 PM9     -0.183000
     17 N1       -205.8640   15.3510  -25.7550 n3        1 PM9     -0.189000
     18 O4P      1033.9990  -59.9880  165.3060 o         1 PM9     -0.200000
     19 CA       -207.6680   13.7300  -31.1380 c2        1 PM9     -0.357000
     20 P        1035.6590  -58.5170  166.5460 p3        1 PM9      2.389000
     21 H4       -208.7010   15.4470  -31.2270 hn        1 PM9      0.249000
     22 HBC1       17.5000  -10.3430  -35.8830 ha        1 PM9      0.000000
     23 HBC2       16.8910  -10.0660  -35.7800 ha        1 PM9      0.000000
     24 HGC1       19.4420  -11.2240  -36.2120 ha        1 PM9      0.000000
     25 HGC2       20.0510  -11.5010  -36.3150 ha        1 PM9      0.000000
     26 HEC1     -206.1630   10.6140  -27.4420 h1        1 PM9      0.061000
     27 HEC2     -204.8910    9.4250  -27.9450 h1        1 PM9      0.061000
     28 HEC3     -206.4590    9.5300  -28.8480 h1        1 PM9      0.061000
     29 H2A1     -207.0880   12.1490  -25.9260 hc        1 PM9      0.078000
     30 H2A2     -205.8820   12.7880  -24.7190 hc        1 PM9      0.078000
     31 H2A3     -205.4500   12.6710  -26.4860 hc        1 PM9      0.078000
     32 H3       -208.2330   13.0550  -28.4860 ho        1 PM9      0.239000
     33 H5A1     -205.1320   16.1110  -28.6950 hc        1 PM9      0.115000
     34 H5A2     -206.3650   17.3400  -28.1890 hc        1 PM9      0.115000
     35 H6       -205.4460   15.3270  -24.8550 hn        1 PM9      0.203000
     36 HN       -207.6890   14.4430  -25.2570 h1        1 PM9      0.060000
     37 O3       -208.3980   13.4130  -27.5940 oh        1 PM9     -0.297000
     38 O1P      1034.3720  -58.7480  167.2360 o         1 PM9     -1.130333
     39 O3P      1035.8150  -57.3540  165.6550 o         1 PM9     -1.130333
     40 O2P      1036.7950  -59.4230  166.7960 o         1 PM9     -1.130333
@<TRIPOS>BOND
     1    1   13 1   
     2    1   19 1   
     3    1   21 1   
     4    2    3 1   
     5    2    8 1   
     6    2   19 1   
     7    4    5 1   
     8    4   19 1   
     9    5    6 1   
    10    6    7 1   
    11    7   26 1   
    12    7   27 1   
    13    7   28 1   
    14    9   10 1   
    15    9   11 1   
    16    9   17 1   
    17    9   36 1   
    18   10   29 1   
    19   10   30 1   
    20   10   31 1   
    21   11   12 1   
    22   11   37 1   
    23   12   13 1   
    24   12   14 1   
    25   14   16 1   
    26   14   33 1   
    27   14   34 1   
    28   15   18 1   
    29   16   17 1   
    30   17   35 1   
    31   20   38 1   
    32   20   39 1   
    33   20   40 1   
    34   22   23 1   
    35   24   25 1   
    36   32   37 1   
@<TRIPOS>SUBSTRUCTURE
     1 PM9         1 TEMP              0 ****  ****    0 ROOT
