@<TRIPOS>MOLECULE
PM9
   40    40     1     0     0
SMALL
bcc


@<TRIPOS>ATOM
      1 N           2.6420   -0.5350   -0.4580 ne        1 PM9     -0.610300
      2 C           4.9940    0.2110   -0.6080 c         1 PM9      0.835300
      3 O2          5.5080    0.4180   -1.7440 o         1 PM9     -0.847300
      4 CB          3.1460    1.9160   -0.3220 c3        1 PM9     -0.150700
      5 CG          2.7090    2.2600    1.0800 c3        1 PM9      0.031700
      6 SD          1.8390    3.8140    1.1890 ss        1 PM9     -0.452200
      7 CE          0.1800    3.3600    0.7750 c3        1 PM9     -0.003000
      8 O1          5.6600   -0.1140    0.4140 o         1 PM9     -0.847300
      9 C2         -0.2610   -3.6930    0.3890 cc        1 PM9     -0.027200
     10 C2A         0.0780   -5.1390    0.5050 c3        1 PM9     -0.026900
     11 C3          0.6620   -2.7640   -0.0540 cd        1 PM9      0.076100
     12 C4          0.3390   -1.3410   -0.1640 cd        1 PM9      0.033000
     13 C4A         1.2640   -0.3430   -0.3260 ce        1 PM9     -0.097400
     14 C5         -1.0760   -1.0400   -0.0210 cd        1 PM9     -0.211200
     15 C5A        -1.6660    0.3190   -0.3440 c3        1 PM9      0.264600
     16 C6         -1.9470   -1.9930    0.4360 cc        1 PM9      0.018000
     17 N1         -1.5420   -3.2760    0.7680 na        1 PM9     -0.589800
     18 O4P        -2.9470    0.2400   -0.8380 os        1 PM9     -0.578200
     19 CA          3.4810    0.4480   -0.4530 cf        1 PM9      0.363300
     20 P          -4.2450    0.6950    0.2050 p5        1 PM9      1.324900
     21 H4          0.8760    0.6960   -0.3620 h4        1 PM9      0.115000
     22 HBC1        2.3330    2.1840   -1.0510 hc        1 PM9      0.049200
     23 HBC2        4.0500    2.5190   -0.6010 hc        1 PM9      0.049200
     24 HGC1        2.0510    1.4560    1.4930 h1        1 PM9      0.074700
     25 HGC2        3.5970    2.3700    1.7480 h1        1 PM9      0.074700
     26 HEC1        0.1210    2.8980   -0.2360 h1        1 PM9      0.077033
     27 HEC2       -0.2500    2.6390    1.5070 h1        1 PM9      0.077033
     28 HEC3       -0.4180    4.2970    0.7920 h1        1 PM9      0.077033
     29 H2A1       -0.2690   -5.5620    1.4810 hc        1 PM9      0.023033
     30 H2A2       -0.4070   -5.7210   -0.3190 hc        1 PM9      0.023033
     31 H2A3        1.1850   -5.2760    0.4310 hc        1 PM9      0.023033
     32 H3          2.5220   -2.5360   -0.4830 ho        1 PM9      0.470000
     33 H5A1       -1.6390    0.9560    0.5900 h1        1 PM9      0.007200
     34 H5A2       -1.0120    0.8010   -1.1320 h1        1 PM9      0.007200
     35 H6         -3.0420   -1.7020    0.6030 h4        1 PM9      0.287000
     36 HN         -2.2430   -3.9760    0.8190 hn        1 PM9      0.403800
     37 O3          1.8920   -3.2770   -0.4120 oh        1 PM9     -0.561100
     38 O1P        -5.3040    1.1610   -0.7540 o         1 PM9     -0.927833
     39 O3P        -3.6270    1.7470    1.0850 o         1 PM9     -0.927833
     40 O2P        -4.5250   -0.6330    0.8830 o         1 PM9     -0.927833
@<TRIPOS>BOND
     1    1   13 1   
     2    1   19 2   
     3    2    3 1   
     4    2    8 1   
     5    2   19 1   
     6    4    5 1   
     7    4   19 1   
     8    4   22 1   
     9    4   23 1   
    10    5    6 1   
    11    5   24 1   
    12    5   25 1   
    13    6    7 1   
    14    7   26 1   
    15    7   27 1   
    16    7   28 1   
    17    9   10 1   
    18    9   11 2   
    19    9   17 1   
    20   10   29 1   
    21   10   30 1   
    22   10   31 1   
    23   11   12 1   
    24   11   37 1   
    25   12   13 2   
    26   12   14 1   
    27   13   21 1   
    28   14   15 1   
    29   14   16 2   
    30   15   18 1   
    31   15   33 1   
    32   15   34 1   
    33   16   17 1   
    34   16   35 1   
    35   17   36 1   
    36   18   20 1   
    37   20   38 1   
    38   20   39 1   
    39   20   40 1   
    40   32   37 1   
@<TRIPOS>SUBSTRUCTURE
     1 PM9         1 TEMP              0 ****  ****    0 ROOT
