@<TRIPOS>MOLECULE
PM9
   40    36     1     0     0
SMALL
bcc


@<TRIPOS>ATOM
      1 N        -132.1900    8.3980  -15.0470 n7        1 PM9      0.021000
      2 C        -134.2320    7.1000  -15.5220 c2        1 PM9      0.389000
      3 O2       -135.4410    7.0150  -15.8820 o         1 PM9     -0.625000
      4 CB       -134.1390    9.5980  -15.8250 c1        1 PM9      0.098000
      5 CG       -134.7020   10.6560  -16.1280 c1        1 PM9     -0.702000
      6 SD       -135.4140   11.9630  -16.5000 ss        1 PM9      0.381000
      7 CE       -135.2000   12.2510  -18.2320 c3        1 PM9     -0.440000
      8 O1       -133.5710    6.0530  -15.1900 o         1 PM9     -0.625000
      9 C2       -127.7620   10.1920  -13.7800 c3        1 PM9     -0.003000
     10 C2A      -127.6130   10.9320  -12.4480 c3        1 PM9     -0.190000
     11 C3       -129.2070   10.2330  -14.2160 c2        1 PM9     -0.009000
     12 C4       -129.9640    9.1320  -14.4580 c2        1 PM9     -0.170000
     13 C4A      -131.3340    9.3660  -14.9090 c1        1 PM9     -0.339000
     14 C5       -129.3630    7.7780  -14.3060 c3        1 PM9     -0.158000
     15 C5A       699.2950  -50.8130   79.4040 c1        1 PM9      0.201000
     16 C6       -127.9060    7.8300  -13.9710 c2        1 PM9     -0.057000
     17 N1       -127.1780    8.8610  -13.7330 n2        1 PM9     -0.221000
     18 O4P       700.3410  -50.4820   78.9910 o         1 PM9     -0.200000
     19 CA       -133.5330    8.4410  -15.4790 c2        1 PM9     -0.298000
     20 P         702.7830  -50.9860   79.4750 p3        1 PM9      2.389000
     21 H4       -131.9300    7.4390  -14.8330 hn        1 PM9      0.172000
     22 HBC1       32.3180    7.9850    1.8750 ha        1 PM9     -0.000250
     23 HBC2       32.7670    8.4610    1.7040 ha        1 PM9     -0.000250
     24 HGC1     -130.8360    5.2110  -14.7370 ha        1 PM9     -0.000250
     25 HGC2     -131.4910    5.3420  -14.8750 ha        1 PM9     -0.000250
     26 HEC1     -134.1290   12.3270  -18.5130 h1        1 PM9      0.058000
     27 HEC2     -135.7070   13.2160  -18.4530 h1        1 PM9      0.058000
     28 HEC3     -135.6610   11.4470  -18.8450 h1        1 PM9      0.058000
     29 H2A1     -128.0370   11.9580  -12.5690 hc        1 PM9      0.070000
     30 H2A2     -126.5400   11.0080  -12.1530 hc        1 PM9      0.070000
     31 H2A3     -128.1740   10.4090  -11.6380 hc        1 PM9      0.070000
     32 H3       -130.6060   11.4200  -14.7010 ho        1 PM9      0.281000
     33 H5A1     -129.9040    7.2090  -13.5000 hc        1 PM9      0.106000
     34 H5A2     -129.5010    7.1940  -15.2580 hc        1 PM9      0.106000
     35 H6       -127.3900    6.8480  -13.9340 h4        1 PM9      0.111000
     36 HN       -127.1570   10.7610  -14.5530 h1        1 PM9      0.094000
     37 O3       -129.6840   11.5140  -14.3670 oh        1 PM9     -0.308000
     38 O1P       701.8050  -51.7000   80.3220 o         1 PM9     -1.130333
     39 O3P       703.3190  -49.6860   79.9140 o         1 PM9     -1.130333
     40 O2P       703.2560  -51.6030   78.2230 o         1 PM9     -1.130333
@<TRIPOS>BOND
     1    1   13 1   
     2    1   19 1   
     3    1   21 1   
     4    2    3 1   
     5    2    8 1   
     6    2   19 1   
     7    4    5 1   
     8    4   19 1   
     9    5    6 1   
    10    6    7 1   
    11    7   26 1   
    12    7   27 1   
    13    7   28 1   
    14    9   10 1   
    15    9   11 1   
    16    9   17 1   
    17    9   36 1   
    18   10   29 1   
    19   10   30 1   
    20   10   31 1   
    21   11   12 1   
    22   11   37 1   
    23   12   13 1   
    24   12   14 1   
    25   14   16 1   
    26   14   33 1   
    27   14   34 1   
    28   15   18 1   
    29   16   17 1   
    30   16   35 1   
    31   20   38 1   
    32   20   39 1   
    33   20   40 1   
    34   22   23 1   
    35   24   25 1   
    36   32   37 1   
@<TRIPOS>SUBSTRUCTURE
     1 PM9         1 TEMP              0 ****  ****    0 ROOT
