@<TRIPOS>MOLECULE
PMA
   20    20     1     0     0
SMALL
bcc


@<TRIPOS>ATOM
      1 C1          0.6910   -0.1520    1.2410 ca        1 PMA     -0.104600
      2 C2         -0.6830    0.1340    1.2410 ca        1 PMA     -0.104600
      3 C3          1.3360   -0.2870    0.0000 ca        1 PMA     -0.139000
      4 C4         -0.6830    0.1330   -1.2410 ca        1 PMA     -0.104600
      5 C5          0.6920   -0.1530   -1.2410 ca        1 PMA     -0.104600
      6 C6         -1.3270    0.2680   -0.0000 ca        1 PMA     -0.139000
      7 C7         -1.5610    0.3160   -2.4620 c         1 PMA      0.929200
      8 C8          1.5710   -0.3360   -2.4610 c         1 PMA      0.929200
      9 C9          1.5700   -0.3350    2.4620 c         1 PMA      0.929200
     10 C10        -1.5620    0.3170    2.4610 c         1 PMA      0.929200
     11 O1          1.7580   -1.4960    2.9510 o         1 PMA     -0.900300
     12 O2          2.2060    0.6560    2.9500 o         1 PMA     -0.900300
     13 O3         -1.7500    1.4800    2.9490 o         1 PMA     -0.900300
     14 O4         -2.1980   -0.6730    2.9500 o         1 PMA     -0.900300
     15 O5         -1.7490    1.4780   -2.9510 o         1 PMA     -0.900300
     16 O6         -2.1970   -0.6740   -2.9500 o         1 PMA     -0.900300
     17 O7          1.7590   -1.4980   -2.9500 o         1 PMA     -0.900300
     18 O8          2.2070    0.6540   -2.9500 o         1 PMA     -0.900300
     19 H3          2.4140   -0.5110    0.0010 ha        1 PMA      0.093000
     20 H6         -2.4050    0.4920   -0.0010 ha        1 PMA      0.093000
@<TRIPOS>BOND
     1    1    2 ar  
     2    1    3 ar  
     3    1    9 1   
     4    2    6 ar  
     5    2   10 1   
     6    3    5 ar  
     7    3   19 1   
     8    4    5 ar  
     9    4    6 ar  
    10    4    7 1   
    11    5    8 1   
    12    6   20 1   
    13    7   15 1   
    14    7   16 1   
    15    8   17 1   
    16    8   18 1   
    17    9   11 1   
    18    9   12 1   
    19   10   13 1   
    20   10   14 1   
@<TRIPOS>SUBSTRUCTURE
     1 PMA         1 TEMP              0 ****  ****    0 ROOT
