@<TRIPOS>MOLECULE
PMA
   20    20     1     0     0
SMALL
bcc


@<TRIPOS>ATOM
      1 C1          0.0120   -0.0830   -0.0370 ca        1 PMA     -0.104600
      2 C2          1.4040    0.0980   -0.0350 ca        1 PMA     -0.104600
      3 C3         -0.6420   -0.1740    1.2040 ca        1 PMA     -0.139000
      4 C4          1.4030    0.0870    2.4470 ca        1 PMA     -0.104600
      5 C5          0.0110   -0.0950    2.4450 ca        1 PMA     -0.104600
      6 C6          2.0560    0.1770    1.2070 ca        1 PMA     -0.139000
      7 C7          2.2920    0.1970    3.6680 c         1 PMA      0.929200
      8 C8         -0.8800   -0.2160    3.6640 c         1 PMA      0.929200
      9 C9         -0.8770   -0.1930   -1.2580 c         1 PMA      0.929200
     10 C10         2.2950    0.2200   -1.2540 c         1 PMA      0.929200
     11 O1         -1.1530   -1.3350   -1.7520 o         1 PMA     -0.900300
     12 O2         -1.4370    0.8450   -1.7420 o         1 PMA     -0.900300
     13 O3          2.5710    1.3660   -1.7380 o         1 PMA     -0.900300
     14 O4          2.8540   -0.8140   -1.7480 o         1 PMA     -0.900300
     15 O5          2.5670    1.3390    4.1630 o         1 PMA     -0.900300
     16 O6          2.8510   -0.8410    4.1520 o         1 PMA     -0.900300
     17 O7         -1.1560   -1.3630    4.1480 o         1 PMA     -0.900300
     18 O8         -1.4400    0.8180    4.1580 o         1 PMA     -0.900300
     19 H3         -1.7340   -0.3160    1.2020 ha        1 PMA      0.093000
     20 H6          3.1480    0.3190    1.2080 ha        1 PMA      0.093000
@<TRIPOS>BOND
     1    1    2 ar  
     2    1    3 ar  
     3    1    9 1   
     4    2    6 ar  
     5    2   10 1   
     6    3    5 ar  
     7    3   19 1   
     8    4    5 ar  
     9    4    6 ar  
    10    4    7 1   
    11    5    8 1   
    12    6   20 1   
    13    7   15 1   
    14    7   16 1   
    15    8   17 1   
    16    8   18 1   
    17    9   11 1   
    18    9   12 1   
    19   10   13 1   
    20   10   14 1   
@<TRIPOS>SUBSTRUCTURE
     1 PMA         1 TEMP              0 ****  ****    0 ROOT
