@<TRIPOS>MOLECULE
PMC
   19    18     1     0     0
SMALL
bcc


@<TRIPOS>ATOM
      1 C2          0.4470    0.3150   -1.8130 cc        1 PMC      0.015600
      2 C3         -0.5180    0.4680   -0.7170 cc        1 PMC      0.111000
      3 CA         -0.2170    0.7430    0.5960 c2        1 PMC     -0.601000
      4 P1         -0.5600   -0.3340    2.8720 p4        1 PMC      1.573300
      5 O3          0.4700    0.5100    3.5220 o         1 PMC     -0.852500
      6 O2         -1.9740    0.0900    3.0410 o         1 PMC     -0.852500
      7 O1         -0.3020   -1.7850    2.7320 o         1 PMC     -0.901300
      8 C4         -1.8960    0.3250   -1.1090 cc        1 PMC     -0.313000
      9 C5         -2.2370   -0.0130   -2.4030 cd        1 PMC     -0.216600
     10 C6         -1.2230   -0.1880   -3.3520 cd        1 PMC      0.167500
     11 N1          0.0970   -0.0100   -3.0550 nc        1 PMC     -0.572300
     12 C           1.9340    0.6240   -1.6090 c         1 PMC      0.927600
     13 OC1         2.3140    1.8340   -1.6780 o         1 PMC     -0.881800
     14 OC2         2.7630   -0.3230   -1.4590 o         1 PMC     -0.881800
     15 HCA1        0.8140    0.8560    0.9380 ha        1 PMC      0.104500
     16 HCA2       -1.0080    1.1730    1.2250 ha        1 PMC      0.104500
     17 HC4        -2.6680    0.4630   -0.3420 ha        1 PMC      0.093000
     18 HC5        -3.2890   -0.1440   -2.6920 ha        1 PMC      0.040000
     19 HC6        -1.4450   -0.4660   -4.3900 h4        1 PMC     -0.065200
@<TRIPOS>BOND
     1    1    2 1   
     2    1   11 1   
     3    1   12 2   
     4    2    3 2   
     5    2    8 1   
     6    3   15 1   
     7    3   16 1   
     8    4    5 1   
     9    4    6 1   
    10    4    7 2   
    11    8    9 2   
    12    8   17 1   
    13    9   10 1   
    14    9   18 1   
    15   10   11 2   
    16   10   19 1   
    17   12   13 1   
    18   12   14 1   
@<TRIPOS>SUBSTRUCTURE
     1 PMC         1 TEMP              0 ****  ****    0 ROOT
