@<TRIPOS>MOLECULE
PMC
   19    18     1     0     0
SMALL
bcc


@<TRIPOS>ATOM
      1 C2         -0.2310    0.3400    0.0960 cc        1 PMC      0.015600
      2 C3          1.1730   -0.0760   -0.0070 cc        1 PMC      0.111000
      3 CA          1.8600   -0.3320   -1.1700 c2        1 PMC     -0.601000
      4 P1          3.1000   -2.2780   -2.2340 p4        1 PMC      1.573300
      5 O3          3.0740   -1.6680   -3.5850 o         1 PMC     -0.852500
      6 O2          4.3550   -2.1170   -1.4540 o         1 PMC     -0.852500
      7 O1          2.3090   -3.5070   -1.9960 o         1 PMC     -0.901300
      8 C4          1.8560   -0.1950    1.2550 cc        1 PMC     -0.313000
      9 C5          1.1850   -0.0070    2.4470 cd        1 PMC     -0.216600
     10 C6         -0.1720    0.3340    2.4210 cd        1 PMC      0.167500
     11 N1         -0.8580    0.5170    1.2560 nc        1 PMC     -0.572300
     12 C          -1.0460    0.6980   -1.1520 c         1 PMC      0.927600
     13 OC1        -0.9200    1.8640   -1.6410 o         1 PMC     -0.881800
     14 OC2        -1.8810   -0.1310   -1.6230 o         1 PMC     -0.881800
     15 HCA1        2.9560   -0.2870   -1.1390 ha        1 PMC      0.104500
     16 HCA2        1.3810   -0.2580   -2.1490 ha        1 PMC      0.104500
     17 HC4         2.9180   -0.4680    1.2440 ha        1 PMC      0.093000
     18 HC5         1.7060   -0.1220    3.4090 ha        1 PMC      0.040000
     19 HC6        -0.7470    0.4830    3.3430 h4        1 PMC     -0.065200
@<TRIPOS>BOND
     1    1    2 1   
     2    1   11 1   
     3    1   12 2   
     4    2    3 2   
     5    2    8 1   
     6    3   15 1   
     7    3   16 1   
     8    4    5 1   
     9    4    6 1   
    10    4    7 2   
    11    8    9 2   
    12    8   17 1   
    13    9   10 1   
    14    9   18 1   
    15   10   11 2   
    16   10   19 1   
    17   12   13 1   
    18   12   14 1   
@<TRIPOS>SUBSTRUCTURE
     1 PMC         1 TEMP              0 ****  ****    0 ROOT
