@<TRIPOS>MOLECULE
PMD
   45    49     1     0     0
SMALL
bcc


@<TRIPOS>ATOM
      1 C2B        -0.0420    0.1750   -0.2300 ca        1 PMD      0.935900
      2 C4B        -0.0440   -1.0240    1.7920 ca        1 PMD      0.713900
      3 C4          1.1970   -0.3340    2.1780 ca        1 PMD      0.030000
      4 C6B         2.9250    0.0820    3.6420 ca        1 PMD      0.250300
      5 C7B         3.4820    1.0150    2.6810 ca        1 PMD      0.364900
      6 C8          1.7400    0.6020    1.2110 ca        1 PMD      0.630000
      7 C9B         3.6830   -0.1610    4.9280 c3        1 PMD     -0.023000
      8 C0'         5.0140    1.0220    6.5850 ca        1 PMD      0.013300
      9 C1'         5.4580   -0.1860    7.1630 ca        1 PMD     -0.164000
     10 C2'         6.5830   -0.2100    7.9810 ca        1 PMD     -0.111000
     11 C3'         7.2840    0.9650    8.2490 ca        1 PMD     -0.142000
     12 C4'         6.8520    2.1650    7.6960 ca        1 PMD     -0.107500
     13 C5'         5.7200    2.2190    6.8690 ca        1 PMD     -0.044500
     14 C6'         5.3220    3.5050    6.3250 cc        1 PMD     -0.107000
     15 C6          4.0690    3.9200    6.0900 cd        1 PMD     -0.107000
     16 C7'         2.8480    3.1720    6.3310 ca        1 PMD     -0.044500
     17 C8'         1.7060    3.8780    6.7370 ca        1 PMD     -0.107500
     18 C9'         0.5050    3.2230    6.9880 ca        1 PMD     -0.142000
     19 CA'         0.4280    1.8410    6.8300 ca        1 PMD     -0.111000
     20 CB'         1.5440    1.1160    6.4250 ca        1 PMD     -0.164000
     21 CC'         2.7680    1.7650    6.1590 ca        1 PMD      0.013300
     22 N1'         1.1330    0.8490    0.0080 nb        1 PMD     -0.771000
     23 N2'        -0.7300    0.4890   -1.3980 nv        1 PMD     -0.937500
     24 N3'        -0.6440   -0.7690    0.6070 nb        1 PMD     -0.846000
     25 N4'        -0.5980   -1.9600    2.6250 nv        1 PMD     -0.956500
     26 N5'         1.7960   -0.5720    3.3880 nb        1 PMD     -0.602000
     27 N8'         2.9320    1.2770    1.5140 nb        1 PMD     -0.631000
     28 N0'         3.9130    1.0640    5.6760 na        1 PMD     -0.108300
     29 H7'1        4.4180    1.5530    2.9260 h4        1 PMD      0.049100
     30 H9'1        4.6950   -0.5720    4.6370 h1        1 PMD      0.057700
     31 H9'2        3.1610   -0.9480    5.5480 h1        1 PMD      0.057700
     32 H2'1        6.9180   -1.1630    8.4170 ha        1 PMD      0.132500
     33 H3'1        8.1730    0.9430    8.8950 ha        1 PMD      0.134500
     34 H4'1        7.4020    3.0950    7.9080 ha        1 PMD      0.134500
     35 H6'1        6.1620    4.1950    6.1220 ha        1 PMD      0.128500
     36 H61         3.9080    4.9410    5.6970 ha        1 PMD      0.128500
     37 H8'1        1.7700    4.9700    6.8590 ha        1 PMD      0.134500
     38 H9B        -0.3780    3.7940    7.3070 ha        1 PMD      0.134500
     39 H10'       -0.5190    1.3160    7.0240 ha        1 PMD      0.132500
     40 H11'        1.4520    0.0260    6.2990 ha        1 PMD      0.136000
     41 HN21       -1.4520   -0.1230   -1.6920 hn        1 PMD      0.438300
     42 HN22       -0.2470    1.0060   -2.0940 hn        1 PMD      0.438300
     43 HN41       -0.2040   -2.1150    3.5190 hn        1 PMD      0.450300
     44 HN42       -1.4560   -2.3950    2.3920 hn        1 PMD      0.450300
     45 H1'1        4.9190   -1.1270    6.9730 ha        1 PMD      0.136000
@<TRIPOS>BOND
     1    1   22 ar  
     2    1   23 1   
     3    1   24 ar  
     4    2    3 ar  
     5    2   24 ar  
     6    2   25 1   
     7    3    6 ar  
     8    3   26 ar  
     9    4    5 ar  
    10    4    7 1   
    11    4   26 ar  
    12    5   27 ar  
    13    5   29 1   
    14    6   22 ar  
    15    6   27 ar  
    16    7   28 1   
    17    7   30 1   
    18    7   31 1   
    19    8    9 ar  
    20    8   13 ar  
    21    8   28 1   
    22    9   10 ar  
    23    9   45 1   
    24   10   11 ar  
    25   10   32 1   
    26   11   12 ar  
    27   11   33 1   
    28   12   13 ar  
    29   12   34 1   
    30   13   14 1   
    31   14   15 2   
    32   14   35 1   
    33   15   16 1   
    34   15   36 1   
    35   16   17 ar  
    36   16   21 ar  
    37   17   18 ar  
    38   17   37 1   
    39   18   19 ar  
    40   18   38 1   
    41   19   20 ar  
    42   19   39 1   
    43   20   21 ar  
    44   20   40 1   
    45   21   28 1   
    46   23   41 1   
    47   23   42 1   
    48   25   43 1   
    49   25   44 1   
@<TRIPOS>SUBSTRUCTURE
     1 PMD         1 TEMP              0 ****  ****    0 ROOT
