@<TRIPOS>MOLECULE
PMD
   45    49     1     0     0
SMALL
bcc


@<TRIPOS>ATOM
      1 C2B        -0.4190    0.6760    5.3920 ca        1 PMD      0.935900
      2 C4B         0.0510   -1.2280    4.0970 ca        1 PMD      0.714900
      3 C4         -0.4330   -0.5130    2.9060 ca        1 PMD      0.030000
      4 C6B        -0.9020   -0.3880    0.6560 ca        1 PMD      0.250300
      5 C7B        -1.3350    0.9830    0.8470 ca        1 PMD      0.364900
      6 C8         -0.8740    0.8540    3.1130 ca        1 PMD      0.630000
      7 C9B        -1.0140   -0.9890   -0.7290 c3        1 PMD     -0.023000
      8 C0'        -0.7400   -0.3930   -3.0700 ca        1 PMD      0.013800
      9 C1'        -1.3760   -1.5780   -3.4970 ca        1 PMD     -0.164000
     10 C2'        -1.8780   -1.6880   -4.7890 ca        1 PMD     -0.111000
     11 C3'        -1.7510   -0.6280   -5.6860 ca        1 PMD     -0.142000
     12 C4'        -1.1170    0.5420   -5.2840 ca        1 PMD     -0.108000
     13 C5'        -0.5990    0.6790   -3.9880 ca        1 PMD     -0.044500
     14 C6'         0.0530    1.9270   -3.6330 cc        1 PMD     -0.107500
     15 C6          1.0970    2.0760   -2.8040 cd        1 PMD     -0.107500
     16 C7'         1.7940    1.0200   -2.0890 ca        1 PMD     -0.044500
     17 C8'         3.1750    1.1560   -1.8890 ca        1 PMD     -0.108000
     18 C9'         3.9040    0.1820   -1.2150 ca        1 PMD     -0.142000
     19 CA'         3.2540   -0.9490   -0.7240 ca        1 PMD     -0.111000
     20 CB'         1.8840   -1.1070   -0.9060 ca        1 PMD     -0.164000
     21 CC'         1.1290   -0.1260   -1.5810 ca        1 PMD      0.013800
     22 N1'        -0.8620    1.4500    4.3460 nb        1 PMD     -0.771000
     23 N2'        -0.4920    1.2270    6.6680 nh        1 PMD     -0.936500
     24 N3'         0.0620   -0.6340    5.3130 nb        1 PMD     -0.846000
     25 N4'         0.5120   -2.5140    3.9870 nh        1 PMD     -0.957500
     26 N5'        -0.4510   -1.1130    1.6740 nb        1 PMD     -0.602000
     27 N8'        -1.3300    1.5950    2.0120 nb        1 PMD     -0.631000
     28 N0'        -0.2880   -0.2210   -1.7260 na        1 PMD     -0.108300
     29 H7'1       -1.6880    1.5680   -0.0240 h4        1 PMD      0.049100
     30 H9'1       -0.6980   -2.0730   -0.7110 h1        1 PMD      0.058200
     31 H9'2       -2.1080   -0.9560   -1.0100 h1        1 PMD      0.058200
     32 H2'1       -2.3770   -2.6180   -5.1020 ha        1 PMD      0.132500
     33 H3'1       -2.1500   -0.7170   -6.7070 ha        1 PMD      0.134500
     34 H4'1       -1.0130    1.3790   -5.9910 ha        1 PMD      0.134500
     35 H6'1       -0.3620    2.8200   -4.1360 ha        1 PMD      0.128500
     36 H61         1.5140    3.0870   -2.6440 ha        1 PMD      0.128500
     37 H8'1        3.6860    2.0510   -2.2760 ha        1 PMD      0.134500
     38 H9B         4.9870    0.3050   -1.0690 ha        1 PMD      0.134500
     39 H10'        3.8240   -1.7230   -0.1890 ha        1 PMD      0.132500
     40 H11'        1.3950   -2.0060   -0.5000 ha        1 PMD      0.136000
     41 HN21        0.0130    0.7830    7.3960 hn        1 PMD      0.437800
     42 HN22       -0.6420    2.2060    6.7390 hn        1 PMD      0.437800
     43 HN41        0.8280   -3.0070    4.7850 hn        1 PMD      0.451300
     44 HN42        0.5020   -2.9660    3.1080 hn        1 PMD      0.451300
     45 H1'1       -1.4830   -2.4320   -2.8110 ha        1 PMD      0.136000
@<TRIPOS>BOND
     1    1   22 ar  
     2    1   23 1   
     3    1   24 ar  
     4    2    3 ar  
     5    2   24 ar  
     6    2   25 1   
     7    3    6 ar  
     8    3   26 ar  
     9    4    5 ar  
    10    4    7 1   
    11    4   26 ar  
    12    5   27 ar  
    13    5   29 1   
    14    6   22 ar  
    15    6   27 ar  
    16    7   28 1   
    17    7   30 1   
    18    7   31 1   
    19    8    9 ar  
    20    8   13 ar  
    21    8   28 1   
    22    9   10 ar  
    23    9   45 1   
    24   10   11 ar  
    25   10   32 1   
    26   11   12 ar  
    27   11   33 1   
    28   12   13 ar  
    29   12   34 1   
    30   13   14 1   
    31   14   15 2   
    32   14   35 1   
    33   15   16 1   
    34   15   36 1   
    35   16   17 ar  
    36   16   21 ar  
    37   17   18 ar  
    38   17   37 1   
    39   18   19 ar  
    40   18   38 1   
    41   19   20 ar  
    42   19   39 1   
    43   20   21 ar  
    44   20   40 1   
    45   21   28 1   
    46   23   41 1   
    47   23   42 1   
    48   25   43 1   
    49   25   44 1   
@<TRIPOS>SUBSTRUCTURE
     1 PMD         1 TEMP              0 ****  ****    0 ROOT
