@<TRIPOS>MOLECULE
PMD
   45    49     1     0     0
SMALL
bcc


@<TRIPOS>ATOM
      1 C2B        -0.0600    0.1650   -0.2160 ca        1 PMD      0.935900
      2 C4B        -0.0600   -1.0260    1.8100 ca        1 PMD      0.713900
      3 C4          1.1840   -0.3380    2.1900 ca        1 PMD      0.030000
      4 C6B         2.9180    0.0770    3.6460 ca        1 PMD      0.250300
      5 C7B         3.4760    1.0040    2.6790 ca        1 PMD      0.364900
      6 C8          1.7270    0.5910    1.2170 ca        1 PMD      0.630000
      7 C9B         3.6810   -0.1620    4.9310 c3        1 PMD     -0.023000
      8 C0'         5.0210    1.0230    6.5770 ca        1 PMD      0.013300
      9 C1'         5.4630   -0.1830    7.1600 ca        1 PMD     -0.164000
     10 C2'         6.5900   -0.2080    7.9740 ca        1 PMD     -0.111000
     11 C3'         7.2950    0.9660    8.2350 ca        1 PMD     -0.142000
     12 C4'         6.8650    2.1650    7.6780 ca        1 PMD     -0.107500
     13 C5'         5.7310    2.2190    6.8540 ca        1 PMD     -0.044500
     14 C6'         5.3360    3.5050    6.3060 cc        1 PMD     -0.107000
     15 C6          4.0830    3.9220    6.0730 cd        1 PMD     -0.107000
     16 C7'         2.8600    3.1790    6.3220 ca        1 PMD     -0.044500
     17 C8'         1.7220    3.8900    6.7280 ca        1 PMD     -0.107500
     18 C9'         0.5200    3.2410    6.9850 ca        1 PMD     -0.142000
     19 CA'         0.4380    1.8580    6.8340 ca        1 PMD     -0.111000
     20 CB'         1.5510    1.1280    6.4290 ca        1 PMD     -0.164000
     21 CC'         2.7760    1.7720    6.1560 ca        1 PMD      0.013300
     22 N1'         1.1180    0.8350    0.0150 nb        1 PMD     -0.771000
     23 N2'        -0.7510    0.4750   -1.3840 nh        1 PMD     -0.937500
     24 N3'        -0.6640   -0.7730    0.6260 nb        1 PMD     -0.846000
     25 N4'        -0.6140   -1.9560    2.6500 nh        1 PMD     -0.956500
     26 N5'         1.7870   -0.5730    3.3990 nb        1 PMD     -0.602000
     27 N8'         2.9230    1.2640    1.5130 nb        1 PMD     -0.631000
     28 N0'         3.9170    1.0650    5.6720 na        1 PMD     -0.108300
     29 H7'1        4.4150    1.5400    2.9180 h4        1 PMD      0.049100
     30 H9'1        4.6900   -0.5780    4.6380 h1        1 PMD      0.057700
     31 H9'2        3.1580   -0.9450    5.5560 h1        1 PMD      0.057700
     32 H2'1        6.9230   -1.1600    8.4140 ha        1 PMD      0.132500
     33 H3'1        8.1860    0.9450    8.8790 ha        1 PMD      0.134500
     34 H4'1        7.4190    3.0940    7.8840 ha        1 PMD      0.134500
     35 H6'1        6.1770    4.1910    6.0970 ha        1 PMD      0.128500
     36 H61         3.9240    4.9420    5.6760 ha        1 PMD      0.128500
     37 H8'1        1.7890    4.9830    6.8450 ha        1 PMD      0.134500
     38 H9B        -0.3610    3.8160    7.3050 ha        1 PMD      0.134500
     39 H10'       -0.5100    1.3370    7.0340 ha        1 PMD      0.132500
     40 H11'        1.4540    0.0380    6.3080 ha        1 PMD      0.136000
     41 HN21       -0.2690    0.9880   -2.0830 hn        1 PMD      0.438300
     42 HN22       -1.4760   -0.1350   -1.6730 hn        1 PMD      0.438300
     43 HN41       -1.4750   -2.3890    2.4210 hn        1 PMD      0.450300
     44 HN42       -0.2180   -2.1080    3.5430 hn        1 PMD      0.450300
     45 H1'1        4.9200   -1.1230    6.9750 ha        1 PMD      0.136000
@<TRIPOS>BOND
     1    1   22 ar  
     2    1   23 1   
     3    1   24 ar  
     4    2    3 ar  
     5    2   24 ar  
     6    2   25 1   
     7    3    6 ar  
     8    3   26 ar  
     9    4    5 ar  
    10    4    7 1   
    11    4   26 ar  
    12    5   27 ar  
    13    5   29 1   
    14    6   22 ar  
    15    6   27 ar  
    16    7   28 1   
    17    7   30 1   
    18    7   31 1   
    19    8    9 ar  
    20    8   13 ar  
    21    8   28 1   
    22    9   10 ar  
    23    9   45 1   
    24   10   11 ar  
    25   10   32 1   
    26   11   12 ar  
    27   11   33 1   
    28   12   13 ar  
    29   12   34 1   
    30   13   14 1   
    31   14   15 2   
    32   14   35 1   
    33   15   16 1   
    34   15   36 1   
    35   16   17 ar  
    36   16   21 ar  
    37   17   18 ar  
    38   17   37 1   
    39   18   19 ar  
    40   18   38 1   
    41   19   20 ar  
    42   19   39 1   
    43   20   21 ar  
    44   20   40 1   
    45   21   28 1   
    46   23   41 1   
    47   23   42 1   
    48   25   43 1   
    49   25   44 1   
@<TRIPOS>SUBSTRUCTURE
     1 PMD         1 TEMP              0 ****  ****    0 ROOT
