@<TRIPOS>MOLECULE
PMD
   47    51     1     0     0
SMALL
bcc


@<TRIPOS>ATOM
      1 C2B         0.1270    0.4340    0.0240 ca        1 PMD      0.716900
      2 C4B         0.1630    0.8180    2.3020 ca        1 PMD      0.517900
      3 C4          1.4770    0.2210    2.3610 ca        1 PMD      0.189000
      4 C6B         3.3740   -0.3810    3.5450 ca        1 PMD      0.419300
      5 C7B         3.9620   -0.8590    2.2840 ca        1 PMD      0.377900
      6 C8          2.0550   -0.2440    1.1110 ca        1 PMD      0.579000
      7 C9B         4.1670   -0.4700    4.8440 c3        1 PMD     -0.019000
      8 C0'         5.0500    1.0340    6.5660 ca        1 PMD      0.013300
      9 C1'         5.8440    0.0440    7.1780 ca        1 PMD     -0.154500
     10 C2'         6.8990    0.4080    8.0100 ca        1 PMD     -0.122000
     11 C3'         7.1730    1.7550    8.2480 ca        1 PMD     -0.163500
     12 C4'         6.3920    2.7390    7.6520 ca        1 PMD     -0.122000
     13 C5'         5.3190    2.4030    6.8090 ca        1 PMD     -0.036000
     14 C6'         4.5420    3.4780    6.2220 cc        1 PMD     -0.105000
     15 C6          3.2390    3.4770    5.8910 cd        1 PMD     -0.105000
     16 C7'         2.2870    2.3990    6.0680 ca        1 PMD     -0.036000
     17 C8'         0.9290    2.7180    6.2280 ca        1 PMD     -0.122000
     18 C9'        -0.0240    1.7290    6.4600 ca        1 PMD     -0.163500
     19 CA'         0.3740    0.3970    6.5840 ca        1 PMD     -0.122000
     20 CB'         1.7110    0.0500    6.4160 ca        1 PMD     -0.154500
     21 CC'         2.6730    1.0300    6.0890 ca        1 PMD      0.013300
     22 N1'         1.3520   -0.1320   -0.0670 nb        1 PMD     -0.546000
     23 N2'        -0.6360    0.5510   -1.2550 n4        1 PMD     -0.812300
     24 N3'        -0.5190    0.9280    1.1520 nb        1 PMD     -0.661000
     25 N4'        -0.4250    1.3290    3.5560 n4        1 PMD     -0.833300
     26 N5'         2.1450    0.1210    3.5530 nb        1 PMD     -0.664000
     27 N8'         3.3440   -0.8040    1.1230 nb        1 PMD     -0.549000
     28 N0'         3.9900    0.6940    5.6740 na        1 PMD     -0.135300
     29 H7'1        4.9870   -1.2950    2.2810 h4        1 PMD      0.101100
     30 H9'1        5.2630   -0.5540    4.5850 h1        1 PMD      0.095200
     31 H9'2        3.8430   -1.4360    5.3420 h1        1 PMD      0.095200
     32 H3'1        8.0070    2.0400    8.9110 ha        1 PMD      0.156500
     33 H4'1        6.6110    3.8030    7.8450 ha        1 PMD      0.157000
     34 H6'1        5.1140    4.4170    6.0730 ha        1 PMD      0.141000
     35 H61         2.8020    4.4140    5.4960 ha        1 PMD      0.141000
     36 H8'1        0.6280    3.7790    6.2300 ha        1 PMD      0.157000
     37 H9B        -1.0710    2.0120    6.6540 ha        1 PMD      0.156500
     38 H10'       -0.3570   -0.3750    6.8740 ha        1 PMD      0.157000
     39 H11'        2.0120   -1.0030    6.5440 ha        1 PMD      0.142000
     40 HN21       -1.5190    0.0250   -1.1760 hn        1 PMD      0.499133
     41 HN22       -0.8430    1.5440   -1.4410 hn        1 PMD      0.499133
     42 HN41        0.1850    2.0770    3.9520 hn        1 PMD      0.501133
     43 HN42       -0.4500    0.5700    4.2700 hn        1 PMD      0.501133
     44 H1'1        5.6380   -1.0240    7.0080 ha        1 PMD      0.142000
     45 H2'3       -0.0770    0.1670   -2.0360 hn        1 PMD      0.499133
     46 H4'3       -1.3740    1.7000    3.4140 hn        1 PMD      0.501133
     47 H2'1        7.5150   -0.3730    8.4830 ha        1 PMD      0.157000
@<TRIPOS>BOND
     1    1   22 ar  
     2    1   23 1   
     3    1   24 ar  
     4    2    3 ar  
     5    2   24 ar  
     6    2   25 1   
     7    3    6 ar  
     8    3   26 ar  
     9    4    5 ar  
    10    4    7 1   
    11    4   26 ar  
    12    5   27 ar  
    13    5   29 1   
    14    6   22 ar  
    15    6   27 ar  
    16    7   28 1   
    17    7   30 1   
    18    7   31 1   
    19    8    9 ar  
    20    8   13 ar  
    21    8   28 1   
    22    9   10 ar  
    23    9   44 1   
    24   10   11 ar  
    25   10   47 1   
    26   11   12 ar  
    27   11   32 1   
    28   12   13 ar  
    29   12   33 1   
    30   13   14 1   
    31   14   15 2   
    32   14   34 1   
    33   15   16 1   
    34   15   35 1   
    35   16   17 ar  
    36   16   21 ar  
    37   17   18 ar  
    38   17   36 1   
    39   18   19 ar  
    40   18   37 1   
    41   19   20 ar  
    42   19   38 1   
    43   20   21 ar  
    44   20   39 1   
    45   21   28 1   
    46   23   40 1   
    47   23   41 1   
    48   23   45 1   
    49   25   42 1   
    50   25   43 1   
    51   25   46 1   
@<TRIPOS>SUBSTRUCTURE
     1 PMD         1 TEMP              0 ****  ****    0 ROOT
