@<TRIPOS>MOLECULE
PMD
   45    39     1     0     0
SMALL
bcc


@<TRIPOS>ATOM
      1 C2B         0.4520   -1.9950   -5.5160 c1        1 PMD      0.217000
      2 C4B        -1.2710   -1.9930   -3.8870 c1        1 PMD      0.259000
      3 C4         -0.3730   -1.4310   -2.9620 c1        1 PMD     -0.233000
      4 C6B         0.0660   -0.6130   -0.8100 c1        1 PMD     -0.140000
      5 C7B         1.3640   -0.3430   -1.1800 c1        1 PMD     -0.048000
      6 C8          0.9050   -1.1660   -3.3330 c1        1 PMD      0.101000
      7 C9B        -0.4040   -0.6300    0.6590 c3        1 PMD      0.047000
      8 C0'         0.9940    0.2340    2.3560 c1        1 PMD      0.076500
      9 C1'         1.1300   -1.0440    2.9540 c1        1 PMD     -0.125833
     10 C2'         2.3320   -1.4150    3.5350 c1        1 PMD     -0.125833
     11 C3'         3.4120   -0.5290    3.5340 c1        1 PMD     -0.125833
     12 C4'         3.2790    0.7410    2.9410 c1        1 PMD     -0.125833
     13 C5'         2.0660    1.1150    2.3530 c1        1 PMD     -0.057000
     14 C6'         1.5880    2.5540    2.4100 c2        1 PMD     -0.116000
     15 C6          0.5140    3.0260    1.4720 c1        1 PMD     -0.125000
     16 C7'        -0.9630    2.6510    1.7440 c1        1 PMD     -0.057000
     17 C8'        -2.0100    3.4900    2.0600 c2        1 PMD     -0.116000
     18 C9'        -3.2230    2.9580    2.5090 c1        1 PMD     -0.125000
     19 CA'        -3.3740    1.5810    2.6370 c1        1 PMD     -0.125833
     20 CB'        -2.3280    0.7410    2.3220 c1        1 PMD     -0.125833
     21 CC'        -1.1120    1.2750    1.8720 c1        1 PMD      0.076500
     22 N1'         1.3220   -1.4520   -4.6260 n1        1 PMD     -0.247000
     23 N2'         0.7530   -2.3390   -6.8830 n3        1 PMD     -0.335000
     24 N3'        -0.8670   -2.2670   -5.1310 n1        1 PMD     -0.322000
     25 N4'        -2.6650   -2.3340   -4.0800 n3        1 PMD     -0.353000
     26 N5'        -0.7870   -1.1510   -1.6950 n2        1 PMD     -0.059000
     27 N8'         1.7770   -0.6180   -2.4300 n2        1 PMD     -0.104000
     28 N0'         0.0390    0.5730    1.3180 n3        1 PMD     -0.269000
     29 H7'1        1.9940   -0.0310   -0.5240 ha        1 PMD      0.173000
     30 H9'1       -0.0430   -1.3770    1.0940 h1        1 PMD      0.105000
     31 H9'2       -1.3890   -0.6780    0.6900 h1        1 PMD      0.105000
     32 H1'1        0.3850   -1.6570    2.9560 ha        1 PMD      0.136167
     33 H2'1        2.4220   -2.2950    3.9460 ha        1 PMD      0.136167
     34 H3'1        4.2170   -0.7780    3.9250 ha        1 PMD      0.136167
     35 H4'1        4.0450    1.3700    2.9400 ha        1 PMD      0.136167
     36 H6'1        1.9870    3.1680    3.0350 ha        1 PMD      0.131000
     37 H61         0.7600    3.5170    0.6370 ha        1 PMD      0.130500
     38 H8'1       -1.9050    4.4440    1.9700 ha        1 PMD      0.131000
     39 H9B        -3.9450    3.5370    2.7260 ha        1 PMD      0.130500
     40 H10'       -4.2250    1.2080    2.9530 ha        1 PMD      0.136167
     41 H11'       -2.4370   -0.2550    2.4160 ha        1 PMD      0.136167
     42 HN21        0.1110   -2.7290   -7.4090 hn        1 PMD      0.233500
     43 HN22        1.6190   -2.1680   -7.2380 hn        1 PMD      0.233500
     44 HN41       -2.9370   -2.7040   -4.8600 hn        1 PMD      0.248000
     45 HN42       -3.2750   -2.1930   -3.3980 hn        1 PMD      0.248000
@<TRIPOS>BOND
     1    1   23 1   
     2    1   24 1   
     3    2    3 1   
     4    2   25 1   
     5    3   26 1   
     6    4    7 1   
     7    4   26 1   
     8    5   27 1   
     9    5   29 1   
    10    6   22 1   
    11    6   27 1   
    12    7   28 1   
    13    7   30 1   
    14    7   31 1   
    15    8   13 1   
    16    8   28 1   
    17    9   10 1   
    18    9   32 1   
    19   10   33 1   
    20   11   12 1   
    21   11   34 1   
    22   12   35 1   
    23   13   14 1   
    24   14   15 1   
    25   14   36 1   
    26   15   37 1   
    27   16   17 1   
    28   16   21 1   
    29   17   18 1   
    30   17   38 1   
    31   18   39 1   
    32   19   20 1   
    33   19   40 1   
    34   20   41 1   
    35   21   28 1   
    36   23   42 1   
    37   23   43 1   
    38   25   44 1   
    39   25   45 1   
@<TRIPOS>SUBSTRUCTURE
     1 PMD         1 TEMP              0 ****  ****    0 ROOT
