@<TRIPOS>MOLECULE
PME
   40    40     1     0     0
SMALL
bcc


@<TRIPOS>ATOM
      1 N1         -0.6350   -0.7290   -0.5360 n3        1 PME     -0.920800
      2 C2          0.7300   -0.3950   -0.3140 c3        1 PME      0.183500
      3 C3          1.0040   -0.0020    1.1510 c3        1 PME     -0.207400
      4 C4          2.2050    0.8890    1.2680 c         1 PME      0.647100
      5 O5          2.3910    1.6440    2.3730 oh        1 PME     -0.524100
      6 O6          3.0990    1.0050    0.4190 o         1 PME     -0.560000
      7 C7          1.6960   -1.5660   -0.6780 c         1 PME      0.469100
      8 O8          1.4290   -2.7540   -0.5730 o         1 PME     -0.420100
      9 N9          3.0450   -1.1900   -1.2190 n4        1 PME     -0.666800
     10 C10         3.7710   -2.2850   -1.9430 c3        1 PME      0.074500
     11 C11         4.6250   -1.7250   -3.0980 c3        1 PME     -0.050100
     12 C12         3.7950   -0.9550   -4.0600 ca        1 PME     -0.157300
     13 C13         3.7860    0.4460   -4.0180 ca        1 PME     -0.132000
     14 C14         3.0350    1.1680   -4.9440 ca        1 PME     -0.117000
     15 C15         2.2910    0.4990   -5.9170 ca        1 PME     -0.102000
     16 C16         2.3030   -0.8960   -5.9660 ca        1 PME     -0.117000
     17 C17         3.0530   -1.6220   -5.0420 ca        1 PME     -0.132000
     18 C18         4.6740   -3.1270   -1.0540 c         1 PME      0.615100
     19 O19         5.1640   -4.2020   -1.3800 o         1 PME     -0.458000
     20 O20         4.9370   -2.5940    0.1710 os        1 PME     -0.467900
     21 C21         5.8270   -3.3380    1.0200 c3        1 PME      0.130700
     22 HN11       -0.9780   -1.4760    0.0300 hn        1 PME      0.409800
     23 HN12        1.6530    1.5390    2.9950 ho        1 PME      0.452000
     24 H2          0.9870    0.4890   -0.9790 h1        1 PME      0.109700
     25 H31         1.1560   -0.9130    1.7900 hc        1 PME      0.118200
     26 H32         0.1030    0.5450    1.5540 hc        1 PME      0.118200
     27 HN9         3.6240   -0.8570   -0.4230 hn        1 PME      0.489300
     28 H10         2.9890   -2.9880   -2.3740 hx        1 PME      0.141700
     29 H111        5.0980   -2.6120   -3.6070 hc        1 PME      0.102700
     30 H112        5.4560   -1.0900   -2.6890 hc        1 PME      0.102700
     31 H13         4.4050    0.9830   -3.2820 ha        1 PME      0.142000
     32 H14         3.0440    2.2700   -4.9170 ha        1 PME      0.155000
     33 H15         1.7080    1.0720   -6.6560 ha        1 PME      0.157000
     34 H16         1.7310   -1.4250   -6.7440 ha        1 PME      0.155000
     35 H17         3.0790   -2.7210   -5.0990 ha        1 PME      0.142000
     36 H211        6.8130   -3.4620    0.5120 h1        1 PME      0.073033
     37 H212        5.9060   -2.6940    1.9310 h1        1 PME      0.073033
     38 H213        5.3760   -4.3340    1.2490 h1        1 PME      0.073033
     39 H131       -0.8820   -0.8250   -1.4970 hn        1 PME      0.409800
     40 H92         2.9310   -0.3870   -1.8610 hn        1 PME      0.489300
@<TRIPOS>BOND
     1    1    2 1   
     2    1   22 1   
     3    1   39 1   
     4    2    3 1   
     5    2    7 1   
     6    2   24 1   
     7    3    4 1   
     8    3   25 1   
     9    3   26 1   
    10    4    5 1   
    11    4    6 2   
    12    5   23 1   
    13    7    8 2   
    14    7    9 1   
    15    9   10 1   
    16    9   27 1   
    17    9   40 1   
    18   10   11 1   
    19   10   18 1   
    20   10   28 1   
    21   11   12 1   
    22   11   29 1   
    23   11   30 1   
    24   12   13 ar  
    25   12   17 ar  
    26   13   14 ar  
    27   13   31 1   
    28   14   15 ar  
    29   14   32 1   
    30   15   16 ar  
    31   15   33 1   
    32   16   17 ar  
    33   16   34 1   
    34   17   35 1   
    35   18   19 2   
    36   18   20 1   
    37   20   21 1   
    38   21   36 1   
    39   21   37 1   
    40   21   38 1   
@<TRIPOS>SUBSTRUCTURE
     1 PME         1 TEMP              0 ****  ****    0 ROOT
