@<TRIPOS>MOLECULE
PME
   38    38     1     0     0
SMALL
bcc


@<TRIPOS>ATOM
      1 N1         -2.2330    1.1450   -2.4300 n3        1 PME     -0.905800
      2 C2         -1.0700    0.3410   -2.1100 c3        1 PME      0.132500
      3 C3          0.0070    0.2480   -3.1960 c3        1 PME     -0.244400
      4 C4         -0.5530   -0.4460   -4.4540 c         1 PME      0.911600
      5 O5         -1.5370    0.0910   -5.0420 o         1 PME     -0.839800
      6 O6          0.0070   -1.5110   -4.8310 o         1 PME     -0.839800
      7 C7         -0.3750    0.8520   -0.8310 c         1 PME      0.661100
      8 O8         -0.3390    2.0480   -0.4880 o         1 PME     -0.616100
      9 N9          0.2360   -0.1270   -0.0430 n         1 PME     -0.565900
     10 C10         1.0670    0.2040    1.0750 c3        1 PME      0.073700
     11 C11         0.8550   -0.7260    2.2920 c3        1 PME     -0.043100
     12 C12        -0.4620   -0.5020    2.9430 ca        1 PME     -0.075300
     13 C13        -1.6150   -1.1230    2.4470 ca        1 PME     -0.115000
     14 C14        -2.8450   -0.9210    3.0720 ca        1 PME     -0.131000
     15 C15        -2.9330   -0.1020    4.1970 ca        1 PME     -0.133000
     16 C16        -1.7880    0.5190    4.6960 ca        1 PME     -0.131000
     17 C17        -0.5580    0.3210    4.0720 ca        1 PME     -0.115000
     18 C18         2.5700    0.1610    0.7790 c         1 PME      0.600100
     19 O19         3.4390    0.9110    1.2280 o         1 PME     -0.553000
     20 O20         2.9580   -0.8610   -0.0400 os        1 PME     -0.433900
     21 C21         4.3330   -0.9030   -0.4180 c3        1 PME      0.126700
     22 HN11       -2.5680    0.8570   -3.3400 hn        1 PME      0.370800
     23 HN12       -1.9700    2.1120   -2.4830 hn        1 PME      0.370800
     24 H2         -1.4640   -0.7050   -1.9230 h1        1 PME      0.069700
     25 H31         0.3590    1.2700   -3.4810 hc        1 PME      0.038200
     26 H32         0.8800   -0.3370   -2.8170 hc        1 PME      0.038200
     27 HN9         0.3830   -1.0230   -0.4510 hn        1 PME      0.318500
     28 H10         0.8420    1.2740    1.3830 h1        1 PME      0.123700
     29 H111        0.9470   -1.7970    1.9680 hc        1 PME      0.057700
     30 H112        1.6820   -0.5190    3.0240 hc        1 PME      0.057700
     31 H13        -1.5500   -1.7580    1.5500 ha        1 PME      0.135500
     32 H14        -3.7470   -1.4010    2.6670 ha        1 PME      0.127000
     33 H15        -3.9050    0.0600    4.6850 ha        1 PME      0.123000
     34 H16        -1.8560    1.1710    5.5780 ha        1 PME      0.127000
     35 H17         0.3420    0.8200    4.4630 ha        1 PME      0.135500
     36 H211        4.3820   -1.7490   -1.1470 h1        1 PME      0.048367
     37 H212        4.6300    0.0630   -0.8940 h1        1 PME      0.048367
     38 H213        4.9660   -1.0960    0.4810 h1        1 PME      0.048367
@<TRIPOS>BOND
     1    1    2 1   
     2    1   22 1   
     3    1   23 1   
     4    2    3 1   
     5    2    7 1   
     6    2   24 1   
     7    3    4 1   
     8    3   25 1   
     9    3   26 1   
    10    4    5 1   
    11    4    6 1   
    12    7    8 2   
    13    7    9 1   
    14    9   10 1   
    15    9   27 1   
    16   10   11 1   
    17   10   18 1   
    18   10   28 1   
    19   11   12 1   
    20   11   29 1   
    21   11   30 1   
    22   12   13 ar  
    23   12   17 ar  
    24   13   14 ar  
    25   13   31 1   
    26   14   15 ar  
    27   14   32 1   
    28   15   16 ar  
    29   15   33 1   
    30   16   17 ar  
    31   16   34 1   
    32   17   35 1   
    33   18   19 2   
    34   18   20 1   
    35   20   21 1   
    36   21   36 1   
    37   21   37 1   
    38   21   38 1   
@<TRIPOS>SUBSTRUCTURE
     1 PME         1 TEMP              0 ****  ****    0 ROOT
