@<TRIPOS>MOLECULE
PME
   40    40     1     0     0
SMALL
bcc


@<TRIPOS>ATOM
      1 N1         -0.6600   -0.6540   -0.6420 n3        1 PME     -0.920800
      2 C2          0.7050   -0.3530   -0.3780 c3        1 PME      0.183500
      3 C3          0.9440    0.0230    1.0990 c3        1 PME     -0.207400
      4 C4          2.1600    0.8860    1.2580 c         1 PME      0.647100
      5 O5          2.3290    1.6290    2.3730 oh        1 PME     -0.524100
      6 O6          3.0810    0.9890    0.4360 o         1 PME     -0.560000
      7 C7          1.6540   -1.5440   -0.7220 c         1 PME      0.469100
      8 O8          1.3570   -2.7250   -0.6350 o         1 PME     -0.420100
      9 N9          3.0270   -1.1940   -1.2180 n4        1 PME     -0.666800
     10 C10         3.7510   -2.3010   -1.9250 c3        1 PME      0.074500
     11 C11         4.6550   -1.7540   -3.0480 c3        1 PME     -0.050100
     12 C12         3.8740   -0.9600   -4.0320 ca        1 PME     -0.157300
     13 C13         3.8950    0.4400   -3.9810 ca        1 PME     -0.132000
     14 C14         3.1910    1.1850   -4.9260 ca        1 PME     -0.117000
     15 C15         2.4650    0.5370   -5.9280 ca        1 PME     -0.102000
     16 C16         2.4460   -0.8570   -5.9850 ca        1 PME     -0.117000
     17 C17         3.1500   -1.6050   -5.0420 ca        1 PME     -0.132000
     18 C18         4.6060   -3.1690   -1.0130 c         1 PME      0.615100
     19 O19         5.0830   -4.2520   -1.3310 o         1 PME     -0.458000
     20 O20         4.8400   -2.6490    0.2230 os        1 PME     -0.467900
     21 C21         5.6850   -3.4180    1.0970 c3        1 PME      0.130700
     22 HN11       -0.8810   -0.7380   -1.6110 hn        1 PME      0.409800
     23 HN12        1.5700    1.5360    2.9720 ho        1 PME      0.452000
     24 H2          1.0010    0.5290   -1.0270 h1        1 PME      0.109700
     25 H31         0.0430    0.5860    1.4790 hc        1 PME      0.118200
     26 H32         1.0570   -0.8960    1.7340 hc        1 PME      0.118200
     27 HN9         2.9510   -0.3860   -1.8590 hn        1 PME      0.489300
     28 H10         2.9690   -2.9840   -2.3860 hx        1 PME      0.141700
     29 H111        5.4860   -1.1400   -2.6090 hc        1 PME      0.102700
     30 H112        5.1240   -2.6490   -3.5480 hc        1 PME      0.102700
     31 H13         4.5020    0.9590   -3.2220 ha        1 PME      0.142000
     32 H14         3.2230    2.2850   -4.8930 ha        1 PME      0.155000
     33 H15         1.9190    1.1270   -6.6810 ha        1 PME      0.157000
     34 H16         1.8880   -1.3690   -6.7850 ha        1 PME      0.155000
     35 H17         3.1530   -2.7040   -5.1040 ha        1 PME      0.142000
     36 H211        6.6840   -3.5610    0.6200 h1        1 PME      0.073033
     37 H212        5.2050   -4.4050    1.3030 h1        1 PME      0.073033
     38 H213        5.7470   -2.7820    2.0140 h1        1 PME      0.073033
     39 H131       -1.0370   -1.3970   -0.0930 hn        1 PME      0.409800
     40 H92         3.5890   -0.8780   -0.4030 hn        1 PME      0.489300
@<TRIPOS>BOND
     1    1    2 1   
     2    1   22 1   
     3    1   39 1   
     4    2    3 1   
     5    2    7 1   
     6    2   24 1   
     7    3    4 1   
     8    3   25 1   
     9    3   26 1   
    10    4    5 1   
    11    4    6 2   
    12    5   23 1   
    13    7    8 2   
    14    7    9 1   
    15    9   10 1   
    16    9   27 1   
    17    9   40 1   
    18   10   11 1   
    19   10   18 1   
    20   10   28 1   
    21   11   12 1   
    22   11   29 1   
    23   11   30 1   
    24   12   13 ar  
    25   12   17 ar  
    26   13   14 ar  
    27   13   31 1   
    28   14   15 ar  
    29   14   32 1   
    30   15   16 ar  
    31   15   33 1   
    32   16   17 ar  
    33   16   34 1   
    34   17   35 1   
    35   18   19 2   
    36   18   20 1   
    37   20   21 1   
    38   21   36 1   
    39   21   37 1   
    40   21   38 1   
@<TRIPOS>SUBSTRUCTURE
     1 PME         1 TEMP              0 ****  ****    0 ROOT
