@<TRIPOS>MOLECULE
PME
   40    40     1     0     0
SMALL
bcc


@<TRIPOS>ATOM
      1 N1         -0.6200   -0.7530   -0.4810 n8        1 PME     -0.920800
      2 C2          0.7450   -0.4010   -0.2870 c3        1 PME      0.183500
      3 C3          1.0380    0.0130    1.1690 c3        1 PME     -0.207400
      4 C4          2.2310    0.9190    1.2540 c         1 PME      0.647100
      5 O5          2.4270    1.6900    2.3460 oh        1 PME     -0.524100
      6 O6          3.1100    1.0340    0.3890 o         1 PME     -0.560000
      7 C7          1.7170   -1.5670   -0.6510 c         1 PME      0.469100
      8 O8          1.4650   -2.7560   -0.5270 o         1 PME     -0.420100
      9 N9          3.0530   -1.1830   -1.2190 ny        1 PME     -0.666800
     10 C10         3.7790   -2.2800   -1.9410 c3        1 PME      0.074500
     11 C11         4.6080   -1.7260   -3.1160 c3        1 PME     -0.050100
     12 C12         3.7550   -0.9770   -4.0750 ca        1 PME     -0.157300
     13 C13         3.7310    0.4240   -4.0510 ca        1 PME     -0.132000
     14 C14         2.9570    1.1260   -4.9740 ca        1 PME     -0.117000
     15 C15         2.2050    0.4360   -5.9260 ca        1 PME     -0.102000
     16 C16         2.2310   -0.9590   -5.9570 ca        1 PME     -0.117000
     17 C17         3.0040   -1.6650   -5.0360 ca        1 PME     -0.132000
     18 C18         4.7060   -3.1000   -1.0560 c         1 PME      0.615100
     19 O19         5.2020   -4.1750   -1.3770 o         1 PME     -0.458000
     20 O20         4.9820   -2.5480    0.1570 os        1 PME     -0.467900
     21 C21         5.8940   -3.2730    1.0020 c3        1 PME      0.130700
     22 HN11       -0.8820   -0.8640   -1.4370 hn        1 PME      0.409800
     23 HN12       -0.9460   -1.4970    0.0990 hn        1 PME      0.409800
     24 H2          0.9810    0.4760   -0.9670 h1        1 PME      0.109700
     25 H31         1.2110   -0.8880    1.8170 hc        1 PME      0.118200
     26 H32         0.1390    0.5550    1.5790 hc        1 PME      0.118200
     27 HN9         3.6420   -0.8340   -0.4370 hn        1 PME      0.489300
     28 H10         2.9980   -2.9970   -2.3500 hx        1 PME      0.141700
     29 H111        5.4380   -1.0760   -2.7290 hc        1 PME      0.102700
     30 H112        5.0820   -2.6140   -3.6220 hc        1 PME      0.102700
     31 H13         4.3560    0.9770   -3.3320 ha        1 PME      0.142000
     32 H14         2.9540    2.2270   -4.9610 ha        1 PME      0.155000
     33 H15         1.6040    0.9930   -6.6620 ha        1 PME      0.157000
     34 H16         1.6530   -1.5050   -6.7190 ha        1 PME      0.155000
     35 H17         3.0410   -2.7650   -5.0790 ha        1 PME      0.142000
     36 H211        5.4580   -4.2700    1.2500 h1        1 PME      0.073033
     37 H212        5.9800   -2.6160    1.9030 h1        1 PME      0.073033
     38 H213        6.8730   -3.3920    0.4790 h1        1 PME      0.073033
     39 H131        1.7000    1.5850    2.9820 ho        1 PME      0.452000
     40 H92         2.9200   -0.3900   -1.8690 hn        1 PME      0.489300
@<TRIPOS>BOND
     1    1    2 1   
     2    1   22 1   
     3    1   23 1   
     4    2    3 1   
     5    2    7 1   
     6    2   24 1   
     7    3    4 1   
     8    3   25 1   
     9    3   26 1   
    10    4    5 1   
    11    4    6 2   
    12    5   39 1   
    13    7    8 2   
    14    7    9 1   
    15    9   10 1   
    16    9   27 1   
    17    9   40 1   
    18   10   11 1   
    19   10   18 1   
    20   10   28 1   
    21   11   12 1   
    22   11   29 1   
    23   11   30 1   
    24   12   13 ar  
    25   12   17 ar  
    26   13   14 ar  
    27   13   31 1   
    28   14   15 ar  
    29   14   32 1   
    30   15   16 ar  
    31   15   33 1   
    32   16   17 ar  
    33   16   34 1   
    34   17   35 1   
    35   18   19 2   
    36   18   20 1   
    37   20   21 1   
    38   21   36 1   
    39   21   37 1   
    40   21   38 1   
@<TRIPOS>SUBSTRUCTURE
     1 PME         1 TEMP              0 ****  ****    0 ROOT
