@<TRIPOS>MOLECULE
PMG
   44    44     1     0     0
SMALL
bcc


@<TRIPOS>ATOM
      1 N1         -0.1060    0.2000    0.5070 nb        1 PMG     -0.685000
      2 C2          1.2020   -0.1820    0.4680 ca        1 PMG      0.332600
      3 C2A         1.8160   -0.5620   -0.8390 c3        1 PMG     -0.117400
      4 C3          1.9880   -0.2390    1.6370 ca        1 PMG     -0.015200
      5 O3          3.3000   -0.6520    1.5080 oh        1 PMG     -0.546100
      6 C4          1.4090    0.0620    2.8960 ca        1 PMG     -0.166300
      7 C4A         2.2800    0.1190    4.1080 c3        1 PMG      0.163100
      8 C5          0.0620    0.4200    2.9350 ca        1 PMG     -0.116600
      9 C6         -0.6380    0.5030    1.6910 ca        1 PMG      0.385200
     10 C5A        -0.7430    0.7310    4.1850 c3        1 PMG      0.268700
     11 OP4        -0.8920    2.0750    4.3840 os        1 PMG     -0.550200
     12 P          -2.5580    2.6130    4.2620 p5        1 PMG      1.318900
     13 OP1        -2.4440    4.1070    4.3370 o         1 PMG     -0.927833
     14 OP2        -3.1850    1.9140    5.4340 o         1 PMG     -0.927833
     15 OP3        -2.9020    2.0180    2.9150 o         1 PMG     -0.927833
     16 N           2.9850   -1.1560    4.4260 n4        1 PMG     -0.748000
     17 CA          4.0980   -0.9550    5.4260 c3        1 PMG      0.002200
     18 CB2         3.6520   -0.0860    6.6010 c3        1 PMG     -0.094100
     19 CB1         4.5610   -2.3100    5.9920 c3        1 PMG     -0.062400
     20 CG          4.8320   -3.3870    4.9680 c3        1 PMG     -0.210400
     21 CD          3.6510   -4.3510    4.8070 c         1 PMG      0.905600
     22 OE1         2.4760   -3.8710    4.7320 o         1 PMG     -0.855800
     23 OE2         3.8920   -5.5910    4.7580 o         1 PMG     -0.855800
     24 C           5.3460   -0.2430    4.7600 c         1 PMG      0.929600
     25 O           5.3000    0.0230    3.5270 o         1 PMG     -0.823300
     26 OXT         6.3100    0.0190    5.5230 o         1 PMG     -0.823300
     27 H2A1        1.3630    0.0040   -1.6890 hc        1 PMG      0.028033
     28 H2A2        1.6660   -1.6550   -1.0200 hc        1 PMG      0.028033
     29 H2A3        2.9150   -0.3580   -0.8110 hc        1 PMG      0.028033
     30 HO3         3.8600   -0.0420    2.0240 ho        1 PMG      0.451000
     31 H4A1        1.6730    0.4220    5.0100 hx        1 PMG      0.106700
     32 H4A2        3.0810    0.9000    3.9350 hx        1 PMG      0.106700
     33 H6         -1.6980    0.8910    1.7220 h4        1 PMG      0.136100
     34 H5A1       -1.7480    0.2240    4.0730 h1        1 PMG      0.001200
     35 H5A2       -0.2160    0.2600    5.0700 h1        1 PMG      0.001200
     36 HN          3.4210   -1.5240    3.5680 hn        1 PMG      0.472300
     37 HB21        3.4450    0.9610    6.2730 hc        1 PMG      0.046033
     38 HB22        2.7430   -0.5020    7.0980 hc        1 PMG      0.046033
     39 HB23        4.4930   -0.0560    7.3360 hc        1 PMG      0.046033
     40 HB11        3.7880   -2.6810    6.7180 hc        1 PMG      0.048200
     41 HB12        5.5020   -2.0890    6.5650 hc        1 PMG      0.048200
     42 HG1         5.7260   -3.9820    5.2900 hc        1 PMG      0.040200
     43 HG2         5.0790   -2.9420    3.9700 hc        1 PMG      0.040200
     44 H2          2.3360   -1.8910    4.7710 hn        1 PMG      0.472300
@<TRIPOS>BOND
     1    1    2 ar  
     2    1    9 ar  
     3    2    3 1   
     4    2    4 ar  
     5    3   27 1   
     6    3   28 1   
     7    3   29 1   
     8    4    5 1   
     9    4    6 ar  
    10    5   30 1   
    11    6    7 1   
    12    6    8 ar  
    13    7   16 1   
    14    7   31 1   
    15    7   32 1   
    16    8    9 ar  
    17    8   10 1   
    18    9   33 1   
    19   10   11 1   
    20   10   34 1   
    21   10   35 1   
    22   11   12 1   
    23   12   13 1   
    24   12   14 1   
    25   12   15 1   
    26   16   17 1   
    27   16   36 1   
    28   16   44 1   
    29   17   18 1   
    30   17   19 1   
    31   17   24 1   
    32   18   37 1   
    33   18   38 1   
    34   18   39 1   
    35   19   20 1   
    36   19   40 1   
    37   19   41 1   
    38   20   21 1   
    39   20   42 1   
    40   20   43 1   
    41   21   22 1   
    42   21   23 1   
    43   24   25 1   
    44   24   26 1   
@<TRIPOS>SUBSTRUCTURE
     1 PMG         1 TEMP              0 ****  ****    0 ROOT
