@<TRIPOS>MOLECULE
PMG
   44    44     1     0     0
SMALL
bcc


@<TRIPOS>ATOM
      1 N1         -0.1760    0.3700    0.6670 nb        1 PMG     -0.684000
      2 C2          0.9880   -0.3360    0.6430 ca        1 PMG      0.331600
      3 C2A         1.4090   -1.0380   -0.6050 c3        1 PMG     -0.125400
      4 C3          1.8250   -0.4460    1.7750 ca        1 PMG     -0.033200
      5 O3          3.0420   -1.0910    1.6330 oh        1 PMG     -0.561100
      6 C4          1.4540    0.1780    2.9880 ca        1 PMG     -0.141300
      7 C4A         2.2290    0.0900    4.2700 c3        1 PMG      0.179100
      8 C5          0.2710    0.9280    2.9960 ca        1 PMG     -0.161600
      9 C6         -0.5120    0.9790    1.8060 ca        1 PMG      0.393200
     10 C5A        -0.2540    1.6710    4.2050 c3        1 PMG      0.245700
     11 OP4        -0.8970    2.8320    3.8750 os        1 PMG     -0.557200
     12 P          -2.6280    2.8360    4.0680 p5        1 PMG      1.315900
     13 OP1        -2.9410    4.2840    4.3070 o         1 PMG     -0.920500
     14 OP2        -2.8090    1.9030    5.2350 o         1 PMG     -0.920500
     15 OP3        -3.0300    2.2720    2.7250 o         1 PMG     -0.920500
     16 N           3.3400   -0.8920    4.2890 n4        1 PMG     -0.764000
     17 CA          4.0130   -1.1130    5.6190 c3        1 PMG     -0.001800
     18 CB2         3.1620   -0.6840    6.8090 c3        1 PMG     -0.092100
     19 CB1         4.3490   -2.6100    5.7840 c3        1 PMG     -0.060400
     20 CG          5.1520   -3.2070    4.6480 c3        1 PMG     -0.208400
     21 CD          4.3100   -4.0330    3.6740 c         1 PMG      0.909600
     22 OE1         3.2640   -3.5130    3.1600 o         1 PMG     -0.859800
     23 OE2         4.6820   -5.2070    3.3940 o         1 PMG     -0.859800
     24 C           5.3850   -0.3120    5.6990 c         1 PMG      0.926600
     25 O           5.8270    0.2030    4.6380 o         1 PMG     -0.814800
     26 OXT         5.9390   -0.2700    6.8260 o         1 PMG     -0.814800
     27 H2A1        1.4720   -2.1370   -0.4060 hc        1 PMG      0.029033
     28 H2A2        2.4260   -0.6810   -0.9040 hc        1 PMG      0.029033
     29 H2A3        0.7010   -0.8650   -1.4500 hc        1 PMG      0.029033
     30 HO3         2.8670   -2.0510    1.6860 ho        1 PMG      0.453000
     31 H4A1        2.6590    1.1060    4.5110 hx        1 PMG      0.091700
     32 H4A2        1.4940   -0.1890    5.0820 hx        1 PMG      0.091700
     33 H6         -1.4980    1.5590    1.8710 h4        1 PMG      0.159100
     34 H5A1        0.6300    1.9190    4.8700 h1        1 PMG      0.017200
     35 H5A2       -0.9480    0.9730    4.7690 h1        1 PMG      0.017200
     36 HN          4.0760   -0.5660    3.6350 hn        1 PMG      0.479300
     37 HB21        2.2160   -1.2740    6.8740 hc        1 PMG      0.045700
     38 HB22        2.9180    0.4040    6.7620 hc        1 PMG      0.045700
     39 HB23        3.7670   -0.8600    7.7330 hc        1 PMG      0.045700
     40 HB11        3.3980   -3.1900    5.9180 hc        1 PMG      0.045700
     41 HB12        4.9390   -2.6820    6.7360 hc        1 PMG      0.045700
     42 HG1         5.9440   -3.8750    5.0740 hc        1 PMG      0.048700
     43 HG2         5.6750   -2.3990    4.0720 hc        1 PMG      0.048700
     44 H2          2.9980   -1.8110    3.9240 hn        1 PMG      0.479300
@<TRIPOS>BOND
     1    1    2 ar  
     2    1    9 ar  
     3    2    3 1   
     4    2    4 ar  
     5    3   27 1   
     6    3   28 1   
     7    3   29 1   
     8    4    5 1   
     9    4    6 ar  
    10    5   30 1   
    11    6    7 1   
    12    6    8 ar  
    13    7   16 1   
    14    7   31 1   
    15    7   32 1   
    16    8    9 ar  
    17    8   10 1   
    18    9   33 1   
    19   10   11 1   
    20   10   34 1   
    21   10   35 1   
    22   11   12 1   
    23   12   13 1   
    24   12   14 1   
    25   12   15 1   
    26   16   17 1   
    27   16   36 1   
    28   16   44 1   
    29   17   18 1   
    30   17   19 1   
    31   17   24 1   
    32   18   37 1   
    33   18   38 1   
    34   18   39 1   
    35   19   20 1   
    36   19   40 1   
    37   19   41 1   
    38   20   21 1   
    39   20   42 1   
    40   20   43 1   
    41   21   22 1   
    42   21   23 1   
    43   24   25 1   
    44   24   26 1   
@<TRIPOS>SUBSTRUCTURE
     1 PMG         1 TEMP              0 ****  ****    0 ROOT
