@<TRIPOS>MOLECULE
PMG
   43    43     1     0     0
SMALL
bcc


@<TRIPOS>ATOM
      1 N1         31.6080   77.0580    0.3540 nb        1 PMG     -0.690000
      2 C2         32.6940   76.2690    0.5730 ca        1 PMG      0.281600
      3 C2A        33.0870   75.9110    1.9670 c3        1 PMG     -0.101400
      4 C3         33.4930   75.7820   -0.4910 ca        1 PMG      0.029800
      5 O3         34.5950   75.0600   -0.1000 oh        1 PMG     -0.550100
      6 C4         33.1510   76.0750   -1.8360 ca        1 PMG     -0.143300
      7 C4A        34.0280   75.6080   -2.9700 c3        1 PMG      0.208100
      8 C5         32.0260   76.8840   -2.0470 ca        1 PMG     -0.152600
      9 C6         31.3050   77.3570   -0.9100 ca        1 PMG      0.354200
     10 C5A        31.5120   77.3610   -3.3890 c3        1 PMG      0.245700
     11 OP4        30.1500   77.5440   -3.4080 os        1 PMG     -0.572200
     12 P          29.5570   79.1650   -3.5110 p5        1 PMG      1.317900
     13 OP1        28.2540   79.0060   -4.2490 o         1 PMG     -0.933833
     14 OP2        30.6440   79.8890   -4.2640 o         1 PMG     -0.933833
     15 OP3        29.4350   79.5220   -2.0490 o         1 PMG     -0.933833
     16 N          34.5920   74.2780   -2.8100 n3        1 PMG     -0.839200
     17 CA         35.5490   73.8460   -3.8410 c3        1 PMG      0.072200
     18 CB2        35.4590   74.6560   -5.1500 c3        1 PMG     -0.094100
     19 CB1        37.0140   73.9820   -3.3560 c3        1 PMG     -0.030400
     20 CG         37.3860   73.2020   -2.1190 c3        1 PMG     -0.163400
     21 CD         38.8790   73.2630   -1.7850 c         1 PMG      0.902600
     22 OE1        39.6460   74.1090   -2.3400 o         1 PMG     -0.896800
     23 OE2        39.3350   72.4480   -0.9160 o         1 PMG     -0.896800
     24 C          35.3020   72.3490   -4.2870 c         1 PMG      0.915600
     25 O          36.0040   71.8980   -5.2410 o         1 PMG     -0.862800
     26 OXT        34.3940   71.6620   -3.7340 o         1 PMG     -0.862800
     27 H2A1       33.2330   74.8040    2.0370 hc        1 PMG      0.015367
     28 H2A2       34.0600   76.4010    2.2160 hc        1 PMG      0.015367
     29 H2A3       32.3240   76.2240    2.7200 hc        1 PMG      0.015367
     30 HO3        35.0320   74.6880   -0.8940 ho        1 PMG      0.472000
     31 H4A1       33.4460   75.7060   -3.9330 h1        1 PMG      0.033700
     32 H4A2       34.8940   76.3330   -3.0340 h1        1 PMG      0.033700
     33 H6         30.4340   78.0540   -1.1120 h4        1 PMG      0.129100
     34 H5A1       32.0440   78.3280   -3.6420 h1        1 PMG      0.020700
     35 H5A2       31.7760   76.5860   -4.1690 h1        1 PMG      0.020700
     36 HN         33.8590   73.5910   -2.7420 hn        1 PMG      0.385800
     37 HB21       36.1580   74.2000   -5.8930 hc        1 PMG      0.020033
     38 HB22       34.4270   74.6170   -5.5700 hc        1 PMG      0.020033
     39 HB23       35.7470   75.7220   -4.9910 hc        1 PMG      0.020033
     40 HB11       37.6640   73.6300   -4.2010 hc        1 PMG      0.029200
     41 HB12       37.2430   75.0670   -3.1830 hc        1 PMG      0.029200
     42 HG1        36.8270   73.5900   -1.2290 hc        1 PMG      0.035200
     43 HG2        37.0950   72.1280   -2.2540 hc        1 PMG      0.035200
@<TRIPOS>BOND
     1    1    2 ar  
     2    1    9 ar  
     3    2    3 1   
     4    2    4 ar  
     5    3   27 1   
     6    3   28 1   
     7    3   29 1   
     8    4    5 1   
     9    4    6 ar  
    10    5   30 1   
    11    6    7 1   
    12    6    8 ar  
    13    7   16 1   
    14    7   31 1   
    15    7   32 1   
    16    8    9 ar  
    17    8   10 1   
    18    9   33 1   
    19   10   11 1   
    20   10   34 1   
    21   10   35 1   
    22   11   12 1   
    23   12   13 1   
    24   12   14 1   
    25   12   15 1   
    26   16   17 1   
    27   16   36 1   
    28   17   18 1   
    29   17   19 1   
    30   17   24 1   
    31   18   37 1   
    32   18   38 1   
    33   18   39 1   
    34   19   20 1   
    35   19   40 1   
    36   19   41 1   
    37   20   21 1   
    38   20   42 1   
    39   20   43 1   
    40   21   22 1   
    41   21   23 1   
    42   24   25 1   
    43   24   26 1   
@<TRIPOS>SUBSTRUCTURE
     1 PMG         1 TEMP              0 ****  ****    0 ROOT
