@<TRIPOS>MOLECULE
PMG
   44    44     1     0     0
SMALL
bcc


@<TRIPOS>ATOM
      1 N1         -0.2030    0.1670    0.6340 nb        1 PMG     -0.684000
      2 C2          0.9710   -0.5220    0.6420 ca        1 PMG      0.331600
      3 C2A         1.3980   -1.2840   -0.5690 c3        1 PMG     -0.125400
      4 C3          1.8150   -0.5580    1.7740 ca        1 PMG     -0.033200
      5 O3          3.0410   -1.1930    1.6610 oh        1 PMG     -0.561100
      6 C4          1.4400    0.1240    2.9540 ca        1 PMG     -0.141300
      7 C4A         2.2220    0.1170    4.2340 c3        1 PMG      0.179100
      8 C5          0.2460    0.8560    2.9280 ca        1 PMG     -0.161600
      9 C6         -0.5430    0.8310    1.7400 ca        1 PMG      0.393200
     10 C5A        -0.2850    1.6550    4.0980 c3        1 PMG      0.245700
     11 OP4        -0.9470    2.7870    3.7090 os        1 PMG     -0.557200
     12 P          -2.6770    2.7760    3.9100 p5        1 PMG      1.315900
     13 OP1        -3.0100    4.2300    4.0720 o         1 PMG     -0.920500
     14 OP2        -2.8380    1.9040    5.1260 o         1 PMG     -0.920500
     15 OP3        -3.0760    2.1350    2.6010 o         1 PMG     -0.920500
     16 N           3.3470   -0.8460    4.3000 ny        1 PMG     -0.764000
     17 CA          4.0300   -0.9850    5.6370 c3        1 PMG     -0.001800
     18 CB2         3.1770   -0.5050    6.8060 c3        1 PMG     -0.092100
     19 CB1         4.3890   -2.4660    5.8800 c3        1 PMG     -0.060400
     20 CG          5.1960   -3.1110    4.7750 c3        1 PMG     -0.208400
     21 CD          4.3620   -4.0010    3.8510 c         1 PMG      0.909600
     22 OE1         3.3060   -3.5250    3.3150 o         1 PMG     -0.859800
     23 OE2         4.7500   -5.1830    3.6320 o         1 PMG     -0.859800
     24 C           5.3900   -0.1600    5.6660 c         1 PMG      0.926600
     25 O           5.8190    0.3030    4.5770 o         1 PMG     -0.814800
     26 OXT         5.9480   -0.0500    6.7870 o         1 PMG     -0.814800
     27 H2A1        1.4790   -2.3700   -0.3100 hc        1 PMG      0.029033
     28 H2A2        2.4070   -0.9280   -0.8920 hc        1 PMG      0.029033
     29 H2A3        0.6830   -1.1680   -1.4170 hc        1 PMG      0.029033
     30 HO3         2.8810   -2.1510    1.7660 ho        1 PMG      0.453000
     31 H4A1        2.6380    1.1510    4.4180 hx        1 PMG      0.091700
     32 H4A2        1.4950   -0.1290    5.0650 hx        1 PMG      0.091700
     33 H6         -1.5370    1.3990    1.7790 h4        1 PMG      0.159100
     34 H5A1       -0.9660    0.9780    4.7020 h1        1 PMG      0.017200
     35 H5A2        0.5980    1.9520    4.7430 h1        1 PMG      0.017200
     36 HN          4.0750   -0.5450    3.6260 hn        1 PMG      0.479300
     37 HB21        2.2410   -1.1050    6.9080 hc        1 PMG      0.045700
     38 HB22        2.9170    0.5750    6.7030 hc        1 PMG      0.045700
     39 HB23        3.7890   -0.6220    7.7360 hc        1 PMG      0.045700
     40 HB11        3.4470   -3.0510    6.0510 hc        1 PMG      0.045700
     41 HB12        4.9840   -2.4770    6.8320 hc        1 PMG      0.045700
     42 HG1         5.7040   -2.3280    4.1530 hc        1 PMG      0.048700
     43 HG2         6.0000   -3.7440    5.2320 hc        1 PMG      0.048700
     44 H2          3.0180   -1.7880    3.9880 hn        1 PMG      0.479300
@<TRIPOS>BOND
     1    1    2 ar  
     2    1    9 ar  
     3    2    3 1   
     4    2    4 ar  
     5    3   27 1   
     6    3   28 1   
     7    3   29 1   
     8    4    5 1   
     9    4    6 ar  
    10    5   30 1   
    11    6    7 1   
    12    6    8 ar  
    13    7   16 1   
    14    7   31 1   
    15    7   32 1   
    16    8    9 ar  
    17    8   10 1   
    18    9   33 1   
    19   10   11 1   
    20   10   34 1   
    21   10   35 1   
    22   11   12 1   
    23   12   13 1   
    24   12   14 1   
    25   12   15 1   
    26   16   17 1   
    27   16   36 1   
    28   16   44 1   
    29   17   18 1   
    30   17   19 1   
    31   17   24 1   
    32   18   37 1   
    33   18   38 1   
    34   18   39 1   
    35   19   20 1   
    36   19   40 1   
    37   19   41 1   
    38   20   21 1   
    39   20   42 1   
    40   20   43 1   
    41   21   22 1   
    42   21   23 1   
    43   24   25 1   
    44   24   26 1   
@<TRIPOS>SUBSTRUCTURE
     1 PMG         1 TEMP              0 ****  ****    0 ROOT
