@<TRIPOS>MOLECULE
PMH
   34    35     1     0     0
SMALL
bcc


@<TRIPOS>ATOM
      1 N1          0.0530   -0.1020    0.2570 nb        1 PMH     -0.670000
      2 C2          1.3630   -0.4100    0.3670 ca        1 PMH      0.332600
      3 C2A         2.2100   -0.5450   -0.8550 c3        1 PMH     -0.119400
      4 C3          1.9890   -0.6110    1.6350 ca        1 PMH      0.043800
      5 O3          3.3290   -0.8800    1.5640 oh        1 PMH     -0.535100
      6 C4          1.2300   -0.5050    2.8170 ca        1 PMH     -0.134300
      7 C4A         1.7910   -0.6700    4.2060 c3        1 PMH      0.208100
      8 C5         -0.1310   -0.1680    2.6840 ca        1 PMH     -0.165600
      9 C6         -0.6580    0.0170    1.3890 ca        1 PMH      0.366200
     10 C5A        -1.0080    0.0090    3.8900 c3        1 PMH      0.220700
     11 O4P        -2.2120    0.6380    3.5850 os        1 PMH     -0.576200
     12 P          -3.6270   -0.1100    4.0140 p5        1 PMH      1.427800
     13 O1P        -3.2880   -1.2210    4.9300 o         1 PMH     -0.836000
     14 O2P        -4.6410    0.9370    4.2340 o         1 PMH     -0.836000
     15 O3P        -3.8920   -0.8780    2.5950 oh        1 PMH     -0.780400
     16 N           3.0420   -1.4070    4.2800 nu        1 PMH     -0.696600
     17 CA          3.9730   -0.9680    5.2260 cc        1 PMH     -0.259000
     18 C           4.8830   -1.9080    6.0220 cc        1 PMH      0.863300
     19 O           4.8020   -3.1670    5.9610 o         1 PMH     -0.858000
     20 ND          5.7290   -1.1070    6.7500 nd        1 PMH     -0.647300
     21 OG          5.4380    0.1810    6.5030 os        1 PMH     -0.193100
     22 CB          4.3830    0.2920    5.5820 cd        1 PMH      0.181600
     23 H2A1        3.0300    0.2150   -0.8180 hc        1 PMH      0.035367
     24 H2A2        1.6260   -0.4050   -1.7960 hc        1 PMH      0.035367
     25 H2A3        2.6800   -1.5600   -0.8640 hc        1 PMH      0.035367
     26 HO3         3.6690   -1.0460    2.4680 ho        1 PMH      0.472000
     27 H4A1        1.0000   -1.1720    4.8410 h1        1 PMH      0.050200
     28 H4A2        1.9390    0.3690    4.6250 h1        1 PMH      0.050200
     29 H6         -1.7260    0.2830    1.2620 h4        1 PMH      0.049100
     30 H5A1       -1.2020   -0.9970    4.3680 h1        1 PMH      0.048700
     31 H5A2       -0.4510    0.6630    4.6260 h1        1 PMH      0.048700
     32 HN          2.8830   -2.3920    4.4050 hn        1 PMH      0.398800
     33 HO         -3.5370   -1.7590    2.5990 ho        1 PMH      0.423000
     34 HB          4.0930    1.3040    5.3370 h4        1 PMH      0.013100
@<TRIPOS>BOND
     1    1    2 ar  
     2    1    9 ar  
     3    2    3 1   
     4    2    4 ar  
     5    3   23 1   
     6    3   24 1   
     7    3   25 1   
     8    4    5 1   
     9    4    6 ar  
    10    5   26 1   
    11    6    7 1   
    12    6    8 ar  
    13    7   16 1   
    14    7   27 1   
    15    7   28 1   
    16    8    9 ar  
    17    8   10 1   
    18    9   29 1   
    19   10   11 1   
    20   10   30 1   
    21   10   31 1   
    22   11   12 1   
    23   12   13 1   
    24   12   14 1   
    25   12   15 1   
    26   15   33 1   
    27   16   17 1   
    28   16   32 1   
    29   17   18 1   
    30   17   22 2   
    31   18   19 1   
    32   18   20 2   
    33   20   21 1   
    34   21   22 1   
    35   22   34 1   
@<TRIPOS>SUBSTRUCTURE
     1 PMH         1 TEMP              0 ****  ****    0 ROOT
