@<TRIPOS>MOLECULE
PMH
   35    36     1     0     0
SMALL
bcc


@<TRIPOS>ATOM
      1 N1         -0.2190   -0.0360    0.0650 nb        1 PMH     -0.652000
      2 C2          1.0860   -0.3900   -0.0660 ca        1 PMH      0.311600
      3 C2A         1.5940   -0.8160   -1.4040 c3        1 PMH     -0.142400
      4 C3          1.9640   -0.3760    1.0440 ca        1 PMH      0.001800
      5 O3          3.2970   -0.7240    0.9600 oh        1 PMH     -0.508100
      6 C4          1.5010    0.0340    2.3130 ca        1 PMH     -0.077300
      7 C4A         2.4560    0.0460    3.4740 c3        1 PMH      0.231100
      8 C5          0.1590    0.3980    2.4320 ca        1 PMH     -0.151600
      9 C6         -0.6540    0.3390    1.2730 ca        1 PMH      0.393200
     10 C5A        -0.4210    0.8740    3.7320 c3        1 PMH      0.217700
     11 O4P        -1.8000    0.7260    3.7780 os        1 PMH     -0.571200
     12 P          -2.4420   -0.2340    4.9760 p5        1 PMH      1.448800
     13 O1P        -3.7050    0.3840    5.3990 o         1 PMH     -0.841000
     14 O2P        -2.6930   -1.5750    4.0880 oh        1 PMH     -0.775400
     15 O3P        -1.3060   -0.6280    5.8470 o         1 PMH     -0.841000
     16 N           2.6810   -1.3000    3.9790 nh        1 PMH     -0.673600
     17 CA          2.7400   -1.4330    5.3640 cc        1 PMH     -0.168000
     18 C           3.9150   -1.8070    6.1800 cc        1 PMH      0.483600
     19 O           5.1450   -1.9970    5.6180 oh        1 PMH     -0.599300
     20 ND          3.5560   -1.9310    7.4790 nd        1 PMH     -0.462300
     21 OG          2.2630   -1.6550    7.5660 os        1 PMH     -0.117100
     22 CB          1.7160   -1.3610    6.3060 cd        1 PMH      0.290600
     23 H2A1        2.4690   -0.1820   -1.6950 hc        1 PMH      0.041367
     24 H2A2        1.9200   -1.8850   -1.3620 hc        1 PMH      0.041367
     25 H2A3        0.8130   -0.7200   -2.1970 hc        1 PMH      0.041367
     26 HO3         3.4420   -1.1390    0.0980 ho        1 PMH      0.413000
     27 H4A1        2.0490    0.7050    4.2920 h1        1 PMH      0.048200
     28 H4A2        3.4250    0.5090    3.1190 h1        1 PMH      0.048200
     29 H6         -1.7280    0.6000    1.3590 h4        1 PMH      0.057100
     30 H5A1       -0.1800    1.9770    3.8150 h1        1 PMH      0.048700
     31 H5A2        0.0630    0.3250    4.5930 h1        1 PMH      0.048700
     32 HN         -1.9750   -2.1940    4.1550 ho        1 PMH      0.429000
     33 HO          5.7570   -2.2870    6.3140 ho        1 PMH      0.428000
     34 HB          0.6350   -1.1370    6.2950 h4        1 PMH      0.161100
     35 H2          3.4680   -1.7310    3.5330 hn        1 PMH      0.393800
@<TRIPOS>BOND
     1    1    2 ar  
     2    1    9 ar  
     3    2    3 1   
     4    2    4 ar  
     5    3   23 1   
     6    3   24 1   
     7    3   25 1   
     8    4    5 1   
     9    4    6 ar  
    10    5   26 1   
    11    6    7 1   
    12    6    8 ar  
    13    7   16 1   
    14    7   27 1   
    15    7   28 1   
    16    8    9 ar  
    17    8   10 1   
    18    9   29 1   
    19   10   11 1   
    20   10   30 1   
    21   10   31 1   
    22   11   12 1   
    23   12   13 1   
    24   12   14 1   
    25   12   15 1   
    26   14   32 1   
    27   16   17 1   
    28   16   35 1   
    29   17   18 1   
    30   17   22 2   
    31   18   19 1   
    32   18   20 2   
    33   19   33 1   
    34   20   21 1   
    35   21   22 1   
    36   22   34 1   
@<TRIPOS>SUBSTRUCTURE
     1 PMH         1 TEMP              0 ****  ****    0 ROOT
