@<TRIPOS>MOLECULE
PMH
   34    35     1     0     0
SMALL
bcc


@<TRIPOS>ATOM
      1 N1          3.1600    0.5390    1.4840 nb        1 PMH     -0.670000
      2 C2          3.4070    0.5160    0.1570 ca        1 PMH      0.332600
      3 C2A         4.7840    0.7790   -0.3570 c3        1 PMH     -0.119400
      4 C3          2.3820    0.2390   -0.7980 ca        1 PMH      0.043800
      5 O3          2.8140    0.2210   -2.0970 oh        1 PMH     -0.535100
      6 C4          1.0640   -0.0050   -0.3630 ca        1 PMH     -0.134300
      7 C4A        -0.0870   -0.3330   -1.2780 c3        1 PMH      0.208100
      8 C5          0.8280    0.0070    1.0260 ca        1 PMH     -0.165600
      9 C6          1.9060    0.2850    1.8920 ca        1 PMH      0.366200
     10 C5A        -0.5350   -0.2840    1.5840 c3        1 PMH      0.220700
     11 O4P        -0.5070   -0.5350    2.9520 os        1 PMH     -0.576200
     12 P          -1.4860    0.3620    3.9430 p5        1 PMH      1.427800
     13 O1P        -2.4420    1.0960    3.0840 o         1 PMH     -0.836000
     14 O2P        -1.8100   -0.4600    5.1220 o         1 PMH     -0.836000
     15 O3P        -0.3890    1.5120    4.3280 oh        1 PMH     -0.780400
     16 N           0.0950    0.0700   -2.6630 nh        1 PMH     -0.696600
     17 CA         -0.4150   -0.7920   -3.6390 cc        1 PMH     -0.259000
     18 C          -1.0510   -0.3120   -4.9470 cc        1 PMH      0.863300
     19 O          -1.2540    0.9060   -5.2140 o         1 PMH     -0.858000
     20 ND         -1.3170   -1.4390   -5.6870 nd        1 PMH     -0.647300
     21 OG         -0.9360   -2.5230   -4.9920 os        1 PMH     -0.193100
     22 CB         -0.3850   -2.1590   -3.7520 cd        1 PMH      0.181600
     23 H2A1        5.5050    1.0190    0.4590 hc        1 PMH      0.035367
     24 H2A2        5.1450   -0.1230   -0.9110 hc        1 PMH      0.035367
     25 H2A3        4.7480    1.6340   -1.0770 hc        1 PMH      0.035367
     26 HO3         2.0460    0.0670   -2.6860 ho        1 PMH      0.472000
     27 H4A1       -0.2370   -1.4520   -1.2270 h1        1 PMH      0.050200
     28 H4A2       -1.0180    0.1440   -0.8480 h1        1 PMH      0.050200
     29 H6          1.7430    0.2990    2.9870 h4        1 PMH      0.049100
     30 H5A1       -1.2280    0.5800    1.3580 h1        1 PMH      0.048700
     31 H5A2       -0.9250   -1.2120    1.0680 h1        1 PMH      0.048700
     32 HN         -0.2550    0.9980   -2.8270 hn        1 PMH      0.398800
     33 HO         -0.4470    2.2630    3.7490 ho        1 PMH      0.423000
     34 HB         -0.0570   -2.9840   -3.1360 h4        1 PMH      0.013100
@<TRIPOS>BOND
     1    1    2 ar  
     2    1    9 ar  
     3    2    3 1   
     4    2    4 ar  
     5    3   23 1   
     6    3   24 1   
     7    3   25 1   
     8    4    5 1   
     9    4    6 ar  
    10    5   26 1   
    11    6    7 1   
    12    6    8 ar  
    13    7   16 1   
    14    7   27 1   
    15    7   28 1   
    16    8    9 ar  
    17    8   10 1   
    18    9   29 1   
    19   10   11 1   
    20   10   30 1   
    21   10   31 1   
    22   11   12 1   
    23   12   13 1   
    24   12   14 1   
    25   12   15 1   
    26   15   33 1   
    27   16   17 1   
    28   16   32 1   
    29   17   18 1   
    30   17   22 2   
    31   18   19 1   
    32   18   20 2   
    33   20   21 1   
    34   21   22 1   
    35   22   34 1   
@<TRIPOS>SUBSTRUCTURE
     1 PMH         1 TEMP              0 ****  ****    0 ROOT
