@<TRIPOS>MOLECULE
PMI
   25    25     1     0     0
SMALL
bcc


@<TRIPOS>ATOM
      1 O14        -0.2880    1.0610    0.8820 o         1 PMI     -1.165333
      2 P10         0.7970    1.1150   -0.1420 p3        1 PMI      2.506000
      3 O12         1.7160    2.2790    0.0250 o         1 PMI     -1.165333
      4 O13         0.6880    0.3940   -1.4190 o         1 PMI     -1.165333
      5 C8'         2.2190   -0.2160    1.2930 c2        1 PMI     -0.556000
      6 C9'         1.7360   -1.5940    1.7630 c3        1 PMI     -0.086000
      7 C2'         2.9760   -2.3760    2.0620 ca        1 PMI     -0.075000
      8 N11         1.9850    0.8520    2.2610 nz        1 PMI     -0.046000
      9 C7'         3.6960   -0.4030    0.9240 c3        1 PMI     -0.086000
     10 C1'         4.1150   -1.6840    1.5750 ca        1 PMI     -0.075000
     11 C6'         5.3810   -2.2210    1.7300 ca        1 PMI     -0.137000
     12 C5'         5.5190   -3.4570    2.3780 ca        1 PMI     -0.150000
     13 C4'         4.4030   -4.1360    2.8560 ca        1 PMI     -0.150000
     14 C3'         3.1170   -3.5970    2.6980 ca        1 PMI     -0.137000
     15 H9'1        1.1790   -2.0890    0.9230 hc        1 PMI      0.092500
     16 H9'2        1.0490   -1.5540    2.6440 hc        1 PMI      0.092500
     17 H111        0.9520    0.9130    2.3810 hn        1 PMI      0.219333
     18 H112        2.4410    0.7350    3.1620 hn        1 PMI      0.219333
     19 H7'1        4.3490    0.4510    1.2320 hc        1 PMI      0.092500
     20 H7'2        3.7810   -0.5080   -0.1900 hc        1 PMI      0.092500
     21 H6'         6.2660   -1.6940    1.3500 ha        1 PMI      0.121000
     22 H5'         6.5200   -3.8920    2.5060 ha        1 PMI      0.110000
     23 H4'         4.5240   -5.1040    3.3600 ha        1 PMI      0.110000
     24 H3'         2.2400   -4.1400    3.0730 ha        1 PMI      0.121000
     25 H113        2.3000    1.7330    1.8040 hn        1 PMI      0.219333
@<TRIPOS>BOND
     1    1    2 1   
     2    2    3 1   
     3    2    4 1   
     4    5    6 1   
     5    5    8 1   
     6    5    9 1   
     7    6    7 1   
     8    6   15 1   
     9    6   16 1   
    10    7   10 1   
    11    7   14 1   
    12    8   17 1   
    13    8   18 1   
    14    8   25 1   
    15    9   10 1   
    16    9   19 1   
    17    9   20 1   
    18   10   11 1   
    19   11   12 1   
    20   11   21 1   
    21   12   13 1   
    22   12   22 1   
    23   13   14 1   
    24   13   23 1   
    25   14   24 1   
@<TRIPOS>SUBSTRUCTURE
     1 PMI         1 TEMP              0 ****  ****    0 ROOT
