@<TRIPOS>MOLECULE
PMI
   25    25     1     0     0
SMALL
bcc


@<TRIPOS>ATOM
      1 O14        -0.2890    1.0650    0.8990 o         1 PMI     -1.165333
      2 P10         0.7960    1.1290   -0.1230 p3        1 PMI      2.506000
      3 O12         1.7140    2.2910    0.0530 o         1 PMI     -1.165333
      4 O13         0.6880    0.4190   -1.4070 o         1 PMI     -1.165333
      5 C8'         2.2190   -0.2140    1.3010 c2        1 PMI     -0.556000
      6 C9'         1.7360   -1.5960    1.7580 c3        1 PMI     -0.086000
      7 C2'         2.9770   -2.3790    2.0520 ca        1 PMI     -0.075000
      8 N11         1.9830    0.8460    2.2780 n4        1 PMI     -0.046000
      9 C7'         3.6960   -0.3970    0.9310 c3        1 PMI     -0.086000
     10 C1'         4.1150   -1.6820    1.5710 ca        1 PMI     -0.075000
     11 C6'         5.3820   -2.2200    1.7220 ca        1 PMI     -0.137000
     12 C5'         5.5200   -3.4620    2.3600 ca        1 PMI     -0.150000
     13 C4'         4.4040   -4.1450    2.8310 ca        1 PMI     -0.150000
     14 C3'         3.1190   -3.6050    2.6780 ca        1 PMI     -0.137000
     15 H9'1        1.1800   -2.0840    0.9150 hc        1 PMI      0.092500
     16 H9'2        1.0490   -1.5640    2.6400 hc        1 PMI      0.092500
     17 H111        2.2980    1.7310    1.8290 hn        1 PMI      0.219333
     18 H112        0.9500    0.9060    2.3980 hn        1 PMI      0.219333
     19 H7'1        4.3480    0.4550    1.2470 hc        1 PMI      0.092500
     20 H7'2        3.7820   -0.4920   -0.1840 hc        1 PMI      0.092500
     21 H6'         6.2670   -1.6890    1.3470 ha        1 PMI      0.121000
     22 H5'         6.5220   -3.8960    2.4840 ha        1 PMI      0.110000
     23 H4'         4.5260   -5.1180    3.3270 ha        1 PMI      0.110000
     24 H3'         2.2410   -4.1530    3.0470 ha        1 PMI      0.121000
     25 H113        2.4390    0.7220    3.1780 hn        1 PMI      0.219333
@<TRIPOS>BOND
     1    1    2 1   
     2    2    3 1   
     3    2    4 1   
     4    5    6 1   
     5    5    8 1   
     6    5    9 1   
     7    6    7 1   
     8    6   15 1   
     9    6   16 1   
    10    7   10 1   
    11    7   14 1   
    12    8   17 1   
    13    8   18 1   
    14    8   25 1   
    15    9   10 1   
    16    9   19 1   
    17    9   20 1   
    18   10   11 1   
    19   11   12 1   
    20   11   21 1   
    21   12   13 1   
    22   12   22 1   
    23   13   14 1   
    24   13   23 1   
    25   14   24 1   
@<TRIPOS>SUBSTRUCTURE
     1 PMI         1 TEMP              0 ****  ****    0 ROOT
