@<TRIPOS>MOLECULE
PMI
   24    25     1     0     0
SMALL
bcc


@<TRIPOS>ATOM
      1 O14         0.4820   -7.7170   -1.6190 o         1 PMI     -0.931500
      2 P10         1.0860   -6.7670   -0.6090 p5        1 PMI      1.197700
      3 O12         0.1010   -6.2680    0.4230 o         1 PMI     -0.931500
      4 O13         2.4250   -7.1630   -0.0410 o         1 PMI     -0.931500
      5 C8'         1.4550   -5.2500   -1.6550 c3        1 PMI     -0.002000
      6 C9'         0.2170   -4.3400   -1.5700 c3        1 PMI     -0.038100
      7 C2'         0.7180   -3.0040   -1.1350 ca        1 PMI     -0.033300
      8 N11         1.8320   -5.7040   -2.9640 n3        1 PMI     -0.884800
      9 C7'         2.5790   -4.4950   -0.9260 c3        1 PMI     -0.038100
     10 C1'         2.0860   -3.0970   -0.7460 ca        1 PMI     -0.033300
     11 C6'         2.7560   -1.9720   -0.2960 ca        1 PMI     -0.163500
     12 C5'         2.0780   -0.7450   -0.2320 ca        1 PMI     -0.172500
     13 C4'         0.7460   -0.6550   -0.6150 ca        1 PMI     -0.172500
     14 C3'         0.0560   -1.7900   -1.0690 ca        1 PMI     -0.163500
     15 H9'1       -0.4720   -4.7670   -0.7770 hc        1 PMI      0.070700
     16 H9'2       -0.3500   -4.2530   -2.5320 hc        1 PMI      0.070700
     17 H111        1.4560   -5.1000   -3.6740 hn        1 PMI      0.322800
     18 H112        1.4380   -6.6260   -3.0990 hn        1 PMI      0.322800
     19 H7'1        3.5510   -4.4950   -1.4810 hc        1 PMI      0.070700
     20 H7'2        2.7520   -5.0020    0.0650 hc        1 PMI      0.070700
     21 H6'         3.8080   -2.0350    0.0120 ha        1 PMI      0.104000
     22 H5'         2.6080    0.1480    0.1250 ha        1 PMI      0.082500
     23 H4'         0.2230    0.3090   -0.5600 ha        1 PMI      0.082500
     24 H3'        -0.9990   -1.7120   -1.3610 ha        1 PMI      0.104000
@<TRIPOS>BOND
     1    1    2 1   
     2    2    3 1   
     3    2    4 1   
     4    2    5 1   
     5    5    6 1   
     6    5    8 1   
     7    5    9 1   
     8    6    7 1   
     9    6   15 1   
    10    6   16 1   
    11    7   10 ar  
    12    7   14 ar  
    13    8   17 1   
    14    8   18 1   
    15    9   10 1   
    16    9   19 1   
    17    9   20 1   
    18   10   11 ar  
    19   11   12 ar  
    20   11   21 1   
    21   12   13 ar  
    22   12   22 1   
    23   13   14 ar  
    24   13   23 1   
    25   14   24 1   
@<TRIPOS>SUBSTRUCTURE
     1 PMI         1 TEMP              0 ****  ****    0 ROOT
