@<TRIPOS>MOLECULE
PMI
   25    25     1     0     0
SMALL
bcc


@<TRIPOS>ATOM
      1 O14        -0.2590    1.1150    0.9190 o         1 PMI     -1.165333
      2 P10         0.8210    1.1620   -0.1100 p3        1 PMI      2.506000
      3 O12         1.7580    2.3110    0.0620 o         1 PMI     -1.165333
      4 O13         0.6950    0.4550   -1.3930 o         1 PMI     -1.165333
      5 C8'         2.2320   -0.2030    1.3060 c2        1 PMI     -0.556000
      6 C9'         1.7300   -1.5780    1.7650 c3        1 PMI     -0.086000
      7 C2'         2.9610   -2.3800    2.0510 ca        1 PMI     -0.075000
      8 N11         2.0180    0.8600    2.2840 n4        1 PMI     -0.046000
      9 C7'         3.7040   -0.4080    0.9260 c3        1 PMI     -0.086000
     10 C1'         4.1070   -1.7000    1.5640 ca        1 PMI     -0.075000
     11 C6'         5.3660   -2.2580    1.7070 ca        1 PMI     -0.137000
     12 C5'         5.4890   -3.5010    2.3440 ca        1 PMI     -0.150000
     13 C4'         4.3650   -4.1670    2.8210 ca        1 PMI     -0.150000
     14 C3'         3.0870   -3.6080    2.6760 ca        1 PMI     -0.137000
     15 H9'1        1.1620   -2.0560    0.9250 hc        1 PMI      0.092500
     16 H9'2        1.0490   -1.5350    2.6510 hc        1 PMI      0.092500
     17 H111        0.9870    0.9360    2.4100 hn        1 PMI      0.219333
     18 H112        2.3440    1.7400    1.8330 hn        1 PMI      0.219333
     19 H7'1        4.3710    0.4330    1.2390 hc        1 PMI      0.092500
     20 H7'2        3.7810   -0.5040   -0.1890 hc        1 PMI      0.092500
     21 H6'         6.2570   -1.7400    1.3280 ha        1 PMI      0.121000
     22 H5'         6.4840   -3.9520    2.4620 ha        1 PMI      0.110000
     23 H4'         4.4750   -5.1420    3.3160 ha        1 PMI      0.110000
     24 H3'         2.2040   -4.1420    3.0500 ha        1 PMI      0.121000
     25 H113        2.4770    0.7290    3.1810 hn        1 PMI      0.219333
@<TRIPOS>BOND
     1    1    2 1   
     2    2    3 1   
     3    2    4 1   
     4    5    6 1   
     5    5    8 1   
     6    5    9 1   
     7    6    7 1   
     8    6   15 1   
     9    6   16 1   
    10    7   10 1   
    11    7   14 1   
    12    8   17 1   
    13    8   18 1   
    14    8   25 1   
    15    9   10 1   
    16    9   19 1   
    17    9   20 1   
    18   10   11 1   
    19   11   12 1   
    20   11   21 1   
    21   12   13 1   
    22   12   22 1   
    23   13   14 1   
    24   13   23 1   
    25   14   24 1   
@<TRIPOS>SUBSTRUCTURE
     1 PMI         1 TEMP              0 ****  ****    0 ROOT
