@<TRIPOS>MOLECULE
PMJ
   68    69     1     0     0
SMALL
bcc


@<TRIPOS>ATOM
      1 C7          3.7260    1.1700    0.0920 c3        1 PMJ     -0.250300
      2 S8          2.4290    1.1720   -1.0580 s6        1 PMJ      1.448900
      3 C4          3.9380    2.4930    0.7280 ca        1 PMJ     -0.080300
      4 C5          5.1100    3.2170    0.4790 ca        1 PMJ     -0.112500
      5 C6          5.3190    4.4470    1.1030 ca        1 PMJ     -0.126500
      6 C1          4.3630    4.9580    1.9800 ca        1 PMJ     -0.119000
      7 C2          3.1940    4.2390    2.2310 ca        1 PMJ     -0.126500
      8 C3          2.9810    3.0100    1.6110 ca        1 PMJ     -0.112500
      9 O10         2.7800    1.9680   -2.1610 o         1 PMJ     -0.644800
     10 O9          1.2270    1.4600   -0.3730 o         1 PMJ     -0.644800
     11 N11         2.4060   -0.3810   -1.5260 n3        1 PMJ     -0.917100
     12 C12         1.7160   -1.4270   -0.8220 c3        1 PMJ      0.180500
     13 C30         2.4930   -2.7480   -0.7460 c3        1 PMJ     -0.084400
     14 C31         3.7310   -2.6190    0.1120 c3        1 PMJ     -0.093400
     15 C32         4.4400   -3.9710    0.1970 c3        1 PMJ      0.170800
     16 N33         5.6040   -3.9510    1.0650 nh        1 PMJ     -0.792200
     17 C34         6.6080   -4.9490    0.7670 c2        1 PMJ      0.742100
     18 N35         6.1350   -6.2940    0.6630 nh        1 PMJ     -0.930800
     19 N37         7.8500   -4.5660    0.6020 n2        1 PMJ     -0.874100
     20 C13         0.3310   -1.7220   -1.4620 c         1 PMJ      0.631100
     21 O14         0.1130   -2.7930   -2.0580 o         1 PMJ     -0.598100
     22 N15        -0.6060   -0.7070   -1.3900 n         1 PMJ     -0.533900
     23 C16        -1.9700   -0.9330   -1.7660 c3        1 PMJ      0.011000
     24 C17        -2.9220   -1.1600   -0.5780 c         1 PMJ      0.624100
     25 O18        -2.5760   -0.9450    0.6000 o         1 PMJ     -0.610100
     26 N19        -4.1790   -1.6480   -0.8870 n         1 PMJ     -0.553900
     27 C20        -5.2140   -1.7680    0.1050 c3        1 PMJ      0.128300
     28 C21        -6.1270   -0.5780    0.2090 ca        1 PMJ     -0.115300
     29 C26        -7.4650   -0.6740   -0.1820 ca        1 PMJ     -0.125000
     30 C25        -8.3140    0.4250   -0.0570 ca        1 PMJ     -0.102000
     31 C24        -7.8220    1.6290    0.4580 ca        1 PMJ     -0.136900
     32 C27        -8.7260    2.8160    0.5890 ce        1 PMJ      0.648800
     33 N28        -8.3480    3.9420    0.0650 n2        1 PMJ     -0.823100
     34 N29        -9.9560    2.5380    1.2280 nh        1 PMJ     -0.957800
     35 C23        -6.4800    1.7330    0.8410 ca        1 PMJ     -0.102000
     36 C22        -5.6390    0.6290    0.7210 ca        1 PMJ     -0.125000
     37 H7          4.6850    0.8420   -0.3950 h1        1 PMJ      0.112700
     38 H7A         3.5370    0.4190    0.9080 h1        1 PMJ      0.112700
     39 H5          5.8670    2.8200   -0.2130 ha        1 PMJ      0.143000
     40 H6          6.2400    5.0120    0.8990 ha        1 PMJ      0.136000
     41 H1          4.5300    5.9280    2.4710 ha        1 PMJ      0.134000
     42 H2          2.4360    4.6420    2.9190 ha        1 PMJ      0.136000
     43 H3          2.0490    2.4520    1.7970 ha        1 PMJ      0.143000
     44 HN11        2.8170   -0.6780   -2.3800 hn        1 PMJ      0.459800
     45 H12         1.5280   -1.0700    0.2390 h1        1 PMJ      0.074700
     46 H30         1.8040   -3.5230   -0.3130 hc        1 PMJ      0.073200
     47 H30A        2.7620   -3.0940   -1.7790 hc        1 PMJ      0.073200
     48 H31         4.4250   -1.8510   -0.3220 hc        1 PMJ      0.046700
     49 H31A        3.4460   -2.2700    1.1400 hc        1 PMJ      0.046700
     50 H32         3.7200   -4.7290    0.6220 h1        1 PMJ      0.047700
     51 H32A        4.6970   -4.3030   -0.8510 h1        1 PMJ      0.047700
     52 HN33        6.0130   -3.0350    1.1190 hn        1 PMJ      0.401800
     53 HN35        5.2290   -6.4580    1.0440 hn        1 PMJ      0.393800
     54 HN3A        6.8000   -6.9750    0.9600 hn        1 PMJ      0.393800
     55 HN37        8.5220   -5.2940    0.5040 hn        1 PMJ      0.393400
     56 HN15       -0.4540    0.0320   -0.7300 hn        1 PMJ      0.346500
     57 H16        -2.3360   -0.0160   -2.3130 h1        1 PMJ      0.088200
     58 H16A       -2.0190   -1.8210   -2.4620 h1        1 PMJ      0.088200
     59 HN19       -4.4720   -1.6200   -1.8350 hn        1 PMJ      0.307500
     60 H20        -5.8200   -2.6850   -0.1490 h1        1 PMJ      0.071700
     61 H20A       -4.7250   -1.9330    1.1110 h1        1 PMJ      0.071700
     62 H26        -7.8550   -1.6180   -0.5900 ha        1 PMJ      0.144500
     63 H25        -9.3640    0.3460   -0.3760 ha        1 PMJ      0.147500
     64 HN28       -8.9710    4.7150    0.1700 hn        1 PMJ      0.383400
     65 HN29       -9.9660    1.7220    1.7940 hn        1 PMJ      0.398300
     66 HN2A      -10.4390    3.3120    1.6210 hn        1 PMJ      0.398300
     67 H23        -6.0880    2.6860    1.2260 ha        1 PMJ      0.147500
     68 H22        -4.5810    0.6980    1.0280 ha        1 PMJ      0.144500
@<TRIPOS>BOND
     1    1    2 1   
     2    1    3 1   
     3    1   37 1   
     4    1   38 1   
     5    2    9 2   
     6    2   10 2   
     7    2   11 1   
     8    3    4 ar  
     9    3    8 ar  
    10    4    5 ar  
    11    4   39 1   
    12    5    6 ar  
    13    5   40 1   
    14    6    7 ar  
    15    6   41 1   
    16    7    8 ar  
    17    7   42 1   
    18    8   43 1   
    19   11   12 1   
    20   11   44 1   
    21   12   13 1   
    22   12   20 1   
    23   12   45 1   
    24   13   14 1   
    25   13   46 1   
    26   13   47 1   
    27   14   15 1   
    28   14   48 1   
    29   14   49 1   
    30   15   16 1   
    31   15   50 1   
    32   15   51 1   
    33   16   17 1   
    34   16   52 1   
    35   17   18 1   
    36   17   19 2   
    37   18   53 1   
    38   18   54 1   
    39   19   55 1   
    40   20   21 2   
    41   20   22 1   
    42   22   23 1   
    43   22   56 1   
    44   23   24 1   
    45   23   57 1   
    46   23   58 1   
    47   24   25 2   
    48   24   26 1   
    49   26   27 1   
    50   26   59 1   
    51   27   28 1   
    52   27   60 1   
    53   27   61 1   
    54   28   29 ar  
    55   28   36 ar  
    56   29   30 ar  
    57   29   62 1   
    58   30   31 ar  
    59   30   63 1   
    60   31   32 1   
    61   31   35 ar  
    62   32   33 2   
    63   32   34 1   
    64   33   64 1   
    65   34   65 1   
    66   34   66 1   
    67   35   36 ar  
    68   35   67 1   
    69   36   68 1   
@<TRIPOS>SUBSTRUCTURE
     1 PMJ         1 TEMP              0 ****  ****    0 ROOT
