@<TRIPOS>MOLECULE
PML
   21    20     1     0     0
SMALL
bcc


@<TRIPOS>ATOM
      1 C1         -0.0690    0.0000    0.0890 c         1 PML      0.903600
      2 O11         1.1900    0.0000    0.2080 o         1 PML     -0.868800
      3 O12        -0.8500    0.0000    1.0920 o         1 PML     -0.868800
      4 C2         -0.7190   -0.0000   -1.3000 c3        1 PML     -0.182400
      5 C3          0.2620   -0.0000   -2.4490 c3        1 PML     -0.061400
      6 C4         -0.4530   -0.0000   -3.7850 c3        1 PML     -0.080400
      7 C5          0.4920   -0.0000   -4.9700 c3        1 PML     -0.061400
      8 C6         -0.2650   -0.0000   -6.2770 c3        1 PML     -0.182400
      9 C7          0.6260    0.0000   -7.5250 c         1 PML      0.903600
     10 O71         1.8860    0.0000   -7.4140 o         1 PML     -0.868800
     11 O72         0.0400    0.0000   -8.6530 o         1 PML     -0.868800
     12 HC21       -1.3810    0.9020   -1.3670 hc        1 PML      0.014700
     13 HC22       -1.3810   -0.9020   -1.3670 hc        1 PML      0.014700
     14 HC31        0.9270   -0.8980   -2.3690 hc        1 PML      0.038700
     15 HC32        0.9270    0.8980   -2.3690 hc        1 PML      0.038700
     16 HC41       -1.1210   -0.9010   -3.8460 hc        1 PML      0.011700
     17 HC42       -1.1210    0.9010   -3.8460 hc        1 PML      0.011700
     18 HC51        1.1610    0.8980   -4.9280 hc        1 PML      0.038700
     19 HC52        1.1610   -0.8980   -4.9280 hc        1 PML      0.038700
     20 HC61       -0.9280   -0.9020   -6.3310 hc        1 PML      0.014700
     21 HC62       -0.9280    0.9020   -6.3310 hc        1 PML      0.014700
@<TRIPOS>BOND
     1    1    2 1   
     2    1    3 1   
     3    1    4 1   
     4    4    5 1   
     5    4   12 1   
     6    4   13 1   
     7    5    6 1   
     8    5   14 1   
     9    5   15 1   
    10    6    7 1   
    11    6   16 1   
    12    6   17 1   
    13    7    8 1   
    14    7   18 1   
    15    7   19 1   
    16    8    9 1   
    17    8   20 1   
    18    8   21 1   
    19    9   10 1   
    20    9   11 1   
@<TRIPOS>SUBSTRUCTURE
     1 PML         1 TEMP              0 ****  ****    0 ROOT
