@<TRIPOS>MOLECULE
PML
   21    20     1     0     0
SMALL
bcc


@<TRIPOS>ATOM
      1 C1          0.0950    0.4780    3.7690 c         1 PML      0.904600
      2 O11         0.8080    1.5230    3.8390 o         1 PML     -0.867800
      3 O12        -0.0090   -0.3450    4.7290 o         1 PML     -0.867800
      4 C2         -0.7200    0.2120    2.4970 c3        1 PML     -0.183400
      5 C3          0.1370    0.1390    1.2540 c3        1 PML     -0.063400
      6 C4         -0.7090   -0.0000    0.0030 c3        1 PML     -0.079400
      7 C5          0.1180   -0.1390   -1.2590 c3        1 PML     -0.063400
      8 C6         -0.7570   -0.2120   -2.4900 c3        1 PML     -0.183400
      9 C7          0.0380   -0.4780   -3.7740 c         1 PML      0.904600
     10 O71         0.7520   -1.5220   -3.8550 o         1 PML     -0.867800
     11 O72        -0.0800    0.3450   -4.7320 o         1 PML     -0.867800
     12 HC21       -1.2900   -0.7440    2.6220 hc        1 PML      0.014200
     13 HC22       -1.4660    1.0410    2.3890 hc        1 PML      0.014200
     14 HC31        0.7670    1.0650    1.1900 hc        1 PML      0.037200
     15 HC32        0.8370   -0.7330    1.3310 hc        1 PML      0.037200
     16 HC41       -1.3770   -0.8960    0.1070 hc        1 PML      0.014700
     17 HC42       -1.3790    0.8950   -0.0900 hc        1 PML      0.014700
     18 HC51        0.8160    0.7330   -1.3470 hc        1 PML      0.037200
     19 HC52        0.7500   -1.0640   -1.2050 hc        1 PML      0.037200
     20 HC61       -1.5010   -1.0420   -2.3710 hc        1 PML      0.014200
     21 HC62       -1.3290    0.7440   -2.6060 hc        1 PML      0.014200
@<TRIPOS>BOND
     1    1    2 1   
     2    1    3 1   
     3    1    4 1   
     4    4    5 1   
     5    4   12 1   
     6    4   13 1   
     7    5    6 1   
     8    5   14 1   
     9    5   15 1   
    10    6    7 1   
    11    6   16 1   
    12    6   17 1   
    13    7    8 1   
    14    7   18 1   
    15    7   19 1   
    16    8    9 1   
    17    8   20 1   
    18    8   21 1   
    19    9   10 1   
    20    9   11 1   
@<TRIPOS>SUBSTRUCTURE
     1 PML         1 TEMP              0 ****  ****    0 ROOT
