@<TRIPOS>MOLECULE
PML
   21    20     1     0     0
SMALL
bcc


@<TRIPOS>ATOM
      1 C1         -0.0560   -0.1830    0.0650 c         1 PML      0.904600
      2 O11         0.6460   -1.2140    0.2880 o         1 PML     -0.868300
      3 O12        -0.2560    0.7100    0.9440 o         1 PML     -0.868300
      4 C2         -0.7360   -0.0190   -1.3000 c3        1 PML     -0.183400
      5 C3          0.2430   -0.0400   -2.4510 c3        1 PML     -0.063400
      6 C4         -0.4710   -0.0010   -3.7880 c3        1 PML     -0.079400
      7 C5          0.4800    0.0420   -4.9670 c3        1 PML     -0.063400
      8 C6         -0.2650    0.0170   -6.2820 c3        1 PML     -0.183400
      9 C7          0.6580    0.1850   -7.4950 c         1 PML      0.904600
     10 O71         1.3830    1.2200   -7.5830 o         1 PML     -0.868300
     11 O72         0.6310   -0.7090   -8.3960 o         1 PML     -0.868300
     12 HC21       -1.3120    0.9410   -1.3080 hc        1 PML      0.014200
     13 HC22       -1.4700   -0.8580   -1.4180 hc        1 PML      0.014200
     14 HC31        0.8730   -0.9650   -2.3790 hc        1 PML      0.037200
     15 HC32        0.9350    0.8390   -2.3710 hc        1 PML      0.037200
     16 HC41       -1.1320   -0.9040   -3.8790 hc        1 PML      0.014700
     17 HC42       -1.1430    0.8970   -3.8230 hc        1 PML      0.014700
     18 HC51        1.1080    0.9710   -4.9210 hc        1 PML      0.037200
     19 HC52        1.1800   -0.8320   -4.9160 hc        1 PML      0.037200
     20 HC61       -0.8260   -0.9470   -6.3820 hc        1 PML      0.014200
     21 HC62       -1.0130    0.8510   -6.3040 hc        1 PML      0.014200
@<TRIPOS>BOND
     1    1    2 1   
     2    1    3 1   
     3    1    4 1   
     4    4    5 1   
     5    4   12 1   
     6    4   13 1   
     7    5    6 1   
     8    5   14 1   
     9    5   15 1   
    10    6    7 1   
    11    6   16 1   
    12    6   17 1   
    13    7    8 1   
    14    7   18 1   
    15    7   19 1   
    16    8    9 1   
    17    8   20 1   
    18    8   21 1   
    19    9   10 1   
    20    9   11 1   
@<TRIPOS>SUBSTRUCTURE
     1 PML         1 TEMP              0 ****  ****    0 ROOT
