@<TRIPOS>MOLECULE
PMM
   24    25     1     0     0
SMALL
bcc


@<TRIPOS>ATOM
      1 N5         -1.1250   -0.4790    0.7280 ne        1 PMM     -0.549300
      2 C6         -0.4260    0.0070   -0.2990 ce        1 PMM     -0.030700
      3 C7          0.8390    0.7170   -0.1320 c1        1 PMM      0.013500
      4 N8          1.3590    0.9080    1.0650 nf        1 PMM     -0.608700
      5 N1          1.1880    0.6190    3.4530 nc        1 PMM     -0.700000
      6 C2          0.5170    0.1440    4.4930 cc        1 PMM      0.382900
      7 N2          1.0510    0.2860    5.8380 nh        1 PMM     -0.459100
      8 N3         -0.7200   -0.5210    4.4050 n         1 PMM     -0.502400
      9 C4         -1.3190   -0.7700    3.1510 c         1 PMM      0.638200
     10 O4         -2.4090   -1.3790    3.1900 o         1 PMM     -0.678500
     11 C4A        -0.5900   -0.2690    1.9780 cd        1 PMM      0.135000
     12 C8A         0.6610    0.4190    2.1620 cd        1 PMM      0.517000
     13 C9         -0.9660   -0.1210   -1.7110 c3        1 PMM      0.249600
     14 O10        -0.1480   -0.9170   -2.5060 os        1 PMM     -0.577200
     15 PA          0.5400   -0.2040   -3.8380 p5        1 PMM      1.438800
     16 O1P         1.8070    0.4860   -3.1060 oh        1 PMM     -0.815400
     17 O2P         1.0100   -1.2850   -4.7340 o         1 PMM     -0.858000
     18 O3P        -0.3970    0.8530   -4.2910 o         1 PMM     -0.858000
     19 H7          1.6690    0.7030   -2.1780 ho        1 PMM      0.479000
     20 HN21        2.0510    0.3530    5.7990 hn        1 PMM      0.206200
     21 HN22        0.6850    1.1290    6.2400 hn        1 PMM      0.206200
     22 HN3        -1.1450   -0.8980    5.2190 hn        1 PMM      0.307500
     23 H91        -1.9950   -0.5870   -1.6950 h1        1 PMM      0.031200
     24 H92        -1.0400    0.9190   -2.1430 h1        1 PMM      0.031200
@<TRIPOS>BOND
     1    1    2 1   
     2    1   11 2   
     3    2    3 2   
     4    2   13 1   
     5    3    4 2   
     6    4   12 1   
     7    5    6 1   
     8    5   12 2   
     9    6    7 2   
    10    6    8 1   
    11    7   20 1   
    12    7   21 1   
    13    8    9 1   
    14    8   22 1   
    15    9   10 2   
    16    9   11 1   
    17   11   12 1   
    18   13   14 1   
    19   13   23 1   
    20   13   24 1   
    21   14   15 1   
    22   15   16 1   
    23   15   17 1   
    24   15   18 1   
    25   16   19 1   
@<TRIPOS>SUBSTRUCTURE
     1 PMM         1 TEMP              0 ****  ****    0 ROOT
