@<TRIPOS>MOLECULE
PMM
   24    25     1     0     0
SMALL
bcc


@<TRIPOS>ATOM
      1 N5         -0.1910   -0.3700   -0.1980 ne        1 PMM     -0.549300
      2 C6          1.0770    0.0300   -0.3150 ce        1 PMM     -0.030700
      3 C7          1.8310    0.6100    0.7920 c1        1 PMM      0.013500
      4 N8          1.2830    0.7630    1.9830 nf        1 PMM     -0.608700
      5 N1         -0.6510    0.5250    3.4030 nc        1 PMM     -0.700000
      6 C2         -1.9090    0.1340    3.5510 cc        1 PMM      0.382900
      7 N2         -2.5630    0.2380    4.8450 nv        1 PMM     -0.459100
      8 N3         -2.7010   -0.4040    2.5200 ns        1 PMM     -0.502400
      9 C4         -2.1660   -0.6080    1.2290 c         1 PMM      0.638200
     10 O4         -2.9530   -1.1030    0.3960 o         1 PMM     -0.678500
     11 C4A        -0.7680   -0.1980    1.0400 cd        1 PMM      0.135000
     12 C8A        -0.0370    0.3620    2.1460 cd        1 PMM      0.517000
     13 C9          1.7790   -0.0620   -1.6570 c3        1 PMM      0.249600
     14 O10         2.8520   -0.9460   -1.6190 os        1 PMM     -0.577200
     15 PA          4.3590   -0.3230   -1.9300 p5        1 PMM      1.438800
     16 O1P         4.6860    0.2460   -0.4510 oh        1 PMM     -0.815400
     17 O2P         5.2590   -1.4570   -2.2380 o         1 PMM     -0.858000
     18 O3P         4.1690    0.8170   -2.8600 o         1 PMM     -0.858000
     19 H7          3.9130    0.4870    0.0700 ho        1 PMM      0.479000
     20 HN21       -1.8760    0.2030    5.5750 hn        1 PMM      0.206200
     21 HN22       -3.0400    1.1200    4.8920 hn        1 PMM      0.206200
     22 HN3        -3.6200   -0.7250    2.7100 hn        1 PMM      0.307500
     23 H91         1.0600   -0.4230   -2.4500 h1        1 PMM      0.031200
     24 H92         2.1350    0.9750   -1.9270 h1        1 PMM      0.031200
@<TRIPOS>BOND
     1    1    2 1   
     2    1   11 2   
     3    2    3 2   
     4    2   13 1   
     5    3    4 2   
     6    4   12 1   
     7    5    6 1   
     8    5   12 2   
     9    6    7 2   
    10    6    8 1   
    11    7   20 1   
    12    7   21 1   
    13    8    9 1   
    14    8   22 1   
    15    9   10 2   
    16    9   11 1   
    17   11   12 1   
    18   13   14 1   
    19   13   23 1   
    20   13   24 1   
    21   14   15 1   
    22   15   16 1   
    23   15   17 1   
    24   15   18 1   
    25   16   19 1   
@<TRIPOS>SUBSTRUCTURE
     1 PMM         1 TEMP              0 ****  ****    0 ROOT
