@<TRIPOS>MOLECULE
PMM
   24    25     1     0     0
SMALL
bcc


@<TRIPOS>ATOM
      1 N5         -0.2370    0.2210   -0.2070 ne        1 PMM     -0.547300
      2 C6          1.0410   -0.1390   -0.3350 ce        1 PMM     -0.031700
      3 C7          1.8410   -0.6340    0.7820 c1        1 PMM      0.013500
      4 N8          1.3280   -0.7390    1.9930 nf        1 PMM     -0.608700
      5 N1         -0.5670   -0.4540    3.4570 nc        1 PMM     -0.701000
      6 C2         -1.8390   -0.1140    3.6120 cc        1 PMM      0.384900
      7 N2         -2.4720   -0.2260    4.9150 nh        1 PMM     -0.460100
      8 N3         -2.6690    0.3560    2.5780 n         1 PMM     -0.504400
      9 C4         -2.1860    0.4610    1.2550 c         1 PMM      0.639200
     10 O4         -3.0210    0.8480    0.4100 o         1 PMM     -0.678500
     11 C4A        -0.7760    0.1030    1.0540 cd        1 PMM      0.134000
     12 C8A         0.0020   -0.3670    2.1700 cd        1 PMM      0.518000
     13 C9          1.7100   -0.0900   -1.6950 c3        1 PMM      0.250600
     14 O10         2.7210    0.8660   -1.7360 os        1 PMM     -0.577200
     15 PA          4.2600    0.3280   -2.0470 p5        1 PMM      1.438800
     16 O1P         5.0790    1.5000   -2.4270 o         1 PMM     -0.858000
     17 O2P         4.6490   -0.1450   -0.5490 oh        1 PMM     -0.814400
     18 O3P         4.1290   -0.8680   -2.9160 o         1 PMM     -0.858000
     19 H7          3.9040   -0.4190   -0.0050 ho        1 PMM      0.478000
     20 HN21       -1.9600   -0.8720    5.4880 hn        1 PMM      0.206700
     21 HN22       -2.4650    0.6750    5.3560 hn        1 PMM      0.206700
     22 HN3        -3.6290    0.5420    2.7500 hn        1 PMM      0.306500
     23 H91         2.1320   -1.1150   -1.9060 h1        1 PMM      0.030700
     24 H92         0.9550    0.1690   -2.4930 h1        1 PMM      0.030700
@<TRIPOS>BOND
     1    1    2 1   
     2    1   11 2   
     3    2    3 2   
     4    2   13 1   
     5    3    4 2   
     6    4   12 1   
     7    5    6 1   
     8    5   12 2   
     9    6    7 2   
    10    6    8 1   
    11    7   20 1   
    12    7   21 1   
    13    8    9 1   
    14    8   22 1   
    15    9   10 2   
    16    9   11 1   
    17   11   12 1   
    18   13   14 1   
    19   13   23 1   
    20   13   24 1   
    21   14   15 1   
    22   15   16 1   
    23   15   17 1   
    24   15   18 1   
    25   17   19 1   
@<TRIPOS>SUBSTRUCTURE
     1 PMM         1 TEMP              0 ****  ****    0 ROOT
