@<TRIPOS>MOLECULE
PMN
   58    60     1     0     0
SMALL
bcc


@<TRIPOS>ATOM
      1 O16        -3.0340    1.5860    2.2940 os        1 PMN     -0.278000
      2 O19        -2.0180   -1.7010   -1.1770 o         1 PMN     -0.318000
      3 O20         0.7080   -0.0260   -3.3880 o         1 PMN     -0.392000
      4 O30         1.9530   -1.3730   -5.0040 oh        1 PMN     -0.280000
      5 O31         5.0880    0.5330   -1.8380 oh        1 PMN     -0.334000
      6 O32         8.0480    0.4800   -3.9720 o         1 PMN     -0.563500
      7 O33         7.0000    2.3710   -3.6850 o         1 PMN     -0.563500
      8 N28         2.6220   -0.7880   -2.3130 n         1 PMN     -0.272000
      9 C1          1.1790   -0.5530   -2.3990 c2        1 PMN      0.281000
     10 C2          0.2400   -0.9680   -1.2050 c3        1 PMN     -0.181000
     11 C3         -0.3130    0.2950   -0.5250 c3        1 PMN     -0.147000
     12 C4         -1.5280   -0.0740    0.3340 c3        1 PMN     -0.075000
     13 C5         -2.0170   -1.3460   -0.0130 c2        1 PMN      0.263000
     14 C6         -2.2160   -2.3050    1.0270 c2        1 PMN     -0.249000
     15 C7         -1.9900   -1.8320    2.5830 c1        1 PMN     -0.052000
     16 C8         -1.9280   -0.9760    2.7650 c2        1 PMN     -0.050000
     17 C9         -1.2190    0.0420    1.7250 c3        1 PMN     -0.108000
     18 C10        -1.6630    1.5520    2.2710 c3        1 PMN      0.022000
     19 C11        -1.3180    1.5710    3.4860 c3        1 PMN     -0.182000
     20 C12        -2.1180    0.6780    4.0450 c3        1 PMN     -0.123000
     21 C13        -1.5620   -0.8170    3.6410 c3        1 PMN     -0.153000
     22 C14        -3.5180   -0.3520    2.8980 c3        1 PMN     -0.164000
     23 C15        -3.3360    0.7820    3.3280 c3        1 PMN      0.056000
     24 C17        -4.5000    1.3050    4.1890 c3        1 PMN     -0.192000
     25 C18        -2.6330    1.1340   -0.1300 c3        1 PMN     -0.207000
     26 C21         6.9680    1.1440   -3.9150 c2        1 PMN      0.369000
     27 C22         5.6400    0.4620   -4.2040 c2        1 PMN     -0.213000
     28 C23         4.7360    0.2170   -3.1610 c2        1 PMN      0.130000
     29 C24         3.5060   -0.3840   -3.4310 c2        1 PMN     -0.126000
     30 C25         3.1800   -0.7400   -4.7330 c2        1 PMN      0.120000
     31 C26         4.0870   -0.4940   -5.7750 c1        1 PMN     -0.219000
     32 C27         5.3130    0.1060   -5.5040 c1        1 PMN     -0.041000
     33 HO30        2.0910   -2.2440   -5.1320 ho        1 PMN      0.236000
     34 HO31        5.3190   -0.2110   -1.4060 ho        1 PMN      0.294000
     35 HN28        2.9690   -1.2290   -1.5970 hn        1 PMN      0.224000
     36 H21        -0.5040   -1.5080   -1.5460 hc        1 PMN      0.105000
     37 H22         0.7490   -1.4900   -0.5560 hc        1 PMN      0.105000
     38 H31        -0.5820    0.9430   -1.2090 hc        1 PMN      0.105000
     39 H32         0.3760    0.6880    0.0400 hc        1 PMN      0.105000
     40 H6         -2.6750   -3.1470    0.8340 ha        1 PMN      0.140000
     41 H7         -2.0480   -2.4900    3.3130 ha        1 PMN      0.130000
     42 H9         -0.2580   -0.0460    1.8250 hc        1 PMN      0.111000
     43 H10        -1.2710    2.2770    1.7520 h1        1 PMN      0.142000
     44 H111       -0.3880    1.3060    3.5820 hc        1 PMN      0.115500
     45 H112       -1.4690    2.4650    3.8760 hc        1 PMN      0.115500
     46 H12        -2.2270    0.8040    5.0130 hc        1 PMN      0.121000
     47 H131       -1.8900   -1.4900    4.2790 hc        1 PMN      0.107500
     48 H132       -0.5760   -0.8220    3.6090 hc        1 PMN      0.107500
     49 H141       -4.0530   -0.8890    3.5420 hc        1 PMN      0.091000
     50 H142       -3.9510   -0.3250    2.0280 hc        1 PMN      0.091000
     51 H171       -5.3420    1.1120    3.7470 hc        1 PMN      0.081333
     52 H172       -4.4080    2.2780    4.3110 hc        1 PMN      0.081333
     53 H173       -4.4830    0.8600    5.0700 hc        1 PMN      0.081333
     54 H181       -2.8500    1.0310   -1.0850 hc        1 PMN      0.085667
     55 H182       -2.2360    2.0150    0.0200 hc        1 PMN      0.085667
     56 H183       -3.4550    1.0490    0.4040 hc        1 PMN      0.085667
     57 H26         3.8570   -0.7450   -6.6940 ha        1 PMN      0.134000
     58 H27         5.9460    0.2770   -6.2330 ha        1 PMN      0.161000
@<TRIPOS>BOND
     1    1   18 1   
     2    1   23 1   
     3    2   13 1   
     4    3    9 1   
     5    4   30 1   
     6    4   33 1   
     7    5   28 1   
     8    5   34 1   
     9    6   26 1   
    10    7   26 1   
    11    8    9 1   
    12    8   29 1   
    13    8   35 1   
    14    9   10 1   
    15   10   11 1   
    16   10   36 1   
    17   10   37 1   
    18   11   12 1   
    19   11   38 1   
    20   11   39 1   
    21   12   13 1   
    22   12   17 1   
    23   12   25 1   
    24   13   14 1   
    25   14   15 1   
    26   14   40 1   
    27   15   41 1   
    28   16   17 1   
    29   16   21 1   
    30   16   22 1   
    31   17   18 1   
    32   17   42 1   
    33   18   19 1   
    34   18   43 1   
    35   19   20 1   
    36   19   44 1   
    37   19   45 1   
    38   20   21 1   
    39   20   23 1   
    40   20   46 1   
    41   21   47 1   
    42   21   48 1   
    43   22   23 1   
    44   22   49 1   
    45   22   50 1   
    46   23   24 1   
    47   24   51 1   
    48   24   52 1   
    49   24   53 1   
    50   25   54 1   
    51   25   55 1   
    52   25   56 1   
    53   26   27 1   
    54   27   28 1   
    55   27   32 1   
    56   28   29 1   
    57   29   30 1   
    58   30   31 1   
    59   31   57 1   
    60   32   58 1   
@<TRIPOS>SUBSTRUCTURE
     1 PMN         1 TEMP              0 ****  ****    0 ROOT
