@<TRIPOS>MOLECULE
PMN
   59    62     1     0     0
SMALL
bcc


@<TRIPOS>ATOM
      1 O16         2.0650    0.8210   -0.8290 os        1 PMN     -0.276000
      2 O19         4.9040   -4.4420    1.7500 o         1 PMN     -0.299000
      3 O20         3.9460   -0.3080   -7.3270 o         1 PMN     -0.367000
      4 O32         2.1260    2.3930   -2.4310 os        1 PMN     -0.289000
      5 O33         4.2590    2.8210   -1.8780 o         1 PMN     -0.329000
      6 N28         1.8630    0.5280   -6.8260 n         1 PMN     -0.313000
      7 C1          2.7180   -0.3030   -7.5440 c2        1 PMN      0.291000
      8 C2          2.0840   -1.2530   -8.5280 c3        1 PMN     -0.244000
      9 C3          5.7370   -1.8320    0.1780 cx        1 PMN     -0.176500
     10 C4          4.3910   -2.4530    0.5050 cx        1 PMN     -0.204000
     11 C5          4.3760   -3.9140    0.7700 c2        1 PMN      0.216000
     12 C6          0.5090   -3.9710    0.6520 c1        1 PMN      0.187000
     13 C7          1.5130   -3.2430    1.0810 c2        1 PMN     -0.466000
     14 C8          1.9340   -1.9160    0.6000 cx        1 PMN     -0.015000
     15 C9          3.1840   -1.9520   -0.2370 c3        1 PMN     -0.096000
     16 C10         1.8160    2.1950   -1.0440 c3        1 PMN      0.151000
     17 C11         0.3180    2.4670   -0.8680 c3        1 PMN     -0.179000
     18 C12        -0.3140    1.0980   -0.6750 c3        1 PMN     -0.180000
     19 C13         1.6860   -0.7400    1.5150 cx        1 PMN     -0.181000
     20 C14         0.8230   -0.9170    0.3010 cx        1 PMN     -0.167000
     21 C15         0.8270    0.0670   -0.8430 c3        1 PMN      0.112000
     22 C17         0.7180   -0.6500   -2.1810 c3        1 PMN     -0.223000
     23 C18         5.0890   -1.5410    1.4910 cx        1 PMN     -0.176500
     24 C22         3.6530    2.8720   -4.2430 c3        1 PMN      0.083000
     25 C23         3.1790    1.6560   -5.0870 c2        1 PMN      0.086000
     26 C24         2.2790    1.6810   -6.1280 c2        1 PMN     -0.170000
     27 C25         1.5670    2.9810   -6.6670 c3        1 PMN      0.212000
     28 C26         2.0810    3.9770   -5.7450 c1        1 PMN     -0.181000
     29 C27         2.8850    3.9410   -4.8360 c1        1 PMN     -0.159000
     30 HO30       -0.1440    2.7470   -5.7870 ho        1 PMN      0.220000
     31 HO31        3.7880   -0.1730   -5.2600 ho        1 PMN      0.255000
     32 HN28        2.5060    2.7790   -0.3800 h2        1 PMN      0.148000
     33 H21         1.5680   -0.6850   -9.3390 hc        1 PMN      0.112333
     34 H22         1.3430   -1.9150   -8.0170 hc        1 PMN      0.112333
     35 H31         6.6250   -2.4900    0.1520 hc        1 PMN      0.121750
     36 H32         2.8850   -1.8870   -8.9820 hc        1 PMN      0.112333
     37 H6          3.8430   -4.5210    0.0020 h4        1 PMN      0.094000
     38 H7          2.1450   -3.6430    1.9060 ha        1 PMN      0.203000
     39 H9          5.7750   -1.0440   -0.5960 hc        1 PMN      0.121750
     40 H10         3.0050   -2.6130   -1.1290 hc        1 PMN      0.108000
     41 H111        0.1590    3.1230    0.0220 hc        1 PMN      0.109500
     42 H112       -0.0930    2.9880   -1.7680 hc        1 PMN      0.109500
     43 H12        -1.1170    0.9140   -1.4290 hc        1 PMN      0.100000
     44 H131       -0.7720    1.0150    0.3420 hc        1 PMN      0.100000
     45 H132        2.4290    0.0800    1.5160 hc        1 PMN      0.121500
     46 H141       -0.2110   -1.2960    0.4590 hc        1 PMN      0.125000
     47 H142        1.2490   -0.9190    2.5130 hc        1 PMN      0.121500
     48 H171       -0.2330   -1.2320   -2.2250 hc        1 PMN      0.088000
     49 H172        0.7390    0.0990   -3.0080 hc        1 PMN      0.088000
     50 H173        1.5810   -1.3460   -2.3100 hc        1 PMN      0.088000
     51 H181        5.5050   -1.9970    2.4090 hc        1 PMN      0.121750
     52 H182        4.6590   -0.5390    1.6710 hc        1 PMN      0.121750
     53 H183        3.3970   -0.9160   -0.6230 hc        1 PMN      0.108000
     54 H26         1.8630    3.1730   -7.7370 h1        1 PMN      0.148000
     55 H27         4.7660    2.9970   -4.3920 hc        1 PMN      0.172000
     56 O31         3.8290    0.5520   -4.6160 oh        1 PMN     -0.246000
     57 O30         0.1710    2.8230   -6.6980 oh        1 PMN     -0.310000
     58 H282        0.9120    0.5720   -7.1310 hn        1 PMN      0.237000
     59 C21         3.4150    2.6890   -2.7630 c2        1 PMN      0.339000
@<TRIPOS>BOND
     1    1   16 1   
     2    1   21 1   
     3    2   11 1   
     4    3    7 1   
     5    4   16 1   
     6    4   59 1   
     7    5   59 1   
     8    6    7 1   
     9    6   26 1   
    10    6   58 1   
    11    7    8 1   
    12    8   33 1   
    13    8   34 1   
    14    8   36 1   
    15    9   10 1   
    16    9   23 1   
    17    9   35 1   
    18    9   39 1   
    19   10   11 1   
    20   10   15 1   
    21   10   23 1   
    22   11   37 1   
    23   12   13 1   
    24   13   14 1   
    25   13   38 1   
    26   14   15 1   
    27   14   19 1   
    28   14   20 1   
    29   15   40 1   
    30   15   53 1   
    31   16   17 1   
    32   16   32 1   
    33   17   18 1   
    34   17   41 1   
    35   17   42 1   
    36   18   21 1   
    37   18   43 1   
    38   18   44 1   
    39   19   20 1   
    40   19   45 1   
    41   19   47 1   
    42   20   21 1   
    43   20   46 1   
    44   21   22 1   
    45   22   48 1   
    46   22   49 1   
    47   22   50 1   
    48   23   51 1   
    49   23   52 1   
    50   24   25 1   
    51   24   29 1   
    52   24   55 1   
    53   24   59 1   
    54   25   26 1   
    55   25   56 1   
    56   26   27 1   
    57   27   28 1   
    58   27   54 1   
    59   27   57 1   
    60   28   29 1   
    61   30   57 1   
    62   31   56 1   
@<TRIPOS>SUBSTRUCTURE
     1 PMN         1 TEMP              0 ****  ****    0 ROOT
