@<TRIPOS>MOLECULE
PMN
   58    62     1     0     0
SMALL
bcc


@<TRIPOS>ATOM
      1 O16         3.2800   -2.4630    0.4010 os        1 PMN     -0.408600
      2 O19         2.3710    3.5670    0.4460 o         1 PMN     -0.537100
      3 O20        -1.5650    0.4350    1.6610 o         1 PMN     -0.629100
      4 O32        -4.9410   -1.2380   -3.9720 o         1 PMN     -0.830300
      5 O33        -6.9190   -1.6050   -3.0190 o         1 PMN     -0.830300
      6 N28        -2.3040    1.3690   -0.3250 n         1 PMN     -0.413100
      7 C1         -1.3120    0.9580    0.5540 c         1 PMN      0.645100
      8 C2          0.1220    1.2720    0.1470 c3        1 PMN     -0.167400
      9 C3          1.0590    1.1240    1.3250 c3        1 PMN     -0.065400
     10 C4          2.5550    1.2260    0.9620 c3        1 PMN     -0.125000
     11 C5          2.7450    2.4490    0.0670 c         1 PMN      0.570300
     12 C6          3.4060    2.2930   -1.2390 ce        1 PMN     -0.246200
     13 C7          4.0750    1.1910   -1.5900 c2        1 PMN     -0.081200
     14 C8          4.1800    0.0130   -0.7050 c3        1 PMN     -0.039800
     15 C9          2.9900   -0.0780    0.2870 c3        1 PMN     -0.071700
     16 C10         3.2040   -1.2820    1.2400 c3        1 PMN      0.140100
     17 C11         4.5980   -1.3150    1.8980 c3        1 PMN     -0.105400
     18 C12         5.4660   -1.4780    0.6430 c3        1 PMN     -0.094700
     19 C13         5.5450   -0.0830    0.0110 c3        1 PMN     -0.066400
     20 C14         4.1970   -1.3330   -1.4760 c3        1 PMN     -0.091400
     21 C15         4.5290   -2.3060   -0.3260 c3        1 PMN      0.133800
     22 C17         5.0430   -3.6530   -0.7370 c3        1 PMN     -0.078100
     23 C18         3.3040    1.5210    2.2580 c3        1 PMN     -0.088100
     24 C22        -5.2780   -0.4440   -1.7300 ca        1 PMN     -0.234600
     25 C23        -3.9850    0.0860   -1.5890 ca        1 PMN      0.187100
     26 C24        -3.5860    0.7610   -0.3920 ca        1 PMN     -0.133400
     27 C25        -4.5290    0.8520    0.6570 ca        1 PMN      0.164100
     28 C26        -5.8140    0.3080    0.5170 ca        1 PMN     -0.223000
     29 C27        -6.1740   -0.3220   -0.6670 ca        1 PMN     -0.041000
     30 HO30       -3.3510    1.4260    2.0630 ho        1 PMN      0.436000
     31 HO31       -3.4130   -0.4370   -3.3580 ho        1 PMN      0.496000
     32 HN28       -1.9780    1.6430   -1.2320 hn        1 PMN      0.310500
     33 H21         0.3940    0.5660   -0.6810 hc        1 PMN      0.069700
     34 H22         0.1900    2.3180   -0.2570 hc        1 PMN      0.069700
     35 H31         0.8170    1.9320    2.0680 hc        1 PMN      0.069200
     36 H32         0.8720    0.1400    1.8310 hc        1 PMN      0.069200
     37 H6          3.3300    3.1670   -1.9080 ha        1 PMN      0.148000
     38 H7          4.5840    1.1100   -2.5640 ha        1 PMN      0.130000
     39 H9          2.1110   -0.3910   -0.3590 hc        1 PMN      0.076700
     40 H10         2.3480   -1.4380    1.9360 h1        1 PMN      0.097700
     41 H111        4.8540   -0.4080    2.4850 hc        1 PMN      0.058700
     42 H112        4.6760   -2.2070    2.5660 hc        1 PMN      0.058700
     43 H12         6.4480   -1.9580    0.8180 hc        1 PMN      0.068700
     44 H131        6.3750   -0.0160   -0.7330 hc        1 PMN      0.048700
     45 H132        5.6900    0.7220    0.7680 hc        1 PMN      0.048700
     46 H141        3.2120   -1.5740   -1.9390 hc        1 PMN      0.061200
     47 H142        4.9870   -1.3380   -2.2620 hc        1 PMN      0.061200
     48 H171        4.2850   -4.1750   -1.3700 hc        1 PMN      0.046033
     49 H172        5.9870   -3.5330   -1.3210 hc        1 PMN      0.046033
     50 H173        5.2450   -4.2810    0.1630 hc        1 PMN      0.046033
     51 H181        3.1080    0.7160    3.0060 hc        1 PMN      0.044367
     52 H182        4.4010    1.6050    2.0760 hc        1 PMN      0.044367
     53 H183        2.9480    2.4930    2.6830 hc        1 PMN      0.044367
     54 H26        -6.5210    0.3980    1.3520 ha        1 PMN      0.131000
     55 H27        -7.1840   -0.7490   -0.7960 ha        1 PMN      0.159000
     56 C21        -5.7460   -1.1450   -2.9910 c         1 PMN      0.921200
     57 O31        -3.0340    0.0220   -2.5730 oh        1 PMN     -0.574100
     58 O30        -4.2920    1.5070    1.8460 oh        1 PMN     -0.528100
@<TRIPOS>BOND
     1    1   16 1   
     2    1   21 1   
     3    2   11 2   
     4    3    7 2   
     5    4   56 1   
     6    5   56 1   
     7    6    7 1   
     8    6   26 1   
     9    6   32 1   
    10    7    8 1   
    11    8    9 1   
    12    8   33 1   
    13    8   34 1   
    14    9   10 1   
    15    9   35 1   
    16    9   36 1   
    17   10   11 1   
    18   10   15 1   
    19   10   23 1   
    20   11   12 1   
    21   12   13 2   
    22   12   37 1   
    23   13   14 1   
    24   13   38 1   
    25   14   15 1   
    26   14   19 1   
    27   14   20 1   
    28   15   16 1   
    29   15   39 1   
    30   16   17 1   
    31   16   40 1   
    32   17   18 1   
    33   17   41 1   
    34   17   42 1   
    35   18   19 1   
    36   18   21 1   
    37   18   43 1   
    38   19   44 1   
    39   19   45 1   
    40   20   21 1   
    41   20   46 1   
    42   20   47 1   
    43   21   22 1   
    44   22   48 1   
    45   22   49 1   
    46   22   50 1   
    47   23   51 1   
    48   23   52 1   
    49   23   53 1   
    50   24   25 ar  
    51   24   29 ar  
    52   24   56 1   
    53   25   26 ar  
    54   25   57 1   
    55   26   27 ar  
    56   27   28 ar  
    57   27   58 1   
    58   28   29 ar  
    59   28   54 1   
    60   29   55 1   
    61   30   58 1   
    62   31   57 1   
@<TRIPOS>SUBSTRUCTURE
     1 PMN         1 TEMP              0 ****  ****    0 ROOT
