@<TRIPOS>MOLECULE
PMN
   58    53     1     0     0
SMALL
bcc


@<TRIPOS>ATOM
      1 O16         1.0600   -1.6870   -5.0070 o         1 PMN     -0.187000
      2 O19        -1.7240   -5.3370    1.8760 o         1 PMN     -0.290000
      3 O20         6.1770    0.4930   -5.3310 o         1 PMN     -0.392000
      4 O32         0.0480    2.2740   -3.5930 o         1 PMN     -0.552000
      5 O33         0.3490    3.6410   -1.8570 o         1 PMN     -0.552000
      6 N28         3.9840    0.9880   -5.9040 ns        1 PMN     -0.281000
      7 C1          5.1620    0.2660   -6.0230 c2        1 PMN      0.299000
      8 C2          5.1940   -0.7860   -7.1110 c3        1 PMN     -0.244000
      9 C3          5.8350   -1.2310   -2.4940 c1        1 PMN     -0.204000
     10 C4          5.4170   -1.9210   -1.6090 c1        1 PMN     -0.206000
     11 C5         -0.8550   -5.2710    1.0020 c2        1 PMN      0.306000
     12 C6         -0.3310   -4.0660    0.4680 c1        1 PMN     -0.281000
     13 C7          0.1380   -3.0690   -0.0040 c1        1 PMN      0.008000
     14 C8          0.7220   -1.8730   -0.5850 c3        1 PMN      0.096000
     15 C9          1.4060   -2.2360   -1.9280 c3        1 PMN     -0.202000
     16 C10         1.7690   -1.2850   -5.8480 c1        1 PMN      0.184000
     17 C11         3.0220    2.0100    0.9380 c2        1 PMN     -0.235000
     18 C12         1.7180    2.2350    0.8470 c2        1 PMN     -0.235000
     19 C13         1.8490   -1.3940    0.2700 c1        1 PMN     -0.031000
     20 C14        -0.2910   -0.8700   -0.8190 c1        1 PMN     -0.273000
     21 C15        -1.0910   -0.0060   -1.0420 c1        1 PMN     -0.055000
     22 C17        -1.9840    1.0660   -1.3360 c3        1 PMN     -0.149000
     23 C18         4.9080   -2.7330   -0.5520 c3        1 PMN     -0.119000
     24 C22         2.2900    2.5080   -2.7350 c3        1 PMN     -0.053000
     25 C23         2.7180    1.6220   -3.9230 c2        1 PMN      0.082000
     26 C24         3.7340    1.8660   -4.8260 c2        1 PMN     -0.157000
     27 C25         4.6940    3.1030   -4.7740 c3        1 PMN      0.239000
     28 C26         4.1320    3.8410   -3.6500 c1        1 PMN     -0.283000
     29 C27         3.2240    3.5970   -2.8790 c1        1 PMN     -0.093000
     30 HO30        3.8050    4.0710   -6.1910 ho        1 PMN      0.207000
     31 HO31        1.0680    0.6410   -3.8120 ho        1 PMN      0.282000
     32 HN28        3.1630    0.5630   -6.2860 hn        1 PMN      0.229000
     33 H21         5.1620   -0.2940   -8.1130 hc        1 PMN      0.099000
     34 H22         4.3240   -1.4800   -7.0180 hc        1 PMN      0.099000
     35 H31         6.1870   -0.6060   -3.2820 ha        1 PMN      0.246000
     36 H32         6.1420   -1.3690   -7.0210 hc        1 PMN      0.099000
     37 H6         -0.4100   -6.1950    0.5620 h4        1 PMN      0.092000
     38 H7          2.2900   -2.8930   -1.7400 hc        1 PMN      0.104000
     39 H9          0.6770   -2.7670   -2.5840 hc        1 PMN      0.104000
     40 H10         1.7340   -1.3040   -2.4510 hc        1 PMN      0.104000
     41 H111        3.4670    1.3760    1.7170 ha        1 PMN      0.117750
     42 H112        3.7450    2.4450    0.2340 ha        1 PMN      0.117750
     43 H12         1.2690    2.8670    0.0590 ha        1 PMN      0.117750
     44 H131        0.9980    1.7960    1.5520 ha        1 PMN      0.117750
     45 H132        2.0680   -0.3160    0.1680 ha        1 PMN      0.069000
     46 H141        0.8930   -1.2890    2.1810 ha        1 PMN      0.017000
     47 H142        0.7380   -0.6380    2.0410 ha        1 PMN      0.017000
     48 H171       -2.3690    1.5300   -0.3930 hc        1 PMN      0.118667
     49 H172       -1.4380    1.8590   -1.9310 hc        1 PMN      0.118667
     50 H173       -2.8530    0.7010   -1.9400 hc        1 PMN      0.118667
     51 H181        4.6360   -3.7520   -0.9330 hc        1 PMN      0.093667
     52 H182        5.6720   -2.8520    0.2590 hc        1 PMN      0.093667
     53 H183        3.9860   -2.2690   -0.1020 hc        1 PMN      0.093667
     54 H26         5.7570    2.7650   -4.6150 h1        1 PMN      0.151000
     55 H27         2.4690    1.9330   -1.7800 hc        1 PMN      0.131000
     56 C21         0.7810    2.8650   -2.7440 c2        1 PMN      0.348000
     57 O31         2.0010    0.4550   -4.0570 oh        1 PMN     -0.332000
     58 O30         4.7120    3.8070   -5.9930 oh        1 PMN     -0.313000
@<TRIPOS>BOND
     1    1   16 1   
     2    2   11 1   
     3    3    7 1   
     4    4   56 1   
     5    5   56 1   
     6    6    7 1   
     7    6   26 1   
     8    6   32 1   
     9    7    8 1   
    10    8   33 1   
    11    8   34 1   
    12    8   36 1   
    13    9   10 1   
    14    9   35 1   
    15   10   23 1   
    16   11   12 1   
    17   11   37 1   
    18   12   13 1   
    19   13   14 1   
    20   14   15 1   
    21   14   19 1   
    22   14   20 1   
    23   15   38 1   
    24   15   39 1   
    25   15   40 1   
    26   17   18 1   
    27   17   41 1   
    28   17   42 1   
    29   18   43 1   
    30   18   44 1   
    31   19   45 1   
    32   20   21 1   
    33   21   22 1   
    34   22   48 1   
    35   22   49 1   
    36   22   50 1   
    37   23   51 1   
    38   23   52 1   
    39   23   53 1   
    40   24   25 1   
    41   24   29 1   
    42   24   55 1   
    43   24   56 1   
    44   25   26 1   
    45   25   57 1   
    46   26   27 1   
    47   27   28 1   
    48   27   54 1   
    49   27   58 1   
    50   28   29 1   
    51   30   58 1   
    52   31   57 1   
    53   46   47 1   
@<TRIPOS>SUBSTRUCTURE
     1 PMN         1 TEMP              0 ****  ****    0 ROOT
