@<TRIPOS>MOLECULE
PMO
   39    41     1     0     0
SMALL
bcc


@<TRIPOS>ATOM
      1 N3          0.2300    0.8960    0.2060 nc        1 PMO     -0.625100
      2 N1          1.9940    0.5260    1.6450 na        1 PMO     -0.153300
      3 C2          1.5690    0.7880    0.3310 cd        1 PMO      0.464700
      4 C7A         0.8310    0.4310    2.4180 ca        1 PMO     -0.082200
      5 C3A        -0.2790    0.6770    1.4990 ca        1 PMO      0.088400
      6 C4         -1.5920    0.6540    1.9790 ca        1 PMO     -0.105000
      7 C5         -1.7790    0.4030    3.3390 ca        1 PMO      0.059100
      8 C6         -0.7100    0.1670    4.2260 ca        1 PMO     -0.191000
      9 C7          0.6020    0.1770    3.7730 ca        1 PMO     -0.100000
     10 O10        -3.1020    0.4590    3.7820 os        1 PMO     -0.346900
     11 C11        -3.4160   -0.4580    4.8200 c3        1 PMO      0.122700
     12 P           7.7470   -0.7320   -1.1550 p5        1 PMO      1.331900
     13 O1P         8.3690   -0.4650    0.1880 o         1 PMO     -0.927167
     14 O2P         8.5350   -1.4950   -2.1710 o         1 PMO     -0.927167
     15 O3P         6.9050    0.4330   -1.6400 o         1 PMO     -0.927167
     16 O5'         6.4540   -1.8240   -0.7340 os        1 PMO     -0.562200
     17 C5'         5.8960   -1.6590    0.5020 c3        1 PMO      0.224400
     18 C4'         4.6350   -0.7600    0.4250 c3        1 PMO      0.054100
     19 O4'         3.8460   -0.9500    1.6280 os        1 PMO     -0.428600
     20 C3'         5.0120    0.7330    0.3450 c3        1 PMO      0.088100
     21 O3'         4.4460    1.3310   -0.8030 oh        1 PMO     -0.698800
     22 C2'         4.3930    1.3730    1.6010 c3        1 PMO      0.111100
     23 O2'         3.8440    2.6530    1.4280 oh        1 PMO     -0.609800
     24 C1'         3.3600    0.3000    2.0950 c3        1 PMO      0.211800
     25 H21         2.3140    0.8910   -0.4840 h5        1 PMO      0.118800
     26 H41        -2.4480    0.8360    1.3160 ha        1 PMO      0.145000
     27 H61        -0.9160   -0.0270    5.2870 ha        1 PMO      0.118000
     28 H71         1.4360   -0.0130    4.4630 ha        1 PMO      0.134000
     29 H111       -3.0580   -0.0620    5.8020 h1        1 PMO      0.028367
     30 H112       -2.9730   -1.4640    4.6280 h1        1 PMO      0.028367
     31 H113       -4.5340   -0.5100    4.8110 h1        1 PMO      0.028367
     32 H5'1        6.6300   -1.2020    1.2260 h1        1 PMO      0.009200
     33 H5'2        5.5560   -2.6610    0.8970 h1        1 PMO      0.009200
     34 H4'         3.9940   -1.0560   -0.4460 h1        1 PMO      0.056700
     35 H3'         6.1470    0.8290    0.2970 h1        1 PMO      0.171700
     36 HO3'        5.1310    1.2260   -1.5060 ho        1 PMO      0.510000
     37 H2'         5.1680    1.4790    2.4090 h1        1 PMO      0.077700
     38 HO2'        3.6360    2.7600    0.4870 ho        1 PMO      0.427000
     39 H1'         3.3280    0.2270    3.2190 h2        1 PMO      0.064700
@<TRIPOS>BOND
     1    1    3 2   
     2    1    5 1   
     3    2    3 1   
     4    2    4 1   
     5    2   24 1   
     6    3   25 1   
     7    4    5 ar  
     8    4    9 ar  
     9    5    6 ar  
    10    6    7 ar  
    11    6   26 1   
    12    7    8 ar  
    13    7   10 1   
    14    8    9 ar  
    15    8   27 1   
    16    9   28 1   
    17   10   11 1   
    18   11   29 1   
    19   11   30 1   
    20   11   31 1   
    21   12   13 1   
    22   12   14 1   
    23   12   15 1   
    24   12   16 1   
    25   16   17 1   
    26   17   18 1   
    27   17   32 1   
    28   17   33 1   
    29   18   19 1   
    30   18   20 1   
    31   18   34 1   
    32   19   24 1   
    33   20   21 1   
    34   20   22 1   
    35   20   35 1   
    36   21   36 1   
    37   22   23 1   
    38   22   24 1   
    39   22   37 1   
    40   23   38 1   
    41   24   39 1   
@<TRIPOS>SUBSTRUCTURE
     1 PMO         1 TEMP              0 ****  ****    0 ROOT
