@<TRIPOS>MOLECULE
PMO
   39    41     1     0     0
SMALL
bcc


@<TRIPOS>ATOM
      1 N3          0.1810    2.0890    2.5080 nc        1 PMO     -0.625100
      2 N1          0.5910    0.0540    1.5040 na        1 PMO     -0.153300
      3 C2          0.4660    1.4460    1.3570 cd        1 PMO      0.464700
      4 C7A         0.3380   -0.2190    2.8530 ca        1 PMO     -0.082200
      5 C3A         0.0900    1.0770    3.4820 ca        1 PMO      0.088400
      6 C4         -0.1910    1.1400    4.8500 ca        1 PMO     -0.105000
      7 C5         -0.2120   -0.0610    5.5610 ca        1 PMO      0.059100
      8 C6          0.0270   -1.3100    4.9570 ca        1 PMO     -0.191000
      9 C7          0.3020   -1.4000    3.5990 ca        1 PMO     -0.100000
     10 O10        -0.4300    0.0600    6.9340 os        1 PMO     -0.346900
     11 C11        -1.1770   -1.0010    7.5100 c3        1 PMO      0.122700
     12 P           0.4070   -0.0020   -5.0150 p5        1 PMO      1.331900
     13 O1P         1.0900   -1.3390   -4.9430 o         1 PMO     -0.927167
     14 O2P        -0.2980    0.3770   -6.2770 o         1 PMO     -0.927167
     15 O3P         1.1840    1.0800   -4.2860 o         1 PMO     -0.927167
     16 O5'        -0.8880   -0.2040   -3.8650 os        1 PMO     -0.562200
     17 C5'        -0.6410   -1.0360   -2.8100 c3        1 PMO      0.224400
     18 C4'        -0.1490   -0.2340   -1.5770 c3        1 PMO      0.054100
     19 O4'        -0.3050   -1.0540   -0.3900 os        1 PMO     -0.428600
     20 C3'         1.3450    0.1280   -1.7010 c3        1 PMO      0.088100
     21 O3'         1.5310    1.5240   -1.5960 oh        1 PMO     -0.698800
     22 C2'         2.0280   -0.5610   -0.5050 c3        1 PMO      0.111100
     23 O2'         3.0520    0.1700    0.1180 oh        1 PMO     -0.609800
     24 C1'         0.8340   -0.9190    0.4490 c3        1 PMO      0.211800
     25 H21         0.6050    1.9140    0.3610 h5        1 PMO      0.118800
     26 H41        -0.3810    2.0970    5.3520 ha        1 PMO      0.145000
     27 H61        -0.0040   -2.2240    5.5650 ha        1 PMO      0.118000
     28 H71         0.4830   -2.3750    3.1250 ha        1 PMO      0.134000
     29 H111       -1.5300   -0.5900    8.4890 h1        1 PMO      0.028367
     30 H112       -2.0440   -1.2890    6.8680 h1        1 PMO      0.028367
     31 H113       -0.5160   -1.8860    7.6810 h1        1 PMO      0.028367
     32 H5'1        0.1290   -1.8150   -3.0740 h1        1 PMO      0.009200
     33 H5'2       -1.6000   -1.5480   -2.5020 h1        1 PMO      0.009200
     34 H4'        -0.7710    0.6860   -1.4330 h1        1 PMO      0.056700
     35 H3'         1.7320   -0.2270   -2.7120 h1        1 PMO      0.171700
     36 HO3'        1.4790    1.8570   -2.5240 ho        1 PMO      0.510000
     37 H2'         2.4950   -1.5320   -0.8260 h1        1 PMO      0.077700
     38 HO2'        2.9130    1.1070   -0.0870 ho        1 PMO      0.427000
     39 H1'         0.9770   -1.9190    0.9500 h2        1 PMO      0.064700
@<TRIPOS>BOND
     1    1    3 2   
     2    1    5 1   
     3    2    3 1   
     4    2    4 1   
     5    2   24 1   
     6    3   25 1   
     7    4    5 ar  
     8    4    9 ar  
     9    5    6 ar  
    10    6    7 ar  
    11    6   26 1   
    12    7    8 ar  
    13    7   10 1   
    14    8    9 ar  
    15    8   27 1   
    16    9   28 1   
    17   10   11 1   
    18   11   29 1   
    19   11   30 1   
    20   11   31 1   
    21   12   13 1   
    22   12   14 1   
    23   12   15 1   
    24   12   16 1   
    25   16   17 1   
    26   17   18 1   
    27   17   32 1   
    28   17   33 1   
    29   18   19 1   
    30   18   20 1   
    31   18   34 1   
    32   19   24 1   
    33   20   21 1   
    34   20   22 1   
    35   20   35 1   
    36   21   36 1   
    37   22   23 1   
    38   22   24 1   
    39   22   37 1   
    40   23   38 1   
    41   24   39 1   
@<TRIPOS>SUBSTRUCTURE
     1 PMO         1 TEMP              0 ****  ****    0 ROOT
