@<TRIPOS>MOLECULE
PMO
   39    41     1     0     0
SMALL
bcc


@<TRIPOS>ATOM
      1 N3          0.2240    0.8710    0.2020 nc        1 PMO     -0.625100
      2 N1          1.9900    0.5220    1.6430 na        1 PMO     -0.153300
      3 C2          1.5630    0.7770    0.3280 cd        1 PMO      0.464700
      4 C7A         0.8270    0.4170    2.4160 ca        1 PMO     -0.082200
      5 C3A        -0.2850    0.6490    1.4950 ca        1 PMO      0.088400
      6 C4         -1.5980    0.6150    1.9730 ca        1 PMO     -0.105000
      7 C5         -1.7840    0.3650    3.3340 ca        1 PMO      0.059100
      8 C6         -0.7130    0.1430    4.2230 ca        1 PMO     -0.191000
      9 C7          0.5990    0.1650    3.7710 ca        1 PMO     -0.100000
     10 O10        -3.1070    0.4090    3.7760 os        1 PMO     -0.346900
     11 C11        -3.4140   -0.5090    4.8140 c3        1 PMO      0.122700
     12 P           7.7580   -0.6870   -1.1470 p5        1 PMO      1.331900
     13 O1P         8.3760   -0.4100    0.1960 o         1 PMO     -0.927167
     14 O2P         8.5550   -1.4450   -2.1600 o         1 PMO     -0.927167
     15 O3P         6.9050    0.4690   -1.6370 o         1 PMO     -0.927167
     16 O5'         6.4750   -1.7900   -0.7250 os        1 PMO     -0.562200
     17 C5'         5.9140   -1.6280    0.5110 c3        1 PMO      0.224400
     18 C4'         4.6450   -0.7410    0.4290 c3        1 PMO      0.054100
     19 O4'         3.8570   -0.9360    1.6320 os        1 PMO     -0.428600
     20 C3'         5.0070    0.7550    0.3460 c3        1 PMO      0.088100
     21 O3'         4.4360    1.3450   -0.8040 oh        1 PMO     -0.698800
     22 C2'         4.3800    1.3930    1.6000 c3        1 PMO      0.111100
     23 O2'         3.8190    2.6670    1.4220 oh        1 PMO     -0.609800
     24 C1'         3.3570    0.3110    2.0950 c3        1 PMO      0.211800
     25 H21         2.3090    0.8850   -0.4860 h5        1 PMO      0.118800
     26 H41        -2.4540    0.7870    1.3090 ha        1 PMO      0.145000
     27 H61        -0.9180   -0.0510    5.2840 ha        1 PMO      0.118000
     28 H71         1.4340   -0.0160    4.4620 ha        1 PMO      0.134000
     29 H111       -2.9600   -1.5120    4.6250 h1        1 PMO      0.028367
     30 H112       -4.5310   -0.5730    4.8050 h1        1 PMO      0.028367
     31 H113       -3.0600   -0.1090    5.7970 h1        1 PMO      0.028367
     32 H5'1        6.6430   -1.1620    1.2340 h1        1 PMO      0.009200
     33 H5'2        5.5840   -2.6320    0.9090 h1        1 PMO      0.009200
     34 H4'         4.0080   -1.0460   -0.4410 h1        1 PMO      0.056700
     35 H3'         6.1410    0.8630    0.2980 h1        1 PMO      0.171700
     36 HO3'        5.1230    1.2440   -1.5070 ho        1 PMO      0.510000
     37 H2'         5.1540    1.5090    2.4080 h1        1 PMO      0.077700
     38 HO2'        3.6120    2.7690    0.4800 ho        1 PMO      0.427000
     39 H1'         3.3250    0.2410    3.2190 h2        1 PMO      0.064700
@<TRIPOS>BOND
     1    1    3 2   
     2    1    5 1   
     3    2    3 1   
     4    2    4 1   
     5    2   24 1   
     6    3   25 1   
     7    4    5 ar  
     8    4    9 ar  
     9    5    6 ar  
    10    6    7 ar  
    11    6   26 1   
    12    7    8 ar  
    13    7   10 1   
    14    8    9 ar  
    15    8   27 1   
    16    9   28 1   
    17   10   11 1   
    18   11   29 1   
    19   11   30 1   
    20   11   31 1   
    21   12   13 1   
    22   12   14 1   
    23   12   15 1   
    24   12   16 1   
    25   16   17 1   
    26   17   18 1   
    27   17   32 1   
    28   17   33 1   
    29   18   19 1   
    30   18   20 1   
    31   18   34 1   
    32   19   24 1   
    33   20   21 1   
    34   20   22 1   
    35   20   35 1   
    36   21   36 1   
    37   22   23 1   
    38   22   24 1   
    39   22   37 1   
    40   23   38 1   
    41   24   39 1   
@<TRIPOS>SUBSTRUCTURE
     1 PMO         1 TEMP              0 ****  ****    0 ROOT
