@<TRIPOS>MOLECULE
PMP
   28    28     1     0     0
SMALL
bcc


@<TRIPOS>ATOM
      1 N1         -0.0060    0.0500    0.0080 nb        1 PMP     -0.660000
      2 C2          1.3500    0.0000    0.0580 ca        1 PMP      0.310600
      3 C2A         2.1150   -0.2650   -1.1970 c3        1 PMP     -0.141400
      4 C3          2.0490    0.1800    1.2760 ca        1 PMP     -0.005200
      5 O3          3.4270    0.1520    1.3480 oh        1 PMP     -0.502100
      6 C4          1.3480    0.4380    2.4770 ca        1 PMP     -0.100300
      7 C4A         2.1110    0.6140    3.7650 c3        1 PMP      0.213100
      8 N4A         2.1710   -0.5210    4.6480 n8        1 PMP     -0.920800
      9 C5         -0.0440    0.5080    2.4020 ca        1 PMP     -0.161600
     10 C6         -0.6640    0.2940    1.1470 ca        1 PMP      0.386200
     11 C5A        -0.9210    0.8180    3.5840 c3        1 PMP      0.234700
     12 O4P        -2.0570    0.0190    3.6060 os        1 PMP     -0.574200
     13 P          -2.1380   -1.1420    4.8010 p5        1 PMP      1.436800
     14 O1P        -3.2460   -0.8010    5.7040 o         1 PMP     -0.839000
     15 O2P        -2.5160   -2.4000    3.8410 oh        1 PMP     -0.767400
     16 O3P        -0.7250   -1.3890    5.1760 o         1 PMP     -0.839000
     17 H2A1        2.6350   -1.2530   -1.1210 hc        1 PMP      0.040700
     18 H2A2        2.8810    0.5360   -1.3470 hc        1 PMP      0.040700
     19 H2A3        1.4500   -0.2890   -2.0940 hc        1 PMP      0.040700
     20 HO3         3.7530   -0.3190    0.5680 ho        1 PMP      0.408000
     21 H4A1        3.1740    0.8980    3.5070 h1        1 PMP      0.047700
     22 H4A2        1.6600    1.4800    4.3290 h1        1 PMP      0.047700
     23 HNA1        1.2840   -0.6950    5.0960 hn        1 PMP      0.377300
     24 HNA2        2.4340   -1.3440    4.1430 hn        1 PMP      0.377300
     25 H6         -1.7700    0.3060    1.0880 h4        1 PMP      0.045100
     26 H5A1       -1.2570    1.8920    3.4730 h1        1 PMP      0.038700
     27 H5A2       -0.3470    0.7100    4.5470 h1        1 PMP      0.038700
     28 H4A3       -1.7420   -2.8120    3.4740 ho        1 PMP      0.426000
@<TRIPOS>BOND
     1    1    2 ar  
     2    1   10 ar  
     3    2    3 1   
     4    2    4 ar  
     5    3   17 1   
     6    3   18 1   
     7    3   19 1   
     8    4    5 1   
     9    4    6 ar  
    10    5   20 1   
    11    6    7 1   
    12    6    9 ar  
    13    7    8 1   
    14    7   21 1   
    15    7   22 1   
    16    8   23 1   
    17    8   24 1   
    18    9   10 ar  
    19    9   11 1   
    20   10   25 1   
    21   11   12 1   
    22   11   26 1   
    23   11   27 1   
    24   12   13 1   
    25   13   14 1   
    26   13   15 1   
    27   13   16 1   
    28   15   28 1   
@<TRIPOS>SUBSTRUCTURE
     1 PMP         1 TEMP              0 ****  ****    0 ROOT
