@<TRIPOS>MOLECULE
PMP
   28    28     1     0     0
SMALL
bcc


@<TRIPOS>ATOM
      1 N1          0.0350    0.2790   -0.0630 nb        1 PMP     -0.657000
      2 C2          1.3770    0.0840    0.0090 ca        1 PMP      0.305600
      3 C2A         2.1430   -0.1460   -1.2530 c3        1 PMP     -0.141400
      4 C3          2.0550    0.0840    1.2510 ca        1 PMP     -0.000200
      5 O3          3.4150   -0.1200    1.3620 oh        1 PMP     -0.501100
      6 C4          1.3490    0.3110    2.4560 ca        1 PMP     -0.111300
      7 C4A         2.0870    0.2800    3.7680 c3        1 PMP      0.208100
      8 N4A         2.0200   -0.9540    4.5090 n3        1 PMP     -0.912800
      9 C5         -0.0250    0.5330    2.3620 ca        1 PMP     -0.152600
     10 C6         -0.6280    0.4900    1.0790 ca        1 PMP      0.387200
     11 C5A        -0.9060    0.8390    3.5410 c3        1 PMP      0.236700
     12 O4P        -2.0730    0.0810    3.4930 os        1 PMP     -0.567200
     13 P          -2.3560   -0.8750    4.8260 p5        1 PMP      1.423800
     14 O1P        -3.4540   -1.7980    4.4930 o         1 PMP     -0.824500
     15 O2P        -1.0020   -1.7890    4.6830 oh        1 PMP     -0.796400
     16 O3P        -2.2010    0.0070    5.9960 o         1 PMP     -0.824500
     17 H2A1        2.6010   -1.1670   -1.2380 hc        1 PMP      0.040700
     18 H2A2        2.9580    0.6140   -1.3460 hc        1 PMP      0.040700
     19 H2A3        1.4900   -0.0720   -2.1570 hc        1 PMP      0.040700
     20 HO3         3.7510   -0.3790    0.4930 ho        1 PMP      0.409000
     21 H4A1        3.1780    0.4940    3.5670 h1        1 PMP      0.055200
     22 H4A2        1.6960    1.1100    4.4240 h1        1 PMP      0.055200
     23 HNA1        2.2480   -1.7290    3.9180 hn        1 PMP      0.365800
     24 HNA2        1.1010   -1.1040    4.8900 hn        1 PMP      0.365800
     25 H6         -1.7250    0.6160    1.0010 h4        1 PMP      0.045100
     26 H5A1       -1.1830    1.9330    3.4700 h1        1 PMP      0.040700
     27 H5A2       -0.3700    0.6650    4.5160 h1        1 PMP      0.040700
     28 H4A3       -1.1740   -2.6200    4.2560 ho        1 PMP      0.428000
@<TRIPOS>BOND
     1    1    2 ar  
     2    1   10 ar  
     3    2    3 1   
     4    2    4 ar  
     5    3   17 1   
     6    3   18 1   
     7    3   19 1   
     8    4    5 1   
     9    4    6 ar  
    10    5   20 1   
    11    6    7 1   
    12    6    9 ar  
    13    7    8 1   
    14    7   21 1   
    15    7   22 1   
    16    8   23 1   
    17    8   24 1   
    18    9   10 ar  
    19    9   11 1   
    20   10   25 1   
    21   11   12 1   
    22   11   26 1   
    23   11   27 1   
    24   12   13 1   
    25   13   14 1   
    26   13   15 1   
    27   13   16 1   
    28   15   28 1   
@<TRIPOS>SUBSTRUCTURE
     1 PMP         1 TEMP              0 ****  ****    0 ROOT
