@<TRIPOS>MOLECULE
PMP
   28    28     1     0     0
SMALL
bcc


@<TRIPOS>ATOM
      1 N1          0.0380    0.2480   -0.1240 nb        1 PMP     -0.655000
      2 C2          1.3830    0.0670   -0.0590 ca        1 PMP      0.308600
      3 C2A         2.1500   -0.1280   -1.3260 c3        1 PMP     -0.141400
      4 C3          2.0620    0.0480    1.1830 ca        1 PMP     -0.000200
      5 O3          3.4240   -0.1490    1.2910 oh        1 PMP     -0.503100
      6 C4          1.3550    0.2440    2.3910 ca        1 PMP     -0.116300
      7 C4A         2.0910    0.1860    3.7040 c3        1 PMP      0.206100
      8 N4A         2.0270   -1.0730    4.4020 n3        1 PMP     -0.911800
      9 C5         -0.0220    0.4540    2.3050 ca        1 PMP     -0.149600
     10 C6         -0.6260    0.4280    1.0220 ca        1 PMP      0.391200
     11 C5A        -0.9030    0.7350    3.4900 c3        1 PMP      0.242700
     12 O4P        -2.0720   -0.0120    3.4110 os        1 PMP     -0.562200
     13 P          -2.5050   -0.8610    4.7710 p5        1 PMP      1.428800
     14 O1P        -3.5990   -1.7630    4.3850 o         1 PMP     -0.828000
     15 O2P        -1.1010   -1.6790    5.0170 oh        1 PMP     -0.797400
     16 O3P        -2.4570    0.0940    5.8980 o         1 PMP     -0.828000
     17 H2A1        2.9510    0.6480   -1.4080 hc        1 PMP      0.041367
     18 H2A2        2.6250   -1.1410   -1.3290 hc        1 PMP      0.041367
     19 H2A3        1.4930   -0.0500   -2.2260 hc        1 PMP      0.041367
     20 HO3         3.7670   -0.3570    0.4110 ho        1 PMP      0.410000
     21 H4A1        3.1790    0.4210    3.5170 h1        1 PMP      0.056700
     22 H4A2        1.6830    0.9870    4.3850 h1        1 PMP      0.056700
     23 HNA1        2.3750   -1.8110    3.8220 hn        1 PMP      0.361800
     24 HNA2        1.0810   -1.2940    4.6620 hn        1 PMP      0.361800
     25 H6         -1.7250    0.5400    0.9490 h4        1 PMP      0.048100
     26 H5A1       -0.3740    0.5290    4.4620 h1        1 PMP      0.034200
     27 H5A2       -1.1640    1.8360    3.4490 h1        1 PMP      0.034200
     28 H4A3       -0.7330   -1.4750    5.8710 ho        1 PMP      0.429000
@<TRIPOS>BOND
     1    1    2 ar  
     2    1   10 ar  
     3    2    3 1   
     4    2    4 ar  
     5    3   17 1   
     6    3   18 1   
     7    3   19 1   
     8    4    5 1   
     9    4    6 ar  
    10    5   20 1   
    11    6    7 1   
    12    6    9 ar  
    13    7    8 1   
    14    7   21 1   
    15    7   22 1   
    16    8   23 1   
    17    8   24 1   
    18    9   10 ar  
    19    9   11 1   
    20   10   25 1   
    21   11   12 1   
    22   11   26 1   
    23   11   27 1   
    24   12   13 1   
    25   13   14 1   
    26   13   15 1   
    27   13   16 1   
    28   15   28 1   
@<TRIPOS>SUBSTRUCTURE
     1 PMP         1 TEMP              0 ****  ****    0 ROOT
