@<TRIPOS>MOLECULE
PMP
   27    27     1     0     0
SMALL
bcc


@<TRIPOS>ATOM
      1 N1          2.1060   -0.1910    2.0980 nb        1 PMP     -0.675000
      2 C2          1.2590   -0.1280    3.1610 ca        1 PMP      0.315600
      3 C2A         1.7960   -0.2620    4.5470 c3        1 PMP     -0.112400
      4 C3         -0.1300    0.0740    2.9830 ca        1 PMP     -0.004200
      5 O3         -0.8990    0.1090    4.1330 oh        1 PMP     -0.530100
      6 C4         -0.6660    0.2390    1.6900 ca        1 PMP     -0.207300
      7 C4A        -2.1290    0.4920    1.4710 c3        1 PMP      0.197100
      8 N4A        -2.9490   -0.6790    1.2510 n3        1 PMP     -0.919800
      9 C5          0.2090    0.1570    0.6000 ca        1 PMP     -0.090600
     10 C6          1.5870   -0.0620    0.8740 ca        1 PMP      0.381200
     11 C5A        -0.2670    0.2860   -0.8150 c3        1 PMP      0.207700
     12 O4P         0.7150    0.0050   -1.7310 os        1 PMP     -0.557200
     13 P          -0.0440   -0.0340   -3.3210 p5        1 PMP      1.309900
     14 O1P        -0.5950    1.3650   -3.3780 o         1 PMP     -0.927500
     15 O2P         1.1050   -0.3670   -4.2250 o         1 PMP     -0.927500
     16 O3P        -1.0780   -1.1060   -3.0880 o         1 PMP     -0.927500
     17 H2A1        1.8760    0.7500    5.0150 hc        1 PMP      0.027367
     18 H2A2        1.0910   -0.8760    5.1610 hc        1 PMP      0.027367
     19 H2A3        2.8040   -0.7420    4.5620 hc        1 PMP      0.027367
     20 HO3        -1.8200   -0.0230    3.8680 ho        1 PMP      0.412000
     21 H4A1       -2.5540    1.0330    2.3670 h1        1 PMP      0.049700
     22 H4A2       -2.2400    1.1880    0.5880 h1        1 PMP      0.049700
     23 HNA1       -2.9790   -0.8980    0.2700 hn        1 PMP      0.355300
     24 HNA2       -2.5610   -1.4710    1.7280 hn        1 PMP      0.355300
     25 H6          2.2750   -0.1380    0.0040 h4        1 PMP      0.072100
     26 H5A1       -1.1420   -0.4200   -0.9700 h1        1 PMP      0.045700
     27 H5A2       -0.6430    1.3430   -0.9760 h1        1 PMP      0.045700
@<TRIPOS>BOND
     1    1    2 ar  
     2    1   10 ar  
     3    2    3 1   
     4    2    4 ar  
     5    3   17 1   
     6    3   18 1   
     7    3   19 1   
     8    4    5 1   
     9    4    6 ar  
    10    5   20 1   
    11    6    7 1   
    12    6    9 ar  
    13    7    8 1   
    14    7   21 1   
    15    7   22 1   
    16    8   23 1   
    17    8   24 1   
    18    9   10 ar  
    19    9   11 1   
    20   10   25 1   
    21   11   12 1   
    22   11   26 1   
    23   11   27 1   
    24   12   13 1   
    25   13   14 1   
    26   13   15 1   
    27   13   16 1   
@<TRIPOS>SUBSTRUCTURE
     1 PMP         1 TEMP              0 ****  ****    0 ROOT
