@<TRIPOS>MOLECULE
PMQ
   20    20     1     0     0
SMALL
bcc


@<TRIPOS>ATOM
      1 C17        -0.1810    0.2420   -0.0730 c2        1 PMQ      0.290000
      2 O18         0.8240    0.7570   -0.5620 o         1 PMQ     -0.301000
      3 N19        -0.3270   -0.0180    1.4080 n4        1 PMQ      0.086000
      4 C20        -1.4680   -0.8030    1.6800 c2        1 PMQ     -0.737000
      5 C21        -2.5890   -0.1640    2.4100 c3        1 PMQ     -0.021000
      6 C22        -3.4130   -1.1550    3.1510 c2        1 PMQ     -0.055000
      7 C23        -3.8720   -0.8840    4.3950 c2        1 PMQ     -0.224000
      8 C24        -3.5290    0.3500    5.0470 c2        1 PMQ      0.008000
      9 C25        -2.7110    1.2620    4.4380 c2        1 PMQ     -0.237000
     10 C26        -2.1430    1.0090    3.1720 c1        1 PMQ     -0.165000
     11 HN19       -1.9110   -0.5380   -0.3690 ho        1 PMQ      0.290000
     12 H20        -0.4300    0.9080    1.8770 hn        1 PMQ      0.241500
     13 H20A       -1.3530   -1.8830    1.6530 hx        1 PMQ      0.151000
     14 H22        -3.3080    0.3060    1.6430 hc        1 PMQ      0.130000
     15 H23        -3.6510   -2.0960    2.6330 ha        1 PMQ      0.136000
     16 H24        -4.5060   -1.5970    4.9430 ha        1 PMQ      0.135000
     17 H25        -3.9310    0.5220    6.0590 ha        1 PMQ      0.129000
     18 H26        -2.4410    2.2010    4.9480 ha        1 PMQ      0.142000
     19 OXT        -1.1880   -0.1060   -0.8910 oh        1 PMQ     -0.242000
     20 H192        0.5450   -0.4640    1.7020 hn        1 PMQ      0.241500
@<TRIPOS>BOND
     1    1    2 1   
     2    1    3 1   
     3    1   19 1   
     4    3    4 1   
     5    3   12 1   
     6    3   20 1   
     7    4    5 1   
     8    4   13 1   
     9    5    6 1   
    10    5   10 1   
    11    5   14 1   
    12    6    7 1   
    13    6   15 1   
    14    7    8 1   
    15    7   16 1   
    16    8    9 1   
    17    8   17 1   
    18    9   10 1   
    19    9   18 1   
    20   11   19 1   
@<TRIPOS>SUBSTRUCTURE
     1 PMQ         1 TEMP              0 ****  ****    0 ROOT
