@<TRIPOS>MOLECULE
PMQ
   20    20     1     0     0
SMALL
bcc


@<TRIPOS>ATOM
      1 C17         0.1110   -0.3360   -0.0140 c         1 PMQ      0.727100
      2 O18         1.3470   -0.4140   -0.0540 o         1 PMQ     -0.529000
      3 N19        -0.6200    0.1480    1.0670 n         1 PMQ     -0.578900
      4 C20        -2.0200   -0.1570    1.2270 c3        1 PMQ      0.129300
      5 C21        -2.4960   -0.0240    2.6430 ca        1 PMQ     -0.115300
      6 C22        -3.0770   -1.1180    3.2920 ca        1 PMQ     -0.113500
      7 C23        -3.5490   -0.9830    4.5970 ca        1 PMQ     -0.129000
      8 C24        -3.4380    0.2390    5.2600 ca        1 PMQ     -0.117000
      9 C25        -2.8540    1.3300    4.6150 ca        1 PMQ     -0.129000
     10 C26        -2.3850    1.2010    3.3090 ca        1 PMQ     -0.113500
     11 HN19       -1.4520   -0.5310   -1.1680 ho        1 PMQ      0.425000
     12 H20        -1.9300    2.0640    2.7980 ha        1 PMQ      0.138000
     13 H20A       -2.6100    0.5620    0.5830 h1        1 PMQ      0.045700
     14 H22        -2.2380   -1.2020    0.8540 h1        1 PMQ      0.045700
     15 H23        -3.1630   -2.0860    2.7760 ha        1 PMQ      0.138000
     16 H24        -4.0080   -1.8450    5.1040 ha        1 PMQ      0.137500
     17 H25        -3.8090    0.3430    6.2900 ha        1 PMQ      0.137000
     18 H26        -2.7650    2.2950    5.1360 ha        1 PMQ      0.137500
     19 OXT        -0.5050   -0.7240   -1.1790 oh        1 PMQ     -0.568100
     20 H192       -0.0920    0.3070    1.8970 hn        1 PMQ      0.330500
@<TRIPOS>BOND
     1    1    2 2   
     2    1    3 1   
     3    1   19 1   
     4    3    4 1   
     5    3   20 1   
     6    4    5 1   
     7    4   13 1   
     8    4   14 1   
     9    5    6 ar  
    10    5   10 ar  
    11    6    7 ar  
    12    6   15 1   
    13    7    8 ar  
    14    7   16 1   
    15    8    9 ar  
    16    8   17 1   
    17    9   10 ar  
    18    9   18 1   
    19   10   12 1   
    20   11   19 1   
@<TRIPOS>SUBSTRUCTURE
     1 PMQ         1 TEMP              0 ****  ****    0 ROOT
