@<TRIPOS>MOLECULE
PMQ
   19    19     1     0     0
SMALL
bcc


@<TRIPOS>ATOM
      1 C17        -2.7530    0.6360    0.1390 c         1 PMQ      0.989600
      2 O18        -2.8760    0.7990    1.3890 o         1 PMQ     -0.840800
      3 N19        -1.4600    0.2300   -0.3880 n         1 PMQ     -0.603900
      4 C20        -0.5730   -0.4820    0.4770 c3        1 PMQ      0.119300
      5 C21         0.8910   -0.2510    0.2020 ca        1 PMQ     -0.059300
      6 C22         1.3750    1.0250   -0.1110 ca        1 PMQ     -0.127000
      7 C23         2.7380    1.2280   -0.3230 ca        1 PMQ     -0.145000
      8 C24         3.6320    0.1620   -0.2220 ca        1 PMQ     -0.159000
      9 C25         3.1560   -1.1110    0.0900 ca        1 PMQ     -0.145000
     10 C26         1.7930   -1.3170    0.2990 ca        1 PMQ     -0.127000
     11 HN19       -1.5050   -0.1360   -1.3110 hn        1 PMQ      0.246500
     12 H20        -0.7810   -0.1440    1.5380 h1        1 PMQ      0.037700
     13 H20A       -0.7530   -1.6010    0.4420 h1        1 PMQ      0.037700
     14 H22         0.6670    1.8660   -0.1900 ha        1 PMQ      0.141500
     15 H23         3.1090    2.2320   -0.5700 ha        1 PMQ      0.111500
     16 H24         4.7050    0.3240   -0.3880 ha        1 PMQ      0.109000
     17 H25         3.8560   -1.9540    0.1710 ha        1 PMQ      0.111500
     18 H26         1.4230   -2.3230    0.5420 ha        1 PMQ      0.141500
     19 OXT        -3.6660    0.8200   -0.7200 o         1 PMQ     -0.840800
@<TRIPOS>BOND
     1    1    2 1   
     2    1    3 1   
     3    1   19 1   
     4    3    4 1   
     5    3   11 1   
     6    4    5 1   
     7    4   12 1   
     8    4   13 1   
     9    5    6 ar  
    10    5   10 ar  
    11    6    7 ar  
    12    6   14 1   
    13    7    8 ar  
    14    7   15 1   
    15    8    9 ar  
    16    8   16 1   
    17    9   10 ar  
    18    9   17 1   
    19   10   18 1   
@<TRIPOS>SUBSTRUCTURE
     1 PMQ         1 TEMP              0 ****  ****    0 ROOT
