@<TRIPOS>MOLECULE
PMQ
   20    20     1     0     0
SMALL
bcc


@<TRIPOS>ATOM
      1 C17        -0.1990    0.2430   -0.0860 c2        1 PMQ      0.290000
      2 O18         0.7840    0.7840   -0.5920 o         1 PMQ     -0.301000
      3 N19        -0.3330    0.0220    1.4030 ny        1 PMQ      0.086000
      4 C20        -1.4410   -0.8000    1.7000 c2        1 PMQ     -0.737000
      5 C21        -2.5870   -0.1870    2.4130 c3        1 PMQ     -0.021000
      6 C22        -3.3690   -1.1870    3.1840 c2        1 PMQ     -0.055000
      7 C23        -3.8370   -0.8980    4.4210 c2        1 PMQ     -0.224000
      8 C24        -3.5440    0.3670    5.0350 c2        1 PMQ      0.008000
      9 C25        -2.7650    1.2940    4.3980 c2        1 PMQ     -0.237000
     10 C26        -2.1880    1.0260    3.1380 c1        1 PMQ     -0.165000
     11 HN19       -1.8950   -0.6150   -0.3560 ho        1 PMQ      0.290000
     12 H20        -0.4730    0.9560    1.8440 hn        1 PMQ      0.241500
     13 H20A       -1.2820   -1.8760    1.7040 hx        1 PMQ      0.151000
     14 H22        -3.3250    0.2310    1.6330 hc        1 PMQ      0.130000
     15 H23        -3.5690   -2.1520    2.6960 ha        1 PMQ      0.136000
     16 H24        -4.4420   -1.6190    4.9910 ha        1 PMQ      0.135000
     17 H25        -3.9530    0.5530    6.0420 ha        1 PMQ      0.129000
     18 H26        -2.5340    2.2570    4.8790 ha        1 PMQ      0.142000
     19 OXT        -1.1910   -0.1700   -0.8910 oh        1 PMQ     -0.242000
     20 H192        0.5560   -0.3790    1.7080 hn        1 PMQ      0.241500
@<TRIPOS>BOND
     1    1    2 1   
     2    1    3 1   
     3    1   19 1   
     4    3    4 1   
     5    3   12 1   
     6    3   20 1   
     7    4    5 1   
     8    4   13 1   
     9    5    6 1   
    10    5   10 1   
    11    5   14 1   
    12    6    7 1   
    13    6   15 1   
    14    7    8 1   
    15    7   16 1   
    16    8    9 1   
    17    8   17 1   
    18    9   10 1   
    19    9   18 1   
    20   11   19 1   
@<TRIPOS>SUBSTRUCTURE
     1 PMQ         1 TEMP              0 ****  ****    0 ROOT
