@<TRIPOS>MOLECULE
PMS
   18    18     1     0     0
SMALL
bcc


@<TRIPOS>ATOM
      1 C           0.1170   -0.2180    0.0820 c3        1 PMS     -0.246300
      2 S           1.8220    0.3200   -0.1870 s6        1 PMS      1.426800
      3 C1         -0.4180   -0.1440    1.4490 ca        1 PMS      0.017700
      4 C2         -0.4270    1.0770    2.1450 ca        1 PMS     -0.139500
      5 C3         -0.9720    1.1560    3.4230 ca        1 PMS     -0.138000
      6 C4         -1.5140    0.0230    4.0310 ca        1 PMS     -0.168000
      7 C5         -1.4980   -1.1950    3.3550 ca        1 PMS     -0.138000
      8 C6         -0.9550   -1.2790    2.0740 ca        1 PMS     -0.139500
      9 O3S         1.9530    0.2010   -1.5910 o         1 PMS     -0.746533
     10 O2S         1.8630    1.6550    0.2740 o         1 PMS     -0.746533
     11 O1S         2.6320   -0.5780    0.5360 o         1 PMS     -0.746533
     12 H2A         0.0470   -1.2630   -0.3080 h1        1 PMS      0.073700
     13 H1         -0.5150    0.4230   -0.5850 h1        1 PMS      0.073700
     14 H2          0.0380    1.9600    1.6720 ha        1 PMS      0.147000
     15 H3         -0.9680    2.1160    3.9580 ha        1 PMS      0.109000
     16 H4         -1.9430    0.0900    5.0400 ha        1 PMS      0.105000
     17 H5         -1.9110   -2.0940    3.8330 ha        1 PMS      0.109000
     18 H6         -0.9380   -2.2450    1.5500 ha        1 PMS      0.147000
@<TRIPOS>BOND
     1    1    2 1   
     2    1    3 1   
     3    1   12 1   
     4    1   13 1   
     5    2    9 1   
     6    2   10 1   
     7    2   11 1   
     8    3    4 ar  
     9    3    8 ar  
    10    4    5 ar  
    11    4   14 1   
    12    5    6 ar  
    13    5   15 1   
    14    6    7 ar  
    15    6   16 1   
    16    7    8 ar  
    17    7   17 1   
    18    8   18 1   
@<TRIPOS>SUBSTRUCTURE
     1 PMS         1 TEMP              0 ****  ****    0 ROOT
