@<TRIPOS>MOLECULE
PMS
   18    18     1     0     0
SMALL
bcc


@<TRIPOS>ATOM
      1 C           0.1080   -0.1830    0.0760 c3        1 PMS     -0.246300
      2 S           1.8110    0.3600   -0.1910 s6        1 PMS      1.426800
      3 C1         -0.4190   -0.1390    1.4470 ca        1 PMS      0.017700
      4 C2         -0.4240    1.0670    2.1690 ca        1 PMS     -0.139500
      5 C3         -0.9620    1.1190    3.4520 ca        1 PMS     -0.138000
      6 C4         -1.5010   -0.0270    4.0390 ca        1 PMS     -0.168000
      7 C5         -1.4890   -1.2300    3.3360 ca        1 PMS     -0.138000
      8 C6         -0.9530   -1.2860    2.0500 ca        1 PMS     -0.139500
      9 O3S         1.9340    0.2720   -1.5980 o         1 PMS     -0.746533
     10 O2S         1.8560    1.6850    0.2990 o         1 PMS     -0.746533
     11 O1S         2.6250   -0.5540    0.5080 o         1 PMS     -0.746533
     12 H2A         0.0350   -1.2190   -0.3360 h1        1 PMS      0.073700
     13 H1         -0.5270    0.4720   -0.5730 h1        1 PMS      0.073700
     14 H2          0.0390    1.9600    1.7130 ha        1 PMS      0.147000
     15 H3         -0.9540    2.0670    4.0080 ha        1 PMS      0.109000
     16 H4         -1.9240    0.0180    5.0510 ha        1 PMS      0.105000
     17 H5         -1.9000   -2.1390    3.7970 ha        1 PMS      0.109000
     18 H6         -0.9400   -2.2410    1.5050 ha        1 PMS      0.147000
@<TRIPOS>BOND
     1    1    2 1   
     2    1    3 1   
     3    1   12 1   
     4    1   13 1   
     5    2    9 1   
     6    2   10 1   
     7    2   11 1   
     8    3    4 ar  
     9    3    8 ar  
    10    4    5 ar  
    11    4   14 1   
    12    5    6 ar  
    13    5   15 1   
    14    6    7 ar  
    15    6   16 1   
    16    7    8 ar  
    17    7   17 1   
    18    8   18 1   
@<TRIPOS>SUBSTRUCTURE
     1 PMS         1 TEMP              0 ****  ****    0 ROOT
