@<TRIPOS>MOLECULE
PMS
   18    18     1     0     0
SMALL
bcc


@<TRIPOS>ATOM
      1 C           0.5200   -0.2190   -1.0480 c3        1 PMS     -0.246300
      2 S           1.8630    0.3180    0.0360 s6        1 PMS      1.426800
      3 C1         -0.8530   -0.1450   -0.5270 ca        1 PMS      0.017700
      4 C2         -1.3740    1.0760   -0.0670 ca        1 PMS     -0.139500
      5 C3         -2.6870    1.1560    0.3860 ca        1 PMS     -0.138000
      6 C4         -3.5030    0.0240    0.3920 ca        1 PMS     -0.168000
      7 C5         -2.9910   -1.1950   -0.0490 ca        1 PMS     -0.138000
      8 C6         -1.6770   -1.2790   -0.5060 ca        1 PMS     -0.139500
      9 O3S         2.9930    0.1990   -0.8090 o         1 PMS     -0.746533
     10 O2S         1.5500    1.6540    0.3750 o         1 PMS     -0.746533
     11 O1S         1.8700   -0.5800    1.1220 o         1 PMS     -0.746533
     12 H2A         0.5910    0.4220   -1.9640 h1        1 PMS      0.073700
     13 H1          0.7620   -1.2640   -1.3620 h1        1 PMS      0.073700
     14 H2         -0.7110    1.9600   -0.0400 ha        1 PMS      0.147000
     15 H3         -3.0810    2.1160    0.7480 ha        1 PMS      0.109000
     16 H4         -4.5380    0.0900    0.7510 ha        1 PMS      0.105000
     17 H5         -3.6230   -2.0930   -0.0350 ha        1 PMS      0.109000
     18 H6         -1.2760   -2.2450   -0.8460 ha        1 PMS      0.147000
@<TRIPOS>BOND
     1    1    2 1   
     2    1    3 1   
     3    1   12 1   
     4    1   13 1   
     5    2    9 1   
     6    2   10 1   
     7    2   11 1   
     8    3    4 ar  
     9    3    8 ar  
    10    4    5 ar  
    11    4   14 1   
    12    5    6 ar  
    13    5   15 1   
    14    6    7 ar  
    15    6   16 1   
    16    7    8 ar  
    17    7   17 1   
    18    8   18 1   
@<TRIPOS>SUBSTRUCTURE
     1 PMS         1 TEMP              0 ****  ****    0 ROOT
