@<TRIPOS>MOLECULE
PMU
   46    45     1     0     0
SMALL
bcc


@<TRIPOS>ATOM
      1 C1         -2.9370   -0.4360   -0.2260 c2        1 PMU     -0.296000
      2 N1          1.9630    0.5240    0.2270 nu        1 PMU     -0.249000
      3 C2          3.5550    3.8160   -1.9020 ca        1 PMU      0.101000
      4 O2          1.8240   -1.1850    3.3830 oh        1 PMU     -0.137000
      5 C3          4.3500    3.1300   -0.9630 ca        1 PMU     -0.144000
      6 O3         -1.0930    0.2930    1.0230 oh        1 PMU     -0.302000
      7 C4          3.8260    2.0740   -0.2380 ca        1 PMU     -0.129000
      8 C5          2.4850    1.6650   -0.4270 ca        1 PMU      0.000000
      9 C6          1.6970    2.3610   -1.3650 ca        1 PMU     -0.119000
     10 C7          2.2230    3.4220   -2.1120 ca        1 PMU     -0.101000
     11 C8          2.4440    0.2810    1.5680 c3        1 PMU     -0.168000
     12 C9         -2.0860   -0.6320    0.7870 c2        1 PMU     -0.025000
     13 C10         1.4330   -0.4180    2.4290 c1        1 PMU      0.002000
     14 C12        -1.0970    2.7300   -6.9680 c3        1 PMU     -0.266000
     15 C15         1.3290    4.0740   -3.0910 c2        1 PMU      0.112000
     16 N16         1.2640    5.4260   -3.1280 n2        1 PMU     -0.261000
     17 C17         0.3940    5.9790   -4.0570 c2        1 PMU      0.164000
     18 C18        -1.6880   -0.8920   -7.4850 c3        1 PMU     -0.272000
     19 N18        -0.4190    5.2600   -4.9230 n2        1 PMU     -0.241000
     20 C19        -0.3290    3.9090   -4.8390 c2        1 PMU      0.027000
     21 C20         0.5470    3.2580   -3.9300 c2        1 PMU     -0.287000
     22 N21         0.3910    7.3760   -4.1840 nv        1 PMU     -0.320000
     23 H1         -3.7370   -1.1530   -0.4390 ha        1 PMU      0.124000
     24 H1A        -2.8800    0.4390   -0.8820 ha        1 PMU      0.124000
     25 HO1         3.5660    5.3230   -3.0990 ho        1 PMU      0.241000
     26 HO2         2.7970   -1.3050    3.4850 ho        1 PMU      0.167000
     27 H3          5.3930    3.4490   -0.8190 ha        1 PMU      0.151000
     28 HO3        -0.5790   -0.0150    1.7920 ho        1 PMU      0.245000
     29 H4          4.4700    1.5500    0.4830 ha        1 PMU      0.131000
     30 H6          0.6430    2.0750   -1.5210 ha        1 PMU      0.151000
     31 H8          2.7060    1.2400    2.1170 h1        1 PMU      0.097500
     32 H8A         0.9580    0.4790    0.1670 hn        1 PMU      0.215000
     33 H9         -2.1190   -1.4990    1.4640 h4        1 PMU      0.120000
     34 H10         3.4010   -0.3170    1.4790 h1        1 PMU      0.097500
     35 H11        -2.1950   -0.5590   -6.5530 hc        1 PMU      0.068500
     36 H12        -1.2790    1.6250   -7.0910 hc        1 PMU      0.127667
     37 H12A       -0.1320    3.0010   -7.4650 hc        1 PMU      0.127667
     38 H12B       -1.9400    3.2610   -7.5020 hc        1 PMU      0.127667
     39 H18        -2.0880   -0.3220   -8.3510 hc        1 PMU      0.068500
     40 H18A       -0.5930   -0.7160   -7.3970 hc        1 PMU      0.068500
     41 H18B       -1.8750   -1.9770   -7.6390 hc        1 PMU      0.068500
     42 H20         0.6020    2.1660   -3.8760 ha        1 PMU      0.162000
     43 HN21       -0.4040    7.7720   -4.6320 hn        1 PMU      0.219500
     44 HN2A        0.7460    7.8850   -3.4070 hn        1 PMU      0.219500
     45 O1          4.2040    4.8230   -2.5710 oh        1 PMU     -0.255000
     46 C11        -1.2370    3.0830   -5.5860 c1        1 PMU      0.044000
@<TRIPOS>BOND
     1    1   12 1   
     2    1   23 1   
     3    1   24 1   
     4    2    8 1   
     5    2   11 1   
     6    2   32 1   
     7    3    5 1   
     8    3   10 1   
     9    3   45 1   
    10    4   13 1   
    11    4   26 1   
    12    5    7 1   
    13    5   27 1   
    14    6   12 1   
    15    6   28 1   
    16    7    8 1   
    17    7   29 1   
    18    8    9 1   
    19    9   10 1   
    20    9   30 1   
    21   10   15 1   
    22   11   13 1   
    23   11   31 1   
    24   11   34 1   
    25   12   33 1   
    26   14   36 1   
    27   14   37 1   
    28   14   38 1   
    29   14   46 1   
    30   15   16 1   
    31   15   21 1   
    32   16   17 1   
    33   17   19 1   
    34   17   22 1   
    35   18   35 1   
    36   18   39 1   
    37   18   40 1   
    38   18   41 1   
    39   19   20 1   
    40   20   21 1   
    41   20   46 1   
    42   21   42 1   
    43   22   43 1   
    44   22   44 1   
    45   25   45 1   
@<TRIPOS>SUBSTRUCTURE
     1 PMU         1 TEMP              0 ****  ****    0 ROOT
