@<TRIPOS>MOLECULE
PMU
   46    45     1     0     0
SMALL
bcc


@<TRIPOS>ATOM
      1 C1         -2.9200   -0.5160   -0.5340 c2        1 PMU     -0.296000
      2 N1          1.9580    0.4910    0.1530 nh        1 PMU     -0.249000
      3 C2          3.6210    3.7850   -1.9170 ca        1 PMU      0.101000
      4 O2          1.6690   -1.1960    3.3110 oh        1 PMU     -0.137000
      5 C3          4.3690    3.1240   -0.9220 ca        1 PMU     -0.143000
      6 O3         -1.1340    0.2290    0.7870 oh        1 PMU     -0.302000
      7 C4          3.8200    2.0680   -0.2180 ca        1 PMU     -0.129000
      8 C5          2.5000    1.6320   -0.4830 ca        1 PMU      0.000000
      9 C6          1.7600    2.3030   -1.4760 ca        1 PMU     -0.119000
     10 C7          2.3110    3.3650   -2.2030 ca        1 PMU     -0.101000
     11 C8          2.3670    0.2680    1.5210 c3        1 PMU     -0.168000
     12 C9         -2.1150   -0.6990    0.5180 c2        1 PMU     -0.025000
     13 C10         1.3210   -0.4410    2.3320 c1        1 PMU      0.002000
     14 C12        -0.6700    2.5790   -7.2660 c3        1 PMU     -0.265000
     15 C15         1.4680    3.9880   -3.2430 c2        1 PMU      0.112000
     16 N16         1.3770    5.3380   -3.2980 n2        1 PMU     -0.260000
     17 C17         0.5560    5.8640   -4.2860 c2        1 PMU      0.164000
     18 C18        -2.4070   -0.3170   -5.8020 c3        1 PMU     -0.279000
     19 N18        -0.1830    5.1180   -5.1960 n2        1 PMU     -0.241000
     20 C19        -0.0690    3.7700   -5.0930 c2        1 PMU      0.026000
     21 C20         0.7600    3.1470   -4.1230 c2        1 PMU     -0.285000
     22 N21         0.5300    7.2580   -4.4260 nh        1 PMU     -0.320000
     23 H1         -3.7090   -1.2370   -0.7740 ha        1 PMU      0.124000
     24 H1A        -2.8340    0.3500   -1.1980 ha        1 PMU      0.124000
     25 HO1         3.6770    5.2780   -3.1300 ho        1 PMU      0.241000
     26 HO2         2.6360   -1.3020    3.4660 ho        1 PMU      0.167000
     27 H3          5.3950    3.4650   -0.7200 ha        1 PMU      0.151000
     28 HO3        -0.6570   -0.0680    1.5840 ho        1 PMU      0.245000
     29 H4          4.4280    1.5640    0.5480 ha        1 PMU      0.131000
     30 H6          0.7220    1.9960   -1.6930 ha        1 PMU      0.151000
     31 H8          2.5830    1.2350    2.0750 h1        1 PMU      0.097500
     32 H8A         0.9600    0.4300    0.0380 hn        1 PMU      0.215000
     33 H9         -2.1780   -1.5580    1.2040 h4        1 PMU      0.120000
     34 H10         3.3370   -0.3160    1.4930 h1        1 PMU      0.097500
     35 H11        -3.5100   -0.4380   -5.8670 hc        1 PMU      0.069500
     36 H12         0.3430    2.8170   -7.6780 hc        1 PMU      0.127333
     37 H12A       -1.4420    3.1620   -7.8510 hc        1 PMU      0.127333
     38 H12B       -0.8910    1.4880   -7.4260 hc        1 PMU      0.127333
     39 H18        -2.1620    0.7490   -5.5860 hc        1 PMU      0.069500
     40 H18A       -1.9440   -0.6160   -6.7680 hc        1 PMU      0.069500
     41 H18B       -2.0120   -0.9620   -4.9870 hc        1 PMU      0.069500
     42 H20         0.8340    2.0570   -4.0540 ha        1 PMU      0.163000
     43 HN21       -0.2420    7.6330   -4.9280 hn        1 PMU      0.219500
     44 HN2A        0.8240    7.7820   -3.6330 hn        1 PMU      0.219500
     45 O1          4.2910    4.7960   -2.5580 oh        1 PMU     -0.255000
     46 C11        -0.9060    2.9190   -5.8930 c1        1 PMU      0.044000
@<TRIPOS>BOND
     1    1   12 1   
     2    1   23 1   
     3    1   24 1   
     4    2    8 1   
     5    2   11 1   
     6    2   32 1   
     7    3    5 1   
     8    3   10 1   
     9    3   45 1   
    10    4   13 1   
    11    4   26 1   
    12    5    7 1   
    13    5   27 1   
    14    6   12 1   
    15    6   28 1   
    16    7    8 1   
    17    7   29 1   
    18    8    9 1   
    19    9   10 1   
    20    9   30 1   
    21   10   15 1   
    22   11   13 1   
    23   11   31 1   
    24   11   34 1   
    25   12   33 1   
    26   14   36 1   
    27   14   37 1   
    28   14   38 1   
    29   14   46 1   
    30   15   16 1   
    31   15   21 1   
    32   16   17 1   
    33   17   19 1   
    34   17   22 1   
    35   18   35 1   
    36   18   39 1   
    37   18   40 1   
    38   18   41 1   
    39   19   20 1   
    40   20   21 1   
    41   20   46 1   
    42   21   42 1   
    43   22   43 1   
    44   22   44 1   
    45   25   45 1   
@<TRIPOS>SUBSTRUCTURE
     1 PMU         1 TEMP              0 ****  ****    0 ROOT
