@<TRIPOS>MOLECULE
PMU
   46    48     1     0     0
SMALL
bcc


@<TRIPOS>ATOM
      1 C1          2.7720    1.3050   -0.1610 c3        1 PMU      0.145300
      2 N1          2.8640    0.0560    0.5870 nh        1 PMU     -0.617000
      3 C2         -0.4150   -2.6230    0.4580 ca        1 PMU      0.139100
      4 O2          6.0560    1.0960    0.8220 oh        1 PMU     -0.590800
      5 C3          0.8720   -3.0850    0.8010 ca        1 PMU     -0.137000
      6 O3          4.3500    1.9780   -1.9060 oh        1 PMU     -0.590800
      7 C4          1.9480   -2.2180    0.8150 ca        1 PMU     -0.132000
      8 C5          1.7840   -0.8490    0.4830 ca        1 PMU      0.106600
      9 C6          0.4890   -0.3980    0.1600 ca        1 PMU     -0.130000
     10 C7         -0.6090   -1.2690    0.1490 cp        1 PMU     -0.204500
     11 C8          4.2130   -0.4890    0.4730 c3        1 PMU      0.145300
     12 C9          4.2050    1.7710   -0.5130 c3        1 PMU      0.131100
     13 C10         5.1350    0.5980   -0.1300 c3        1 PMU      0.131100
     14 C12        -4.1890    2.0480    2.3090 c3        1 PMU     -0.090600
     15 C15        -1.9260   -0.6920   -0.1870 cp        1 PMU      0.533800
     16 N16        -2.6980   -1.2970   -1.1190 nb        1 PMU     -0.774000
     17 C17        -3.9010   -0.6730   -1.4210 ca        1 PMU      0.876900
     18 C18        -3.1030    3.4410    0.5390 c3        1 PMU     -0.090600
     19 N18        -4.3810    0.4800   -0.8080 nb        1 PMU     -0.753000
     20 C19        -3.5820    1.0420    0.1220 ca        1 PMU      0.489600
     21 C20        -2.3270    0.4930    0.4660 ca        1 PMU     -0.410600
     22 N21        -4.6620   -1.2110   -2.4630 nh        1 PMU     -0.932500
     23 H1          2.1750    1.1980   -1.1110 h1        1 PMU      0.053950
     24 H1A         2.2650    2.0610    0.4980 h1        1 PMU      0.053950
     25 HO1        -2.2140   -3.2160    0.1330 ho        1 PMU      0.436000
     26 HO2         6.6420    0.3660    1.0520 ho        1 PMU      0.406000
     27 H3          1.0010   -4.1470    1.0570 ha        1 PMU      0.152000
     28 HO3         3.8580    2.7780   -2.1210 ho        1 PMU      0.406000
     29 H4          2.9370   -2.6090    1.1010 ha        1 PMU      0.137000
     30 H6          0.3100    0.6610   -0.0860 ha        1 PMU      0.139000
     31 H8          4.5590   -0.7670    1.5060 h1        1 PMU      0.053950
     32 H8A         4.2500   -1.4070   -0.1780 h1        1 PMU      0.053950
     33 H9          4.4830    2.6970    0.0570 h1        1 PMU      0.072700
     34 H10         5.6790    0.2090   -1.0320 h1        1 PMU      0.072700
     35 H11        -5.0740    2.5880    0.4230 hc        1 PMU      0.076700
     36 H12        -4.5610    2.9720    2.8140 hc        1 PMU      0.040700
     37 H12A       -4.9120    1.2200    2.5030 hc        1 PMU      0.040700
     38 H12B       -3.2030    1.7720    2.7560 hc        1 PMU      0.040700
     39 H18        -2.0830    3.2130    0.9330 hc        1 PMU      0.040700
     40 H18A       -3.0270    3.6250   -0.5590 hc        1 PMU      0.040700
     41 H18B       -3.4740    4.3710    1.0330 hc        1 PMU      0.040700
     42 H20        -1.6900    0.9620    1.2250 ha        1 PMU      0.160000
     43 HN21       -4.4540   -2.1410   -2.7410 hn        1 PMU      0.430300
     44 HN2A       -5.6110   -0.9270   -2.5200 hn        1 PMU      0.430300
     45 O1         -1.3980   -3.5800    0.5010 oh        1 PMU     -0.500100
     46 C11        -4.0580    2.2980    0.8200 c3        1 PMU     -0.125000
@<TRIPOS>BOND
     1    1    2 1   
     2    1   12 1   
     3    1   23 1   
     4    1   24 1   
     5    2    8 1   
     6    2   11 1   
     7    3    5 ar  
     8    3   10 ar  
     9    3   45 1   
    10    4   13 1   
    11    4   26 1   
    12    5    7 ar  
    13    5   27 1   
    14    6   12 1   
    15    6   28 1   
    16    7    8 ar  
    17    7   29 1   
    18    8    9 ar  
    19    9   10 ar  
    20    9   30 1   
    21   10   15 1   
    22   11   13 1   
    23   11   31 1   
    24   11   32 1   
    25   12   13 1   
    26   12   33 1   
    27   13   34 1   
    28   14   36 1   
    29   14   37 1   
    30   14   38 1   
    31   14   46 1   
    32   15   16 ar  
    33   15   21 ar  
    34   16   17 ar  
    35   17   19 ar  
    36   17   22 1   
    37   18   39 1   
    38   18   40 1   
    39   18   41 1   
    40   18   46 1   
    41   19   20 ar  
    42   20   21 ar  
    43   20   46 1   
    44   21   42 1   
    45   22   43 1   
    46   22   44 1   
    47   25   45 1   
    48   35   46 1   
@<TRIPOS>SUBSTRUCTURE
     1 PMU         1 TEMP              0 ****  ****    0 ROOT
