@<TRIPOS>MOLECULE
PMU
   47    46     1     0     0
SMALL
bcc


@<TRIPOS>ATOM
      1 C1         -0.1100   -0.5220   -0.5720 c3        1 PMU     -0.149000
      2 N1          1.2000   -0.6050   -1.1790 nh        1 PMU     -0.237000
      3 C2          3.1920    2.8800   -2.5240 ca        1 PMU      0.101000
      4 O2          0.3810    0.0250    3.7260 oh        1 PMU     -0.308000
      5 C3          3.8740    1.9240   -1.7420 ca        1 PMU     -0.127000
      6 O3         -1.2620    0.1330    1.3570 oh        1 PMU     -0.224000
      7 C4          3.2060    0.8150   -1.2610 ca        1 PMU     -0.110000
      8 C5          1.8320    0.6010   -1.5590 ca        1 PMU      0.024000
      9 C6          1.1670    1.5590   -2.3400 ca        1 PMU     -0.119000
     10 C7          1.8330    2.7010   -2.8190 ca        1 PMU     -0.138000
     11 C8          2.4250    1.0330    4.4840 c2        1 PMU     -0.339000
     12 C9         -0.0820   -0.2260    0.9070 c1        1 PMU     -0.057000
     13 C10         1.1360    0.7180    4.6400 c2        1 PMU     -0.007000
     14 C12        -1.8470    3.2960   -7.5260 c3        1 PMU     -0.225000
     15 C15         1.0450    3.6580   -3.6070 c2        1 PMU      0.133000
     16 N16         1.1270    4.9970   -3.3020 n2        1 PMU     -0.203000
     17 C17         0.3330    5.8060   -4.0490 c2        1 PMU      0.021000
     18 C18        -1.4660   -0.2580   -6.9680 c3        1 PMU     -0.275000
     19 N18        -0.5200    5.4930   -5.0720 n2        1 PMU     -0.218000
     20 C19        -0.6020    4.1450   -5.3430 c2        1 PMU      0.082000
     21 C20         0.1960    3.1930   -4.6180 c2        1 PMU     -0.233000
     22 N21         0.4030    7.2640   -3.7050 n4        1 PMU     -0.013000
     23 H1         -0.5840   -1.5450   -0.6950 h1        1 PMU      0.120000
     24 H1A        -0.7520    0.2110   -1.1350 h1        1 PMU      0.120000
     25 HO1         3.5250    4.3700   -3.6830 ho        1 PMU      0.214000
     26 HO2         0.9380   -0.2220    2.9660 ho        1 PMU      0.238000
     27 H3          4.9400    2.0860   -1.5190 ha        1 PMU      0.168000
     28 HO3        -1.1990    0.2760    2.3250 ho        1 PMU      0.285000
     29 H4          3.7560    0.0840   -0.6450 ha        1 PMU      0.154000
     30 H6          0.1010    1.4300   -2.5890 ha        1 PMU      0.140000
     31 H8          2.9740    1.5850    5.2550 ha        1 PMU      0.125500
     32 H8A         1.8120   -1.1770   -0.6230 hn        1 PMU      0.195000
     33 H9          0.5130    0.9660    5.5150 h4        1 PMU      0.162000
     34 H10         3.0030    0.7540    3.5960 ha        1 PMU      0.125500
     35 H11        -2.5540   -0.0630   -6.8510 hc        1 PMU      0.069250
     36 H12        -1.0640    3.5680   -8.2800 hc        1 PMU      0.164667
     37 H12A       -2.8420    3.7400   -7.8310 hc        1 PMU      0.164667
     38 H12B       -2.0070    2.1690   -7.5430 hc        1 PMU      0.164667
     39 H18        -1.1510   -0.0210   -8.0080 hc        1 PMU      0.069250
     40 H18A       -0.8930    0.3700   -6.2500 hc        1 PMU      0.069250
     41 H18B       -1.2610   -1.3310   -6.7600 hc        1 PMU      0.069250
     42 H20         0.1330    2.1210   -4.8530 ha        1 PMU      0.188000
     43 HN21        0.6600    7.7980   -4.5430 hn        1 PMU      0.273000
     44 HN2A        1.1030    7.4160   -2.9670 hn        1 PMU      0.273000
     45 C11        -1.5810    3.6600   -6.1970 c1        1 PMU      0.029000
     46 H213       -0.5190    7.5690   -3.3740 hn        1 PMU      0.273000
     47 O1          3.9580    3.9450   -2.9320 oh        1 PMU     -0.235000
@<TRIPOS>BOND
     1    1    2 1   
     2    1   12 1   
     3    1   23 1   
     4    1   24 1   
     5    2    8 1   
     6    2   32 1   
     7    3    5 1   
     8    3   10 1   
     9    3   47 1   
    10    4   13 1   
    11    4   26 1   
    12    5    7 1   
    13    5   27 1   
    14    6   12 1   
    15    6   28 1   
    16    7    8 1   
    17    7   29 1   
    18    8    9 1   
    19    9   10 1   
    20    9   30 1   
    21   10   15 1   
    22   11   13 1   
    23   11   31 1   
    24   11   34 1   
    25   13   33 1   
    26   14   36 1   
    27   14   37 1   
    28   14   38 1   
    29   14   45 1   
    30   15   16 1   
    31   15   21 1   
    32   16   17 1   
    33   17   19 1   
    34   17   22 1   
    35   18   35 1   
    36   18   39 1   
    37   18   40 1   
    38   18   41 1   
    39   19   20 1   
    40   20   21 1   
    41   20   45 1   
    42   21   42 1   
    43   22   43 1   
    44   22   44 1   
    45   22   46 1   
    46   25   47 1   
@<TRIPOS>SUBSTRUCTURE
     1 PMU         1 TEMP              0 ****  ****    0 ROOT
