@<TRIPOS>MOLECULE
PMV
   24    23     1     0     0
SMALL
bcc


@<TRIPOS>ATOM
      1 OP2         0.5040   -0.6130   -0.3220 o         1 PMV     -0.942833
      2 P           1.7680    0.0940    0.1000 p5        1 PMV      1.320900
      3 OP3         1.8270    0.5110    1.5470 o         1 PMV     -0.942833
      4 OP1         3.0380   -0.4900   -0.4660 o         1 PMV     -0.942833
      5 O5          1.6380    1.6200   -0.7120 os        1 PMV     -0.574200
      6 C5          1.7480    1.5730   -2.0800 c3        1 PMV      0.231400
      7 C4          2.5520    2.7800   -2.5960 c3        1 PMV     -0.140400
      8 C3          2.2710    3.1800   -4.0570 c3        1 PMV      0.170800
      9 O3A         0.9690    3.7720   -4.1600 oh        1 PMV     -0.622800
     10 C3A         2.3400    1.9610   -4.9670 c3        1 PMV     -0.113100
     11 C2          3.2800    4.2530   -4.4860 c3        1 PMV     -0.164400
     12 C1          3.2140    4.8080   -5.9120 c         1 PMV      0.916600
     13 O2          3.1070    6.0670   -6.0580 o         1 PMV     -0.884800
     14 O1          3.3670    4.0450   -6.9160 o         1 PMV     -0.884800
     15 H51         0.7200    1.6130   -2.5600 h1        1 PMV     -0.018300
     16 H52         2.2460    0.6170   -2.4090 h1        1 PMV     -0.018300
     17 H41         2.3260    3.6610   -1.9420 hc        1 PMV      0.032700
     18 H42         3.6410    2.5490   -2.4900 hc        1 PMV      0.032700
     19 HO3A        0.3880    3.2350   -3.6080 ho        1 PMV      0.391000
     20 H3A1        1.4940    1.2680   -4.7440 hc        1 PMV      0.035033
     21 H3A2        3.3000    1.4210   -4.7920 hc        1 PMV      0.035033
     22 H3A3        2.2910    2.2850   -6.0350 hc        1 PMV      0.035033
     23 H21         3.1760    5.1170   -3.7790 hc        1 PMV      0.023700
     24 H22         4.3020    3.8100   -4.3580 hc        1 PMV      0.023700
@<TRIPOS>BOND
     1    1    2 1   
     2    2    3 1   
     3    2    4 1   
     4    2    5 1   
     5    5    6 1   
     6    6    7 1   
     7    6   15 1   
     8    6   16 1   
     9    7    8 1   
    10    7   17 1   
    11    7   18 1   
    12    8    9 1   
    13    8   10 1   
    14    8   11 1   
    15    9   19 1   
    16   10   20 1   
    17   10   21 1   
    18   10   22 1   
    19   11   12 1   
    20   11   23 1   
    21   11   24 1   
    22   12   13 1   
    23   12   14 1   
@<TRIPOS>SUBSTRUCTURE
     1 PMV         1 TEMP              0 ****  ****    0 ROOT
