@<TRIPOS>MOLECULE
PMV
   24    23     1     0     0
SMALL
bcc


@<TRIPOS>ATOM
      1 OP2         3.2520   -0.9970    1.0930 o         1 PMV     -0.945167
      2 P           3.3800    0.0740    0.0370 p5        1 PMV      1.317900
      3 OP3         4.3780    1.1650    0.3350 o         1 PMV     -0.945167
      4 OP1         3.3770   -0.4310   -1.3850 o         1 PMV     -0.945167
      5 O5          1.8750    0.9150    0.1560 os        1 PMV     -0.574200
      6 C5          0.8050    0.0650   -0.0340 c3        1 PMV      0.198400
      7 C4         -0.5080    0.8480    0.0670 c3        1 PMV     -0.125400
      8 C3         -1.7900   -0.0050    0.0810 c3        1 PMV      0.169800
      9 O3A        -1.8800   -0.7250    1.3170 oh        1 PMV     -0.622800
     10 C3A        -1.7880   -0.9930   -1.0780 c3        1 PMV     -0.113100
     11 C2         -3.0050    0.9300    0.0220 c3        1 PMV     -0.163400
     12 C1         -4.4120    0.3320   -0.0680 c         1 PMV      0.915600
     13 O2         -5.2640    0.6750    0.8120 o         1 PMV     -0.884300
     14 O1         -4.7470   -0.3990   -1.0520 o         1 PMV     -0.884300
     15 H51         0.8850   -0.4220   -1.0480 h1        1 PMV     -0.000800
     16 H52         0.8360   -0.7540    0.7420 h1        1 PMV     -0.000800
     17 H41        -0.4830    1.4600    1.0060 hc        1 PMV      0.026200
     18 H42        -0.5610    1.5570   -0.7970 hc        1 PMV      0.026200
     19 HO3A       -1.0060   -1.1050    1.4660 ho        1 PMV      0.397000
     20 H3A1       -0.9940   -1.7620   -0.9230 hc        1 PMV      0.035700
     21 H3A2       -2.7860   -1.4910   -1.1500 hc        1 PMV      0.035700
     22 H3A3       -1.5830   -0.4510   -2.0300 hc        1 PMV      0.035700
     23 H21        -2.9710    1.5830    0.9330 hc        1 PMV      0.022700
     24 H22        -2.8750    1.5780   -0.8840 hc        1 PMV      0.022700
@<TRIPOS>BOND
     1    1    2 1   
     2    2    3 1   
     3    2    4 1   
     4    2    5 1   
     5    5    6 1   
     6    6    7 1   
     7    6   15 1   
     8    6   16 1   
     9    7    8 1   
    10    7   17 1   
    11    7   18 1   
    12    8    9 1   
    13    8   10 1   
    14    8   11 1   
    15    9   19 1   
    16   10   20 1   
    17   10   21 1   
    18   10   22 1   
    19   11   12 1   
    20   11   23 1   
    21   11   24 1   
    22   12   13 1   
    23   12   14 1   
@<TRIPOS>SUBSTRUCTURE
     1 PMV         1 TEMP              0 ****  ****    0 ROOT
