@<TRIPOS>MOLECULE
PMV
   24    23     1     0     0
SMALL
bcc


@<TRIPOS>ATOM
      1 OP2         0.3240   -0.4470   -0.1240 o         1 PMV     -0.945500
      2 P           1.7660   -0.0330    0.0300 p5        1 PMV      1.321900
      3 OP3         2.2300    0.1700    1.4510 o         1 PMV     -0.945500
      4 OP1         2.7300   -0.7620   -0.8730 o         1 PMV     -0.945500
      5 O5          1.7820    1.5830   -0.5840 os        1 PMV     -0.580200
      6 C5          1.6040    1.7150   -1.9430 c3        1 PMV      0.229400
      7 C4          2.5800    2.7590   -2.5080 c3        1 PMV     -0.094400
      8 C3          2.2950    3.2130   -3.9480 c3        1 PMV      0.174800
      9 O3A         1.1520    4.0690   -3.8990 oh        1 PMV     -0.636800
     10 C3A         2.0020    2.0240   -4.8560 c3        1 PMV     -0.111100
     11 C2          3.5050    3.9930   -4.4880 c3        1 PMV     -0.206400
     12 C1          3.3860    4.5770   -5.8960 c         1 PMV      0.903600
     13 O2          2.2580    4.9140   -6.3740 o         1 PMV     -0.884800
     14 O1          4.4570    4.7550   -6.5580 o         1 PMV     -0.884800
     15 H51         1.7640    0.7270   -2.4600 h1        1 PMV     -0.009800
     16 H52         0.5580    2.0820   -2.1750 h1        1 PMV     -0.009800
     17 H41         2.5540    3.6610   -1.8440 hc        1 PMV      0.027700
     18 H42         3.6150    2.3340   -2.4730 hc        1 PMV      0.027700
     19 HO3A        1.0630    4.4460   -4.7870 ho        1 PMV      0.416000
     20 H3A1        2.8190    1.2710   -4.7670 hc        1 PMV      0.030700
     21 H3A2        1.0390    1.5480   -4.5510 hc        1 PMV      0.030700
     22 H3A3        1.9240    2.3680   -5.9150 hc        1 PMV      0.030700
     23 H21         4.3990    3.3200   -4.4630 hc        1 PMV      0.030200
     24 H22         3.7000    4.8530   -3.7960 hc        1 PMV      0.030200
@<TRIPOS>BOND
     1    1    2 1   
     2    2    3 1   
     3    2    4 1   
     4    2    5 1   
     5    5    6 1   
     6    6    7 1   
     7    6   15 1   
     8    6   16 1   
     9    7    8 1   
    10    7   17 1   
    11    7   18 1   
    12    8    9 1   
    13    8   10 1   
    14    8   11 1   
    15    9   19 1   
    16   10   20 1   
    17   10   21 1   
    18   10   22 1   
    19   11   12 1   
    20   11   23 1   
    21   11   24 1   
    22   12   13 1   
    23   12   14 1   
@<TRIPOS>SUBSTRUCTURE
     1 PMV         1 TEMP              0 ****  ****    0 ROOT
