@<TRIPOS>MOLECULE
PMX
   35    35     1     0     0
SMALL
bcc


@<TRIPOS>ATOM
      1 C           0.5170   -3.7270    0.7070 c         1 PMX      0.910600
      2 N          -0.3660   -1.3760    0.6460 n         1 PMX     -0.493900
      3 O          -0.3440   -3.9440    1.6030 o         1 PMX     -0.822300
      4 CL          3.5540    3.1490    1.2910 cl        1 PMX     -0.132400
      5 CA          0.7090   -2.2420    0.2010 c3        1 PMX     -0.061300
      6 CB          2.0870   -1.7890    0.7050 c3        1 PMX     -0.037100
      7 CG          2.5750   -0.5270    0.0900 ca        1 PMX     -0.065300
      8 OAA        -0.8330   -0.4620   -1.4320 o         1 PMX     -0.628100
      9 CAC         3.3360    0.6910   -1.8700 ca        1 PMX     -0.149000
     10 CAD        -3.3650    0.3770   -0.5090 ce        1 PMX     -0.182200
     11 CAE        -2.4150   -0.0850    0.3130 cf        1 PMX     -0.117200
     12 CAF        -1.1530   -0.6790   -0.2400 c         1 PMX      0.627300
     13 CAK         3.5640    1.8280   -1.0750 ca        1 PMX      0.109100
     14 OAL         4.0640    2.9340   -1.7280 oh        1 PMX     -0.505100
     15 OAM        -4.9600    1.1820    1.1650 o         1 PMX     -0.553000
     16 CAN        -4.6050    0.9650    0.0020 c         1 PMX      0.630300
     17 CAS         3.2910    1.7800    0.3000 ca        1 PMX     -0.065600
     18 OAU        -5.4790    1.3200   -0.9990 os        1 PMX     -0.437900
     19 CAV        -6.7150    1.8970   -0.5880 c3        1 PMX      0.128700
     20 CD1         2.7960    0.6070    0.8760 ca        1 PMX     -0.095000
     21 CD2         2.8480   -0.4690   -1.2860 ca        1 PMX     -0.082000
     22 OXT         1.2600   -4.5880    0.1710 o         1 PMX     -0.822300
     23 HN         -0.8110   -1.7200    1.4770 hn        1 PMX      0.322500
     24 HA          0.7260   -2.2640   -0.9260 h1        1 PMX      0.072700
     25 HB          2.0660   -1.6940    1.8230 hc        1 PMX      0.065200
     26 HBA         2.7980   -2.6240    0.4490 hc        1 PMX      0.065200
     27 HAC         3.5430    0.7440   -2.9480 ha        1 PMX      0.143000
     28 HAD        -3.2580    0.3400   -1.6080 ha        1 PMX      0.176000
     29 HAE        -2.5280   -0.0420    1.4100 ha        1 PMX      0.150000
     30 HOAL        4.1030    3.6620   -1.0900 ho        1 PMX      0.418000
     31 HAV        -7.2500    2.0920   -1.5500 h1        1 PMX      0.044367
     32 HAVA       -7.2790    1.1770    0.0540 h1        1 PMX      0.044367
     33 HAVB       -6.5290    2.8420   -0.0250 h1        1 PMX      0.044367
     34 HD1         2.5750    0.5780    1.9540 ha        1 PMX      0.145000
     35 HD2         2.6570   -1.3590   -1.9070 ha        1 PMX      0.153000
@<TRIPOS>BOND
     1    1    3 1   
     2    1    5 1   
     3    1   22 1   
     4    2    5 1   
     5    2   12 1   
     6    2   23 1   
     7    4   17 1   
     8    5    6 1   
     9    5   24 1   
    10    6    7 1   
    11    6   25 1   
    12    6   26 1   
    13    7   20 ar  
    14    7   21 ar  
    15    8   12 2   
    16    9   13 ar  
    17    9   21 ar  
    18    9   27 1   
    19   10   11 2   
    20   10   16 1   
    21   10   28 1   
    22   11   12 1   
    23   11   29 1   
    24   13   14 1   
    25   13   17 ar  
    26   14   30 1   
    27   15   16 2   
    28   16   18 1   
    29   17   20 ar  
    30   18   19 1   
    31   19   31 1   
    32   19   32 1   
    33   19   33 1   
    34   20   34 1   
    35   21   35 1   
@<TRIPOS>SUBSTRUCTURE
     1 PMX         1 TEMP              0 ****  ****    0 ROOT
