@<TRIPOS>MOLECULE
PMX
   36    36     1     0     0
SMALL
bcc


@<TRIPOS>ATOM
      1 C          -0.1960   -0.4570   -0.0590 c         1 PMX      0.936600
      2 N           1.1300    1.2030   -1.4500 n4        1 PMX     -0.651800
      3 O          -0.1930   -1.6100    0.4030 o         1 PMX     -0.752800
      4 CL          5.6600    4.0910    0.2440 cl        1 PMX     -0.066400
      5 CA          1.2680    0.1000   -0.4430 c3        1 PMX     -0.066500
      6 CB          1.9210    0.5710    0.8490 c3        1 PMX     -0.047100
      7 CG          3.3700    0.8710    0.7010 ca        1 PMX     -0.135300
      8 OAA         0.2660    0.9770   -3.6020 o         1 PMX     -0.414100
      9 CAC         5.6650    0.0980    0.6280 ca        1 PMX     -0.206000
     10 CAD         3.6000    0.5140   -3.5090 ce        1 PMX     -0.132200
     11 CAE         2.4140   -0.0380   -3.2450 cf        1 PMX     -0.157200
     12 CAF         1.2050    0.7240   -2.8570 c         1 PMX      0.553300
     13 CAK         6.1090    1.4210    0.4700 ca        1 PMX      0.133100
     14 OAL         7.4410    1.7280    0.3370 oh        1 PMX     -0.481100
     15 OAM         3.1500    2.7940   -2.7950 o         1 PMX     -0.573000
     16 CAN         3.8650    1.9560   -3.3620 c         1 PMX      0.626300
     17 CAS         5.1760    2.4750    0.4310 ca        1 PMX     -0.015600
     18 OAU         5.0370    2.3540   -3.9180 os        1 PMX     -0.404900
     19 CAV         5.3800    3.7400   -3.7760 c3        1 PMX      0.120700
     20 CD1         3.8130    2.1880    0.5530 ca        1 PMX     -0.105000
     21 CD2         4.3070   -0.1700    0.7430 ca        1 PMX     -0.082000
     22 OXT        -1.1340    0.3480   -0.2750 o         1 PMX     -0.752800
     23 HN          1.8480    1.9250   -1.3060 hn        1 PMX      0.477300
     24 HA          1.8640   -0.7370   -0.8950 hx        1 PMX      0.082700
     25 HB          1.7760   -0.2720    1.5860 hc        1 PMX      0.093200
     26 HBA         1.3730    1.4600    1.2620 hc        1 PMX      0.093200
     27 HAC         6.3980   -0.7220    0.6720 ha        1 PMX      0.144000
     28 HAD         4.4570   -0.0900   -3.8600 ha        1 PMX      0.185000
     29 HAE         2.2320   -1.1250   -3.3580 ha        1 PMX      0.197000
     30 HOAL        7.9500    0.9160    0.4840 ho        1 PMX      0.427000
     31 HAV         5.4740    3.9940   -2.6920 h1        1 PMX      0.065700
     32 HAVA        6.3620    3.8140   -4.3060 h1        1 PMX      0.065700
     33 HAVB        4.5990    4.3730   -4.2590 h1        1 PMX      0.065700
     34 HD1         3.0850    3.0160    0.5460 ha        1 PMX      0.149000
     35 HD2         3.9610   -1.2080    0.8790 ha        1 PMX      0.152000
     36 H2          0.1750    1.6070   -1.2870 hn        1 PMX      0.477300
@<TRIPOS>BOND
     1    1    3 1   
     2    1    5 1   
     3    1   22 1   
     4    2    5 1   
     5    2   12 1   
     6    2   23 1   
     7    2   36 1   
     8    4   17 1   
     9    5    6 1   
    10    5   24 1   
    11    6    7 1   
    12    6   25 1   
    13    6   26 1   
    14    7   20 ar  
    15    7   21 ar  
    16    8   12 2   
    17    9   13 ar  
    18    9   21 ar  
    19    9   27 1   
    20   10   11 2   
    21   10   16 1   
    22   10   28 1   
    23   11   12 1   
    24   11   29 1   
    25   13   14 1   
    26   13   17 ar  
    27   14   30 1   
    28   15   16 2   
    29   16   18 1   
    30   17   20 ar  
    31   18   19 1   
    32   19   31 1   
    33   19   32 1   
    34   19   33 1   
    35   20   34 1   
    36   21   35 1   
@<TRIPOS>SUBSTRUCTURE
     1 PMX         1 TEMP              0 ****  ****    0 ROOT
