@<TRIPOS>MOLECULE
PMX
   36    36     1     0     0
SMALL
bcc


@<TRIPOS>ATOM
      1 C          -0.1750   -0.3630    0.1340 c         1 PMX      0.936600
      2 N           1.1160    1.2810   -1.3080 n4        1 PMX     -0.651800
      3 O          -0.1810   -1.5240    0.5740 o         1 PMX     -0.752800
      4 CL          5.8340    3.9910    0.1470 cl        1 PMX     -0.066400
      5 CA          1.2800    0.1550   -0.3310 c3        1 PMX     -0.066500
      6 CB          2.0280    0.5790    0.9250 c3        1 PMX     -0.047100
      7 CG          3.4730    0.8360    0.6910 ca        1 PMX     -0.135300
      8 OAA         0.1120    1.1260   -3.4050 o         1 PMX     -0.414100
      9 CAC         5.7330   -0.0080    0.4600 ca        1 PMX     -0.206000
     10 CAD         3.4270    0.5510   -3.5320 ce        1 PMX     -0.132200
     11 CAE         2.2410    0.0340   -3.2030 cf        1 PMX     -0.157200
     12 CAF         1.0860    0.8280   -2.7250 c         1 PMX      0.553300
     13 CAK         6.2090    1.3040    0.2980 ca        1 PMX      0.133100
     14 OAL         7.5390    1.5720    0.0850 oh        1 PMX     -0.481100
     15 OAM         3.1010    2.8310   -2.7500 o         1 PMX     -0.573000
     16 CAN         3.7490    1.9820   -3.3770 c         1 PMX      0.626300
     17 CAS         5.3100    2.3880    0.3360 ca        1 PMX     -0.015600
     18 OAU         4.8970    2.3510   -3.9980 os        1 PMX     -0.404900
     19 CAV         5.2960    3.7220   -3.8530 c3        1 PMX      0.120700
     20 CD1         3.9490    2.1410    0.5390 ca        1 PMX     -0.105000
     21 CD2         4.3760   -0.2350    0.6550 ca        1 PMX     -0.082000
     22 OXT        -1.0970    0.4760   -0.0080 o         1 PMX     -0.752800
     23 HN          0.1880    1.7120   -1.0770 hn        1 PMX      0.477300
     24 HA          1.8180   -0.6920   -0.8350 hx        1 PMX      0.082700
     25 HB          1.9010   -0.2740    1.6540 hc        1 PMX      0.093200
     26 HBA         1.5360    1.4760    1.3870 hc        1 PMX      0.093200
     27 HAC         6.4400   -0.8500    0.4420 ha        1 PMX      0.144000
     28 HAD         4.2390   -0.0730   -3.9460 ha        1 PMX      0.185000
     29 HAE         2.0160   -1.0440   -3.3230 ha        1 PMX      0.197000
     30 HOAL        8.0300    0.7410    0.1850 ho        1 PMX      0.427000
     31 HAV         4.5080    4.3900   -4.2750 h1        1 PMX      0.065700
     32 HAVA        6.2450    3.7740   -4.4420 h1        1 PMX      0.065700
     33 HAVB        5.4660    3.9520   -2.7730 h1        1 PMX      0.065700
     34 HD1         3.2490    2.9910    0.5930 ha        1 PMX      0.149000
     35 HD2         4.0060   -1.2640    0.7940 ha        1 PMX      0.152000
     36 H2          1.8650    1.9770   -1.1980 hn        1 PMX      0.477300
@<TRIPOS>BOND
     1    1    3 1   
     2    1    5 1   
     3    1   22 1   
     4    2    5 1   
     5    2   12 1   
     6    2   23 1   
     7    2   36 1   
     8    4   17 1   
     9    5    6 1   
    10    5   24 1   
    11    6    7 1   
    12    6   25 1   
    13    6   26 1   
    14    7   20 ar  
    15    7   21 ar  
    16    8   12 2   
    17    9   13 ar  
    18    9   21 ar  
    19    9   27 1   
    20   10   11 2   
    21   10   16 1   
    22   10   28 1   
    23   11   12 1   
    24   11   29 1   
    25   13   14 1   
    26   13   17 ar  
    27   14   30 1   
    28   15   16 2   
    29   16   18 1   
    30   17   20 ar  
    31   18   19 1   
    32   19   31 1   
    33   19   32 1   
    34   19   33 1   
    35   20   34 1   
    36   21   35 1   
@<TRIPOS>SUBSTRUCTURE
     1 PMX         1 TEMP              0 ****  ****    0 ROOT
