@<TRIPOS>MOLECULE
PMX
   36    36     1     0     0
SMALL
bcc


@<TRIPOS>ATOM
      1 C          -0.2590   -0.3190    0.0970 c         1 PMX      0.937600
      2 N           1.1360    1.2090   -1.3800 ny        1 PMX     -0.652800
      3 O          -0.3080   -1.4370    0.6350 o         1 PMX     -0.751800
      4 Cl          5.9390    3.8420    0.3240 cl        1 PMX     -0.090400
      5 CA          1.2290    0.1360   -0.3350 c3        1 PMX     -0.065500
      6 CB          1.9380    0.6070    0.9260 c3        1 PMX     -0.048100
      7 CG          3.3990    0.8040    0.7420 ca        1 PMX     -0.136300
      8 OAA         0.3020    0.8700   -3.5290 o         1 PMX     -0.413100
      9 CAC         5.6270   -0.1470    0.5850 ca        1 PMX     -0.151000
     10 CAD         3.6520    0.5510   -3.3900 ce        1 PMX     -0.130200
     11 CAE         2.4860   -0.0400   -3.1170 cf        1 PMX     -0.159200
     12 CAF         1.2430    0.6840   -2.7660 c         1 PMX      0.550300
     13 CAK         6.1670    1.1470    0.4590 ca        1 PMX      0.137100
     14 OAL         7.5290    1.2140    0.3120 oh        1 PMX     -0.486100
     15 OAM         3.1300    2.8320   -2.7240 o         1 PMX     -0.573000
     16 CAN         3.8570    2.0070   -3.2950 c         1 PMX      0.626300
     17 CAS         5.3150    2.2650    0.4750 ca        1 PMX     -0.073600
     18 OAU         4.9890    2.4390   -3.9080 os        1 PMX     -0.404900
     19 CAV         5.2660    3.8440   -3.8320 c3        1 PMX      0.121700
     20 CD1         3.9360    2.0870    0.6240 ca        1 PMX     -0.095000
     21 CD2         4.2560   -0.3080    0.7250 ca        1 PMX     -0.089000
     22 OXT        -1.1570    0.5160   -0.1660 o         1 PMX     -0.751800
     23 HN          0.1830    1.6330   -1.2530 hn        1 PMX      0.478300
     24 HA          1.7610   -0.7520   -0.7700 hx        1 PMX      0.082700
     25 HB          1.7540   -0.1990    1.6950 hc        1 PMX      0.094200
     26 HBA         1.4570    1.5440    1.3170 hc        1 PMX      0.094200
     27 HAC         6.3080   -1.0110    0.5800 ha        1 PMX      0.161000
     28 HAD         4.5360   -0.0300   -3.7110 ha        1 PMX      0.187000
     29 HAE         2.3520   -1.1360   -3.1920 ha        1 PMX      0.196000
     30 HOAL        7.7970    2.1470    0.3350 ho        1 PMX      0.432000
     31 HAV         6.2180    3.9470   -4.4090 h1        1 PMX      0.064033
     32 HAVA        5.3920    4.1450   -2.7640 h1        1 PMX      0.064033
     33 HAVB        4.4330    4.4200   -4.3030 h1        1 PMX      0.064033
     34 HD1         3.2760    2.9690    0.6600 ha        1 PMX      0.150000
     35 HD2         3.8320   -1.3190    0.8390 ha        1 PMX      0.154000
     36 H2          1.8590    1.9250   -1.2370 hn        1 PMX      0.478300
@<TRIPOS>BOND
     1    1    3 1   
     2    1    5 1   
     3    1   22 1   
     4    2    5 1   
     5    2   12 1   
     6    2   23 1   
     7    2   36 1   
     8    4   17 1   
     9    5    6 1   
    10    5   24 1   
    11    6    7 1   
    12    6   25 1   
    13    6   26 1   
    14    7   20 ar  
    15    7   21 ar  
    16    8   12 2   
    17    9   13 ar  
    18    9   21 ar  
    19    9   27 1   
    20   10   11 2   
    21   10   16 1   
    22   10   28 1   
    23   11   12 1   
    24   11   29 1   
    25   13   14 1   
    26   13   17 ar  
    27   14   30 1   
    28   15   16 2   
    29   16   18 1   
    30   17   20 ar  
    31   18   19 1   
    32   19   31 1   
    33   19   32 1   
    34   19   33 1   
    35   20   34 1   
    36   21   35 1   
@<TRIPOS>SUBSTRUCTURE
     1 PMX         1 TEMP              0 ****  ****    0 ROOT
