@<TRIPOS>MOLECULE
PMZ
   46    48     1     0     0
SMALL
bcc


@<TRIPOS>ATOM
      1 S5          0.1060    0.1950   -0.0390 ss        1 PMZ     -0.095800
      2 N1          1.5920   -0.1210    2.6160 na        1 PMZ     -0.168100
      3 C1          3.7900    0.0240    1.5230 ca        1 PMZ     -0.141000
      4 C2          4.5800    0.1060    0.3690 ca        1 PMZ     -0.167600
      5 C3          3.9670    0.2000   -0.8810 ca        1 PMZ     -0.084000
      6 C4          2.5770    0.2350   -0.9630 ca        1 PMZ     -0.101000
      7 C5          1.7770    0.1590    0.1800 ca        1 PMZ      0.017900
      8 C6          2.3880    0.0370    1.4570 ca        1 PMZ      0.042700
      9 C7         -0.4520    0.6340    1.5010 ca        1 PMZ     -0.028100
     10 C8         -1.7440    1.1590    1.5700 ca        1 PMZ     -0.074000
     11 C9         -2.2950    1.5420    2.7900 ca        1 PMZ     -0.131000
     12 C10        -1.5360    1.4270    3.9520 ca        1 PMZ     -0.091000
     13 C11        -0.2390    0.9200    3.9040 ca        1 PMZ     -0.175000
     14 C12         0.3160    0.4900    2.6820 ca        1 PMZ      0.055700
     15 CA1         2.2260   -0.5720    3.8250 c3        1 PMZ      0.053300
     16 CB1         3.0630    0.4770    4.5890 c3        1 PMZ     -0.151400
     17 CG          4.3090   -0.1830    5.1660 c3        1 PMZ      0.106800
     18 ND          5.3770    0.8030    5.5510 n4        1 PMZ     -0.679400
     19 CE1         6.2430    0.2490    6.6240 c3        1 PMZ      0.080100
     20 CE2         6.1980    1.1980    4.3730 c3        1 PMZ      0.080100
     21 CA2         6.0490    0.1080    0.5430 c         1 PMZ      0.608700
     22 CB2         6.8960   -0.0450   -0.6740 c3        1 PMZ     -0.200100
     23 OB3         6.5480    0.2370    1.6760 o         1 PMZ     -0.615100
     24 H1          4.3190   -0.0670    2.4850 ha        1 PMZ      0.120000
     25 H3          4.5690    0.2570   -1.8010 ha        1 PMZ      0.151000
     26 H4          2.0920    0.3270   -1.9500 ha        1 PMZ      0.162000
     27 H8         -2.3310    1.2690    0.6420 ha        1 PMZ      0.156000
     28 H9         -3.3210    1.9390    2.8320 ha        1 PMZ      0.153000
     29 H10        -1.9580    1.7410    4.9190 ha        1 PMZ      0.144000
     30 H11         0.3340    0.8570    4.8400 ha        1 PMZ      0.122000
     31 HA11        1.4260   -0.9630    4.5180 h1        1 PMZ      0.074700
     32 HA12        2.8850   -1.4460    3.5470 h1        1 PMZ      0.074700
     33 HB11        2.4460    0.9120    5.4190 hc        1 PMZ      0.074700
     34 HB12        3.3370    1.3240    3.9040 hc        1 PMZ      0.074700
     35 HG1         4.0260   -0.7680    6.0890 hx        1 PMZ      0.105700
     36 HG2         4.7700   -0.8980    4.4230 hx        1 PMZ      0.105700
     37 HE11        6.7090   -0.7100    6.2700 hx        1 PMZ      0.109867
     38 HE12        5.6280    0.0530    7.5420 hx        1 PMZ      0.109867
     39 HE13        7.0530    0.9890    6.8650 hx        1 PMZ      0.109867
     40 HE21        5.5290    1.5500    3.5410 hx        1 PMZ      0.109867
     41 HE22        6.7840    0.3140    3.9960 hx        1 PMZ      0.109867
     42 HE23        6.9020    2.0180    4.6730 hx        1 PMZ      0.109867
     43 HB21        6.7770    0.8520   -1.3320 hc        1 PMZ      0.078033
     44 HB22        6.5860   -0.9540   -1.2460 hc        1 PMZ      0.078033
     45 HB23        7.9740   -0.1420   -0.3930 hc        1 PMZ      0.078033
     46 HD1         4.9120    1.6460    5.9140 hn        1 PMZ      0.445800
@<TRIPOS>BOND
     1    1    7 1   
     2    1    9 1   
     3    2    8 1   
     4    2   14 1   
     5    2   15 1   
     6    3    4 ar  
     7    3    8 ar  
     8    3   24 1   
     9    4    5 ar  
    10    4   21 1   
    11    5    6 ar  
    12    5   25 1   
    13    6    7 ar  
    14    6   26 1   
    15    7    8 ar  
    16    9   10 ar  
    17    9   14 ar  
    18   10   11 ar  
    19   10   27 1   
    20   11   12 ar  
    21   11   28 1   
    22   12   13 ar  
    23   12   29 1   
    24   13   14 ar  
    25   13   30 1   
    26   15   16 1   
    27   15   31 1   
    28   15   32 1   
    29   16   17 1   
    30   16   33 1   
    31   16   34 1   
    32   17   18 1   
    33   17   35 1   
    34   17   36 1   
    35   18   19 1   
    36   18   20 1   
    37   18   46 1   
    38   19   37 1   
    39   19   38 1   
    40   19   39 1   
    41   20   40 1   
    42   20   41 1   
    43   20   42 1   
    44   21   22 1   
    45   21   23 2   
    46   22   43 1   
    47   22   44 1   
    48   22   45 1   
@<TRIPOS>SUBSTRUCTURE
     1 PMZ         1 TEMP              0 ****  ****    0 ROOT
