@<TRIPOS>MOLECULE
PMZ
   46    48     1     0     0
SMALL
bcc


@<TRIPOS>ATOM
      1 S5          0.1040    0.1960   -0.0370 ss        1 PMZ     -0.095800
      2 N1          1.5930   -0.1240    2.6160 na        1 PMZ     -0.168100
      3 C1          3.7900    0.0280    1.5220 ca        1 PMZ     -0.141000
      4 C2          4.5790    0.1150    0.3680 ca        1 PMZ     -0.167600
      5 C3          3.9650    0.2100   -0.8820 ca        1 PMZ     -0.084000
      6 C4          2.5750    0.2430   -0.9630 ca        1 PMZ     -0.101000
      7 C5          1.7750    0.1620    0.1800 ca        1 PMZ      0.017900
      8 C6          2.3870    0.0380    1.4570 ca        1 PMZ      0.042700
      9 C7         -0.4530    0.6310    1.5040 ca        1 PMZ     -0.028100
     10 C8         -1.7470    1.1530    1.5750 ca        1 PMZ     -0.074000
     11 C9         -2.2970    1.5320    2.7960 ca        1 PMZ     -0.131000
     12 C10        -1.5360    1.4160    3.9580 ca        1 PMZ     -0.091000
     13 C11        -0.2390    0.9110    3.9080 ca        1 PMZ     -0.175000
     14 C12         0.3160    0.4850    2.6840 ca        1 PMZ      0.055700
     15 CA1         2.2280   -0.5760    3.8230 c3        1 PMZ      0.053300
     16 CB1         3.0640    0.4730    4.5890 c3        1 PMZ     -0.151400
     17 CG          4.3120   -0.1870    5.1640 c3        1 PMZ      0.106800
     18 ND          5.3780    0.8000    5.5510 nx        1 PMZ     -0.679400
     19 CE1         6.2460    0.2450    6.6210 c3        1 PMZ      0.080100
     20 CE2         6.1980    1.1990    4.3730 c3        1 PMZ      0.080100
     21 CA2         6.0480    0.1190    0.5400 c         1 PMZ      0.608700
     22 CB2         6.8950   -0.0300   -0.6780 c3        1 PMZ     -0.200100
     23 OB3         6.5480    0.2450    1.6730 o         1 PMZ     -0.615100
     24 H1          4.3200   -0.0640    2.4820 ha        1 PMZ      0.120000
     25 H3          4.5660    0.2700   -1.8020 ha        1 PMZ      0.151000
     26 H4          2.0890    0.3370   -1.9490 ha        1 PMZ      0.162000
     27 H8         -2.3340    1.2640    0.6480 ha        1 PMZ      0.156000
     28 H9         -3.3230    1.9270    2.8400 ha        1 PMZ      0.153000
     29 H10        -1.9590    1.7260    4.9260 ha        1 PMZ      0.144000
     30 H11         0.3350    0.8470    4.8430 ha        1 PMZ      0.122000
     31 HA11        1.4300   -0.9710    4.5160 h1        1 PMZ      0.074700
     32 HA12        2.8890   -1.4490    3.5430 h1        1 PMZ      0.074700
     33 HB11        2.4470    0.9040    5.4210 hc        1 PMZ      0.074700
     34 HB12        3.3360    1.3220    3.9060 hc        1 PMZ      0.074700
     35 HG1         4.0300   -0.7740    6.0850 hx        1 PMZ      0.105700
     36 HG2         4.7730   -0.8990    4.4190 hx        1 PMZ      0.105700
     37 HE11        6.7130   -0.7120    6.2650 hx        1 PMZ      0.109867
     38 HE12        5.6310    0.0460    7.5390 hx        1 PMZ      0.109867
     39 HE13        7.0550    0.9870    6.8640 hx        1 PMZ      0.109867
     40 HE21        5.5270    1.5520    3.5420 hx        1 PMZ      0.109867
     41 HE22        6.7850    0.3170    3.9940 hx        1 PMZ      0.109867
     42 HE23        6.9000    2.0200    4.6740 hx        1 PMZ      0.109867
     43 HB21        6.7730    0.8680   -1.3330 hc        1 PMZ      0.078033
     44 HB22        6.5860   -0.9380   -1.2520 hc        1 PMZ      0.078033
     45 HB23        7.9730   -0.1260   -0.3980 hc        1 PMZ      0.078033
     46 HD1         4.9120    1.6420    5.9150 hn        1 PMZ      0.445800
@<TRIPOS>BOND
     1    1    7 1   
     2    1    9 1   
     3    2    8 1   
     4    2   14 1   
     5    2   15 1   
     6    3    4 ar  
     7    3    8 ar  
     8    3   24 1   
     9    4    5 ar  
    10    4   21 1   
    11    5    6 ar  
    12    5   25 1   
    13    6    7 ar  
    14    6   26 1   
    15    7    8 ar  
    16    9   10 ar  
    17    9   14 ar  
    18   10   11 ar  
    19   10   27 1   
    20   11   12 ar  
    21   11   28 1   
    22   12   13 ar  
    23   12   29 1   
    24   13   14 ar  
    25   13   30 1   
    26   15   16 1   
    27   15   31 1   
    28   15   32 1   
    29   16   17 1   
    30   16   33 1   
    31   16   34 1   
    32   17   18 1   
    33   17   35 1   
    34   17   36 1   
    35   18   19 1   
    36   18   20 1   
    37   18   46 1   
    38   19   37 1   
    39   19   38 1   
    40   19   39 1   
    41   20   40 1   
    42   20   41 1   
    43   20   42 1   
    44   21   22 1   
    45   21   23 2   
    46   22   43 1   
    47   22   44 1   
    48   22   45 1   
@<TRIPOS>SUBSTRUCTURE
     1 PMZ         1 TEMP              0 ****  ****    0 ROOT
