@<TRIPOS>MOLECULE
PMZ
   45    47     1     0     0
SMALL
bcc


@<TRIPOS>ATOM
      1 S5         -1.4300    0.0940   -3.1030 ss        1 PMZ     -0.152800
      2 N1          0.4380    0.5700   -0.7090 na        1 PMZ     -0.164100
      3 C1         -1.3930    0.2550    0.9080 ca        1 PMZ     -0.123000
      4 C2         -2.7510    0.0620    1.1870 ca        1 PMZ     -0.151600
      5 C3         -3.6560   -0.1300    0.1400 ca        1 PMZ     -0.111000
      6 C4         -3.1960   -0.1330   -1.1710 ca        1 PMZ     -0.108000
      7 C5         -1.8470    0.0750   -1.4660 ca        1 PMZ      0.003900
      8 C6         -0.9140    0.2820   -0.4190 ca        1 PMZ      0.059700
      9 C7          0.2480   -0.1350   -3.0540 ca        1 PMZ     -0.031100
     10 C8          0.8480   -0.5470   -4.2440 ca        1 PMZ     -0.083000
     11 C9          2.2250   -0.7280   -4.3260 ca        1 PMZ     -0.152000
     12 C10         3.0070   -0.5160   -3.1930 ca        1 PMZ     -0.096000
     13 C11         2.4280   -0.1230   -1.9910 ca        1 PMZ     -0.174000
     14 C12         1.0340    0.0900   -1.8950 ca        1 PMZ      0.078700
     15 CA1         1.2890    1.0400    0.3620 c3        1 PMZ      0.034300
     16 CB1         1.8690   -0.0260    1.2970 c3        1 PMZ     -0.118400
     17 CG          2.5230    0.6740    2.4860 c3        1 PMZ      0.170800
     18 ND          3.3660   -0.1970    3.2940 n3        1 PMZ     -0.736600
     19 CE1         4.1200    0.5450    4.2800 c3        1 PMZ      0.153600
     20 CE2         2.6550   -1.3200    3.8630 c3        1 PMZ      0.153600
     21 CA2        -3.1850    0.0630    2.6030 c         1 PMZ      0.577700
     22 CB2        -4.6410   -0.1420    2.8760 c3        1 PMZ     -0.198100
     23 OB3        -2.3780    0.2280    3.5280 o         1 PMZ     -0.541100
     24 H1         -0.7160    0.3940    1.7690 ha        1 PMZ      0.162000
     25 H3         -4.7270   -0.2830    0.3400 ha        1 PMZ      0.138000
     26 H4         -3.9050   -0.3000   -1.9990 ha        1 PMZ      0.146000
     27 H8          0.2150   -0.7270   -5.1290 ha        1 PMZ      0.142000
     28 H9          2.6870   -1.0400   -5.2730 ha        1 PMZ      0.138000
     29 H10         4.0970   -0.6640   -3.2420 ha        1 PMZ      0.135000
     30 H11         3.0850    0.0200   -1.1200 ha        1 PMZ      0.143000
     31 HA11        0.6880    1.7760    0.9730 h1        1 PMZ      0.062200
     32 HA12        2.1380    1.6190   -0.1040 h1        1 PMZ      0.062200
     33 HB11        2.6190   -0.6560    0.7520 hc        1 PMZ      0.060200
     34 HB12        1.0610   -0.7160    1.6560 hc        1 PMZ      0.060200
     35 HG1         1.7070    1.1530    3.1070 h1        1 PMZ      0.032200
     36 HG2         3.1800    1.5040    2.0960 h1        1 PMZ      0.032200
     37 HE11        4.8100   -0.1600    4.8130 h1        1 PMZ      0.032867
     38 HE12        4.7370    1.3240    3.7600 h1        1 PMZ      0.032867
     39 HE13        3.4720    1.0560    5.0440 h1        1 PMZ      0.032867
     40 HE21        2.2610   -1.9580    3.0290 h1        1 PMZ      0.032867
     41 HE22        3.3670   -1.9340    4.4740 h1        1 PMZ      0.032867
     42 HE23        1.7930   -1.0150    4.5180 h1        1 PMZ      0.032867
     43 HB21       -4.8360   -0.1160    3.9760 hc        1 PMZ      0.065367
     44 HB22       -5.2390    0.6650    2.3850 hc        1 PMZ      0.065367
     45 HB23       -4.9680   -1.1320    2.4740 hc        1 PMZ      0.065367
@<TRIPOS>BOND
     1    1    7 1   
     2    1    9 1   
     3    2    8 1   
     4    2   14 1   
     5    2   15 1   
     6    3    4 ar  
     7    3    8 ar  
     8    3   24 1   
     9    4    5 ar  
    10    4   21 1   
    11    5    6 ar  
    12    5   25 1   
    13    6    7 ar  
    14    6   26 1   
    15    7    8 ar  
    16    9   10 ar  
    17    9   14 ar  
    18   10   11 ar  
    19   10   27 1   
    20   11   12 ar  
    21   11   28 1   
    22   12   13 ar  
    23   12   29 1   
    24   13   14 ar  
    25   13   30 1   
    26   15   16 1   
    27   15   31 1   
    28   15   32 1   
    29   16   17 1   
    30   16   33 1   
    31   16   34 1   
    32   17   18 1   
    33   17   35 1   
    34   17   36 1   
    35   18   19 1   
    36   18   20 1   
    37   19   37 1   
    38   19   38 1   
    39   19   39 1   
    40   20   40 1   
    41   20   41 1   
    42   20   42 1   
    43   21   22 1   
    44   21   23 2   
    45   22   43 1   
    46   22   44 1   
    47   22   45 1   
@<TRIPOS>SUBSTRUCTURE
     1 PMZ         1 TEMP              0 ****  ****    0 ROOT
