@<TRIPOS>MOLECULE
PMZ
   46    48     1     0     0
SMALL
bcc


@<TRIPOS>ATOM
      1 S5          0.1010    0.1910   -0.0340 ss        1 PMZ     -0.095800
      2 N1          1.5930   -0.1260    2.6180 na        1 PMZ     -0.168100
      3 C1          3.7890    0.0270    1.5220 ca        1 PMZ     -0.141000
      4 C2          4.5770    0.1140    0.3670 ca        1 PMZ     -0.167600
      5 C3          3.9610    0.2070   -0.8820 ca        1 PMZ     -0.084000
      6 C4          2.5710    0.2390   -0.9620 ca        1 PMZ     -0.101000
      7 C5          1.7730    0.1590    0.1820 ca        1 PMZ      0.017900
      8 C6          2.3860    0.0360    1.4580 ca        1 PMZ      0.042700
      9 C7         -0.4550    0.6260    1.5080 ca        1 PMZ     -0.028100
     10 C8         -1.7490    1.1470    1.5800 ca        1 PMZ     -0.074000
     11 C9         -2.2980    1.5260    2.8010 ca        1 PMZ     -0.131000
     12 C10        -1.5360    1.4110    3.9620 ca        1 PMZ     -0.091000
     13 C11        -0.2390    0.9080    3.9110 ca        1 PMZ     -0.175000
     14 C12         0.3160    0.4820    2.6870 ca        1 PMZ      0.055700
     15 CA1         2.2300   -0.5760    3.8250 c3        1 PMZ      0.053300
     16 CB1         3.0660    0.4740    4.5890 c3        1 PMZ     -0.151400
     17 CG          4.3150   -0.1840    5.1640 c3        1 PMZ      0.106800
     18 ND          5.3810    0.8040    5.5480 n4        1 PMZ     -0.679400
     19 CE1         6.2500    0.2510    6.6190 c3        1 PMZ      0.080100
     20 CE2         6.1990    1.2030    4.3690 c3        1 PMZ      0.080100
     21 CA2         6.0450    0.1200    0.5380 c         1 PMZ      0.608700
     22 CB2         6.8910   -0.0300   -0.6810 c3        1 PMZ     -0.200100
     23 OB3         6.5470    0.2470    1.6700 o         1 PMZ     -0.615100
     24 H1          4.3200   -0.0640    2.4820 ha        1 PMZ      0.120000
     25 H3          4.5620    0.2680   -1.8030 ha        1 PMZ      0.151000
     26 H4          2.0840    0.3320   -1.9480 ha        1 PMZ      0.162000
     27 H8         -2.3370    1.2560    0.6530 ha        1 PMZ      0.156000
     28 H9         -3.3250    1.9200    2.8460 ha        1 PMZ      0.153000
     29 H10        -1.9580    1.7220    4.9300 ha        1 PMZ      0.144000
     30 H11         0.3370    0.8450    4.8460 ha        1 PMZ      0.122000
     31 HA11        2.8920   -1.4480    3.5450 h1        1 PMZ      0.074700
     32 HA12        1.4330   -0.9720    4.5190 h1        1 PMZ      0.074700
     33 HB11        3.3370    1.3230    3.9050 hc        1 PMZ      0.074700
     34 HB12        2.4490    0.9060    5.4210 hc        1 PMZ      0.074700
     35 HG1         4.7760   -0.8970    4.4190 hx        1 PMZ      0.105700
     36 HG2         4.0340   -0.7710    6.0860 hx        1 PMZ      0.105700
     37 HE11        6.7180   -0.7050    6.2630 hx        1 PMZ      0.109867
     38 HE12        7.0580    0.9940    6.8590 hx        1 PMZ      0.109867
     39 HE13        5.6360    0.0520    7.5370 hx        1 PMZ      0.109867
     40 HE21        6.9010    2.0250    4.6690 hx        1 PMZ      0.109867
     41 HE22        6.7860    0.3210    3.9900 hx        1 PMZ      0.109867
     42 HE23        5.5270    1.5540    3.5390 hx        1 PMZ      0.109867
     43 HB21        6.7690    0.8680   -1.3370 hc        1 PMZ      0.078033
     44 HB22        7.9700   -0.1240   -0.4020 hc        1 PMZ      0.078033
     45 HB23        6.5830   -0.9380   -1.2540 hc        1 PMZ      0.078033
     46 HD1         4.9140    1.6460    5.9120 hn        1 PMZ      0.445800
@<TRIPOS>BOND
     1    1    7 1   
     2    1    9 1   
     3    2    8 1   
     4    2   14 1   
     5    2   15 1   
     6    3    4 ar  
     7    3    8 ar  
     8    3   24 1   
     9    4    5 ar  
    10    4   21 1   
    11    5    6 ar  
    12    5   25 1   
    13    6    7 ar  
    14    6   26 1   
    15    7    8 ar  
    16    9   10 ar  
    17    9   14 ar  
    18   10   11 ar  
    19   10   27 1   
    20   11   12 ar  
    21   11   28 1   
    22   12   13 ar  
    23   12   29 1   
    24   13   14 ar  
    25   13   30 1   
    26   15   16 1   
    27   15   31 1   
    28   15   32 1   
    29   16   17 1   
    30   16   33 1   
    31   16   34 1   
    32   17   18 1   
    33   17   35 1   
    34   17   36 1   
    35   18   19 1   
    36   18   20 1   
    37   18   46 1   
    38   19   37 1   
    39   19   38 1   
    40   19   39 1   
    41   20   40 1   
    42   20   41 1   
    43   20   42 1   
    44   21   22 1   
    45   21   23 2   
    46   22   43 1   
    47   22   44 1   
    48   22   45 1   
@<TRIPOS>SUBSTRUCTURE
     1 PMZ         1 TEMP              0 ****  ****    0 ROOT
