@<TRIPOS>MOLECULE
PN0
   49    51     1     0     0
SMALL
bcc


@<TRIPOS>ATOM
      1 N1         -1.9140   -0.0040   -0.2950 n3        1 PN0     -0.807500
      2 N3         -1.7360   -3.0730    0.2850 n         1 PN0     -0.324400
      3 C4         -3.0520    1.7640   -1.6260 c3        1 PN0     -0.048300
      4 C5          0.4240    0.7480    0.5880 ca        1 PN0     -0.414500
      5 C6          0.8460    2.0840    0.4910 ca        1 PN0      0.013500
      6 C7          2.1450    2.4090    0.1310 ca        1 PN0     -0.194000
      7 C8          3.0530    1.3680   -0.1420 ca        1 PN0      0.184100
      8 C10         1.3520   -0.2660    0.3190 ca        1 PN0      0.013500
      9 C13         7.4100    0.0360   -1.3490 ca        1 PN0      0.414200
     10 C15         5.5970    0.1360    0.7180 ca        1 PN0     -0.265300
     11 C17        -4.7280    0.2900    0.8970 c3        1 PN0     -0.100600
     12 C1         -4.3890   -0.3770   -0.4130 c3        1 PN0      0.043100
     13 C2         -2.9670   -0.9930   -0.4400 c3        1 PN0      0.175500
     14 C3         -1.8230    0.8860   -1.4330 c3        1 PN0      0.215800
     15 S1         -4.5180    0.8020   -1.7780 ss        1 PN0     -0.310200
     16 S2         -1.1330    0.3750    1.1080 sy        1 PN0      1.509200
     17 C9          2.6610    0.0260   -0.0470 ca        1 PN0     -0.194000
     18 O1          4.3030    1.7830   -0.5650 os        1 PN0     -0.241200
     19 C11         5.3590    0.8830   -0.4420 ca        1 PN0      0.125100
     20 C12         6.2700    0.8430   -1.5080 ca        1 PN0     -0.265300
     21 N2          7.6660   -0.6950   -0.2470 nb        1 PN0     -0.665000
     22 C14         6.7710   -0.6380    0.7580 ca        1 PN0      0.414200
     23 O2         -1.6900    1.5260    1.6920 o         1 PN0     -0.648800
     24 O3         -1.0690   -0.7920    1.8970 o         1 PN0     -0.648800
     25 C16        -2.8490   -2.1970    0.5230 c         1 PN0      0.586100
     26 O4         -1.6160   -4.0640    1.1750 oh        1 PN0     -0.430100
     27 O5         -3.7550   -2.5330    1.2960 o         1 PN0     -0.540100
     28 C18        -5.4360   -1.4080   -0.7800 c3        1 PN0     -0.100600
     29 HN3        -0.8580   -2.5590    0.3080 hn        1 PN0      0.295500
     30 H4         -3.1450    2.4940   -0.7840 h1        1 PN0      0.086200
     31 H4A        -2.9540    2.3390   -2.5800 h1        1 PN0      0.086200
     32 H6          0.1280    2.8920    0.7280 ha        1 PN0      0.158000
     33 H7          2.4760    3.4550    0.0560 ha        1 PN0      0.163000
     34 H10         1.0420   -1.3230    0.4150 ha        1 PN0      0.158000
     35 H15         4.8990    0.1560    1.5650 ha        1 PN0      0.162000
     36 H17        -4.0300    1.1340    1.1200 hc        1 PN0      0.060033
     37 H17A       -5.7680    0.6980    0.8550 hc        1 PN0      0.060033
     38 H17B       -4.6760   -0.4520    1.7340 hc        1 PN0      0.060033
     39 H2         -2.8550   -1.4470   -1.4810 h1        1 PN0      0.094700
     40 H3         -0.9190    1.5500   -1.3020 h1        1 PN0      0.062200
     41 H3A        -1.6590    0.2740   -2.3680 h1        1 PN0      0.062200
     42 H9          3.3770   -0.7820   -0.2580 ha        1 PN0      0.163000
     43 H12         6.1020    1.4300   -2.4200 ha        1 PN0      0.162000
     44 H14         7.0090   -1.2460    1.6510 h4        1 PN0      0.031600
     45 HO4        -2.4200   -4.6120    1.0830 ho        1 PN0      0.429000
     46 H18        -6.3880   -0.8940   -1.0620 hc        1 PN0      0.060033
     47 H18A       -5.0990   -2.0330   -1.6430 hc        1 PN0      0.060033
     48 H18B       -5.6430   -2.0790    0.0910 hc        1 PN0      0.060033
     49 H13         8.1640   -0.0290   -2.1550 h4        1 PN0      0.031600
@<TRIPOS>BOND
     1    1   13 1   
     2    1   14 1   
     3    1   16 1   
     4    2   25 1   
     5    2   26 1   
     6    2   29 1   
     7    3   14 1   
     8    3   15 1   
     9    3   30 1   
    10    3   31 1   
    11    4    5 ar  
    12    4    8 ar  
    13    4   16 1   
    14    5    6 ar  
    15    5   32 1   
    16    6    7 ar  
    17    6   33 1   
    18    7   17 ar  
    19    7   18 1   
    20    8   17 ar  
    21    8   34 1   
    22    9   20 ar  
    23    9   21 ar  
    24    9   49 1   
    25   10   19 ar  
    26   10   22 ar  
    27   10   35 1   
    28   11   12 1   
    29   11   36 1   
    30   11   37 1   
    31   11   38 1   
    32   12   13 1   
    33   12   15 1   
    34   12   28 1   
    35   13   25 1   
    36   13   39 1   
    37   14   40 1   
    38   14   41 1   
    39   16   23 2   
    40   16   24 2   
    41   17   42 1   
    42   18   19 1   
    43   19   20 ar  
    44   20   43 1   
    45   21   22 ar  
    46   22   44 1   
    47   25   27 2   
    48   26   45 1   
    49   28   46 1   
    50   28   47 1   
    51   28   48 1   
@<TRIPOS>SUBSTRUCTURE
     1 PN0         1 TEMP              0 ****  ****    0 ROOT
