@<TRIPOS>MOLECULE
PN0
   50    52     1     0     0
SMALL
bcc


@<TRIPOS>ATOM
      1 N1          0.6870    0.3140   -0.7030 n3        1 PN0     -0.817500
      2 N3          3.2340    2.1330   -1.4420 ny        1 PN0     -0.440300
      3 C4          0.0390   -1.9080    0.2300 c3        1 PN0     -0.065300
      4 C5         -1.3170    1.4360   -1.9780 ca        1 PN0     -0.495500
      5 C6         -2.6450    1.0270   -1.7240 ca        1 PN0      0.031000
      6 C7         -3.5680    0.8890   -2.7420 ca        1 PN0     -0.200000
      7 C8         -3.1730    1.1700   -4.0700 ca        1 PN0      0.234100
      8 C10        -0.9570    1.7150   -3.3090 ca        1 PN0      0.031000
      9 C13        -3.8060    0.7880   -8.6540 ca        1 PN0      0.416200
     10 C15        -3.6600    2.7010   -6.6770 ca        1 PN0     -0.251300
     11 C17         1.2520    0.3260    2.3290 c3        1 PN0     -0.110600
     12 C1          2.0870   -0.3780    1.2870 c3        1 PN0      0.006100
     13 C2          2.0130    0.2710   -0.1210 c3        1 PN0      0.204500
     14 C3          0.1610   -1.0060   -0.9900 c3        1 PN0      0.212800
     15 S1          1.5750   -2.0850    1.0670 ss        1 PN0     -0.221200
     16 S2         -0.2840    1.6780   -0.7310 sy        1 PN0      1.546200
     17 C9         -1.8600    1.5880   -4.3500 ca        1 PN0     -0.200000
     18 O1         -4.1500    0.9790   -5.0120 os        1 PN0     -0.222200
     19 C11        -3.8680    1.3600   -6.3300 ca        1 PN0      0.094100
     20 C12        -3.9440    0.3700   -7.3160 ca        1 PN0     -0.251300
     21 N2         -3.5990    2.0670   -9.0210 nb        1 PN0     -0.644000
     22 C14        -3.5330    2.9960   -8.0470 ca        1 PN0      0.416200
     23 O2         -0.9590    1.8250    0.4800 o         1 PN0     -0.676300
     24 O3          0.6670    2.7040   -1.0520 o         1 PN0     -0.676300
     25 C16         2.6800    1.6570   -0.0810 c         1 PN0      0.531100
     26 O4          3.2940    3.4810   -1.5300 oh        1 PN0     -0.367300
     27 O5          2.8720    2.4160    0.8450 o         1 PN0     -0.356100
     28 C18         3.5270   -0.4910    1.7450 c3        1 PN0     -0.110600
     29 HN3         4.2090    1.8040   -1.5690 hn        1 PN0      0.470300
     30 H4         -0.7540   -1.5330    0.9230 h1        1 PN0      0.103700
     31 H4A        -0.2520   -2.9390   -0.0990 h1        1 PN0      0.103700
     32 H6         -2.9560    0.8340   -0.6800 ha        1 PN0      0.153000
     33 H7         -4.6050    0.5740   -2.5400 ha        1 PN0      0.177500
     34 H10         0.0690    2.0610   -3.5260 ha        1 PN0      0.153000
     35 H17         1.6290    1.3650    2.5070 hc        1 PN0      0.069033
     36 H17A        0.1770    0.3860    2.0290 hc        1 PN0      0.069033
     37 H17B        1.3130   -0.2340    3.2960 hc        1 PN0      0.069033
     38 H2          2.6630   -0.3840   -0.7930 h1        1 PN0      0.094700
     39 H3         -0.8590   -0.8880   -1.4610 h1        1 PN0      0.073200
     40 H3A         0.8280   -1.5090   -1.7510 h1        1 PN0      0.073200
     41 H9         -1.5620    1.8170   -5.3860 ha        1 PN0      0.177500
     42 H12        -4.1270   -0.6820   -7.0600 ha        1 PN0      0.163500
     43 H14        -3.3760    4.0370   -8.3850 h4        1 PN0      0.042100
     44 HO4         2.4260    3.8560   -1.2270 ho        1 PN0      0.509000
     45 H18         3.9340    0.5140    2.0160 hc        1 PN0      0.069033
     46 H18A        4.1700   -0.9510    0.9560 hc        1 PN0      0.069033
     47 H18B        3.5780   -1.1380    2.6580 hc        1 PN0      0.069033
     48 H13        -3.8660    0.0530   -9.4790 h4        1 PN0      0.042100
     49 H32         2.6350    1.7640   -2.2000 hn        1 PN0      0.470300
     50 H15        -3.6150    3.4910   -5.9180 ha        1 PN0      0.163500
@<TRIPOS>BOND
     1    1   13 1   
     2    1   14 1   
     3    1   16 1   
     4    2   25 1   
     5    2   26 1   
     6    2   29 1   
     7    2   49 1   
     8    3   14 1   
     9    3   15 1   
    10    3   30 1   
    11    3   31 1   
    12    4    5 ar  
    13    4    8 ar  
    14    4   16 1   
    15    5    6 ar  
    16    5   32 1   
    17    6    7 ar  
    18    6   33 1   
    19    7   17 ar  
    20    7   18 1   
    21    8   17 ar  
    22    8   34 1   
    23    9   20 ar  
    24    9   21 ar  
    25    9   48 1   
    26   10   19 ar  
    27   10   22 ar  
    28   10   50 1   
    29   11   12 1   
    30   11   35 1   
    31   11   36 1   
    32   11   37 1   
    33   12   13 1   
    34   12   15 1   
    35   12   28 1   
    36   13   25 1   
    37   13   38 1   
    38   14   39 1   
    39   14   40 1   
    40   16   23 2   
    41   16   24 2   
    42   17   41 1   
    43   18   19 1   
    44   19   20 ar  
    45   20   42 1   
    46   21   22 ar  
    47   22   43 1   
    48   25   27 2   
    49   26   44 1   
    50   28   45 1   
    51   28   46 1   
    52   28   47 1   
@<TRIPOS>SUBSTRUCTURE
     1 PN0         1 TEMP              0 ****  ****    0 ROOT
