@<TRIPOS>MOLECULE
PN0
   50    52     1     0     0
SMALL
bcc


@<TRIPOS>ATOM
      1 N1          0.6560    0.3290   -0.6780 n3        1 PN0     -0.817500
      2 N3          3.2540    2.0700   -1.4260 n4        1 PN0     -0.440300
      3 C4         -0.0550   -1.8540    0.3010 c3        1 PN0     -0.065300
      4 C5         -1.3040    1.4630   -2.0090 ca        1 PN0     -0.495500
      5 C6         -2.6440    1.0910   -1.7630 ca        1 PN0      0.031000
      6 C7         -3.5570    0.9480   -2.7900 ca        1 PN0     -0.200000
      7 C8         -3.1380    1.1860   -4.1190 ca        1 PN0      0.234100
      8 C10        -0.9200    1.6990   -3.3410 ca        1 PN0      0.031000
      9 C13        -3.7170    0.7000   -8.7000 ca        1 PN0      0.416200
     10 C15        -3.5540    2.6590   -6.7710 ca        1 PN0     -0.251300
     11 C17         1.1810    0.4050    2.3600 c3        1 PN0     -0.110600
     12 C1          2.0130   -0.3440    1.3490 c3        1 PN0      0.006100
     13 C2          1.9730    0.2710   -0.0770 c3        1 PN0      0.204500
     14 C3          0.1040   -0.9860   -0.9390 c3        1 PN0      0.212800
     15 S1          1.4650   -2.0440    1.1640 ss        1 PN0     -0.221200
     16 S2         -0.2820    1.7130   -0.7540 sy        1 PN0      1.546200
     17 C9         -1.8110    1.5660   -4.3920 ca        1 PN0     -0.200000
     18 O1         -4.1070    0.9930   -5.0690 os        1 PN0     -0.222200
     19 C11        -3.7980    1.3330   -6.3920 ca        1 PN0      0.094100
     20 C12        -3.8840    0.3200   -7.3540 ca        1 PN0     -0.251300
     21 N2         -3.4770    1.9640   -9.0970 nb        1 PN0     -0.644000
     22 C14        -3.4020    2.9160   -8.1460 ca        1 PN0      0.416200
     23 O2         -0.9700    1.9070    0.4430 o         1 PN0     -0.676300
     24 O3          0.6970    2.7080   -1.0870 o         1 PN0     -0.676300
     25 C16         2.6710    1.6410   -0.0620 c         1 PN0      0.531100
     26 O4          3.3460    3.4130   -1.5470 oh        1 PN0     -0.367300
     27 O5          2.8680    2.4190    0.8470 o         1 PN0     -0.356100
     28 C18         3.4430   -0.4780    1.8300 c3        1 PN0     -0.110600
     29 HN3         2.6570    1.6950   -2.1830 hn        1 PN0      0.470300
     30 H4         -0.3650   -2.8860   -0.0060 h1        1 PN0      0.103700
     31 H4A        -0.8490   -1.4430    0.9730 h1        1 PN0      0.103700
     32 H6         -2.9740    0.9320   -0.7190 ha        1 PN0      0.153000
     33 H7         -4.6030    0.6620   -2.5940 ha        1 PN0      0.177500
     34 H10         0.1160    2.0160   -3.5520 ha        1 PN0      0.153000
     35 H17         1.5790    1.4390    2.5180 hc        1 PN0      0.069033
     36 H17A        1.2160   -0.1310    3.3420 hc        1 PN0      0.069033
     37 H17B        0.1110    0.4820    2.0440 hc        1 PN0      0.069033
     38 H2          2.6160   -0.4160   -0.7230 h1        1 PN0      0.094700
     39 H3         -0.9060   -0.8580   -1.4270 h1        1 PN0      0.073200
     40 H3A         0.7700   -1.5230   -1.6770 h1        1 PN0      0.073200
     41 H9         -1.4940    1.7620   -5.4280 ha        1 PN0      0.177500
     42 H12        -4.0940   -0.7210   -7.0740 ha        1 PN0      0.163500
     43 H14        -3.2170    3.9450   -8.5080 h4        1 PN0      0.042100
     44 HO4         2.4830    3.8160   -1.2660 ho        1 PN0      0.509000
     45 H18         4.0860   -0.9720    1.0610 hc        1 PN0      0.069033
     46 H18A        3.4670   -1.1020    2.7600 hc        1 PN0      0.069033
     47 H18B        3.8700    0.5250    2.0800 hc        1 PN0      0.069033
     48 H13        -3.7840   -0.0540   -9.5070 h4        1 PN0      0.042100
     49 H32         4.2230    1.7160   -1.5320 hn        1 PN0      0.470300
     50 H15        -3.5020    3.4680   -6.0310 ha        1 PN0      0.163500
@<TRIPOS>BOND
     1    1   13 1   
     2    1   14 1   
     3    1   16 1   
     4    2   25 1   
     5    2   26 1   
     6    2   29 1   
     7    2   49 1   
     8    3   14 1   
     9    3   15 1   
    10    3   30 1   
    11    3   31 1   
    12    4    5 ar  
    13    4    8 ar  
    14    4   16 1   
    15    5    6 ar  
    16    5   32 1   
    17    6    7 ar  
    18    6   33 1   
    19    7   17 ar  
    20    7   18 1   
    21    8   17 ar  
    22    8   34 1   
    23    9   20 ar  
    24    9   21 ar  
    25    9   48 1   
    26   10   19 ar  
    27   10   22 ar  
    28   10   50 1   
    29   11   12 1   
    30   11   35 1   
    31   11   36 1   
    32   11   37 1   
    33   12   13 1   
    34   12   15 1   
    35   12   28 1   
    36   13   25 1   
    37   13   38 1   
    38   14   39 1   
    39   14   40 1   
    40   16   23 2   
    41   16   24 2   
    42   17   41 1   
    43   18   19 1   
    44   19   20 ar  
    45   20   42 1   
    46   21   22 ar  
    47   22   43 1   
    48   25   27 2   
    49   26   44 1   
    50   28   45 1   
    51   28   46 1   
    52   28   47 1   
@<TRIPOS>SUBSTRUCTURE
     1 PN0         1 TEMP              0 ****  ****    0 ROOT
