@<TRIPOS>MOLECULE
PN0
   50    52     1     0     0
SMALL
bcc


@<TRIPOS>ATOM
      1 N1          0.6930    0.3040   -0.6950 n3        1 PN0     -0.817500
      2 N3          3.6900   -0.7330   -1.2140 n4        1 PN0     -0.440300
      3 C4         -1.2280    0.1230    0.8880 c3        1 PN0     -0.065300
      4 C5         -0.0580    1.2850   -3.0110 ca        1 PN0     -0.497500
      5 C6          0.2510    0.3460   -4.0170 ca        1 PN0      0.032000
      6 C7         -0.5600    0.1640   -5.1190 ca        1 PN0     -0.200500
      7 C8         -1.7320    0.9480   -5.2430 ca        1 PN0      0.235100
      8 C10        -1.2300    2.0520   -3.1640 ca        1 PN0      0.032000
      9 C13        -4.9140    3.0010   -7.8590 ca        1 PN0      0.415700
     10 C15        -4.7910    1.1650   -5.8080 ca        1 PN0     -0.247300
     11 C17         1.4090    1.8350    1.8840 c3        1 PN0     -0.110600
     12 C1          1.3980    0.3330    1.7340 c3        1 PN0      0.006100
     13 C2          1.6580   -0.1540    0.2820 c3        1 PN0      0.204500
     14 C3         -0.6330   -0.2360   -0.4660 c3        1 PN0      0.212800
     15 S1         -0.1820   -0.3720    2.2120 ss        1 PN0     -0.221200
     16 S2          0.9560    1.5700   -1.7590 sy        1 PN0      1.546200
     17 C9         -2.0640    1.8940   -4.2580 ca        1 PN0     -0.200500
     18 O1         -2.4640    0.7070   -6.3750 os        1 PN0     -0.225200
     19 C11        -3.6410    1.4480   -6.5540 ca        1 PN0      0.091100
     20 C12        -3.6770    2.3790   -7.5990 ca        1 PN0     -0.247300
     21 N2         -6.0380    2.7520   -7.1590 nb        1 PN0     -0.641000
     22 C14        -5.9680    1.8510   -6.1600 ca        1 PN0      0.415700
     23 O2          0.6880    2.7930   -1.1450 o         1 PN0     -0.676300
     24 O3          2.3190    1.3430   -2.1450 o         1 PN0     -0.676300
     25 C16         3.1040    0.1840   -0.1180 c         1 PN0      0.532100
     26 O4          4.6680   -0.1280   -1.9230 oh        1 PN0     -0.367300
     27 O5          3.8670    1.0260    0.3070 o         1 PN0     -0.356100
     28 C18         2.3810   -0.3060    2.6930 c3        1 PN0     -0.110600
     29 HN3         2.9310   -1.0260   -1.8530 hn        1 PN0      0.469800
     30 H4         -1.4540    1.2170    0.9440 h1        1 PN0      0.103200
     31 H4A        -2.1890   -0.4340    1.0310 h1        1 PN0      0.103200
     32 H6          1.1790   -0.2450   -3.9290 ha        1 PN0      0.151500
     33 H7         -0.3120   -0.5640   -5.9070 ha        1 PN0      0.177500
     34 H10        -1.4780    2.8140   -2.3990 ha        1 PN0      0.151500
     35 H17         2.4210    2.2520    1.6550 hc        1 PN0      0.069200
     36 H17A        1.1560    2.1050    2.9410 hc        1 PN0      0.069200
     37 H17B        0.6620    2.3260    1.2120 hc        1 PN0      0.069200
     38 H2          1.5900   -1.2920    0.3260 h1        1 PN0      0.094700
     39 H3         -1.3170    0.1460   -1.2790 h1        1 PN0      0.072700
     40 H3A        -0.5920   -1.3610   -0.5590 h1        1 PN0      0.072700
     41 H9         -2.9740    2.5070   -4.3640 ha        1 PN0      0.177500
     42 H12        -2.7870    2.6010   -8.2010 ha        1 PN0      0.162500
     43 H14        -6.9120    1.6650   -5.6130 h4        1 PN0      0.042100
     44 HO4         4.3490    0.7720   -2.1980 ho        1 PN0      0.509000
     45 H18         2.4330   -1.4120    2.5460 hc        1 PN0      0.069200
     46 H18A        3.4010    0.1340    2.5630 hc        1 PN0      0.069200
     47 H18B        2.0560   -0.1080    3.7470 hc        1 PN0      0.069200
     48 H13        -5.0080    3.7400   -8.6770 h4        1 PN0      0.042100
     49 H32         4.1340   -1.5670   -0.7870 hn        1 PN0      0.469800
     50 H15        -4.7830    0.4270   -4.9960 ha        1 PN0      0.162500
@<TRIPOS>BOND
     1    1   13 1   
     2    1   14 1   
     3    1   16 1   
     4    2   25 1   
     5    2   26 1   
     6    2   29 1   
     7    2   49 1   
     8    3   14 1   
     9    3   15 1   
    10    3   30 1   
    11    3   31 1   
    12    4    5 ar  
    13    4    8 ar  
    14    4   16 1   
    15    5    6 ar  
    16    5   32 1   
    17    6    7 ar  
    18    6   33 1   
    19    7   17 ar  
    20    7   18 1   
    21    8   17 ar  
    22    8   34 1   
    23    9   20 ar  
    24    9   21 ar  
    25    9   48 1   
    26   10   19 ar  
    27   10   22 ar  
    28   10   50 1   
    29   11   12 1   
    30   11   35 1   
    31   11   36 1   
    32   11   37 1   
    33   12   13 1   
    34   12   15 1   
    35   12   28 1   
    36   13   25 1   
    37   13   38 1   
    38   14   39 1   
    39   14   40 1   
    40   16   23 2   
    41   16   24 2   
    42   17   41 1   
    43   18   19 1   
    44   19   20 ar  
    45   20   42 1   
    46   21   22 ar  
    47   22   43 1   
    48   25   27 2   
    49   26   44 1   
    50   28   45 1   
    51   28   46 1   
    52   28   47 1   
@<TRIPOS>SUBSTRUCTURE
     1 PN0         1 TEMP              0 ****  ****    0 ROOT
