@<TRIPOS>MOLECULE
PN1
   42    44     1     0     0
SMALL
bcc


@<TRIPOS>ATOM
      1 C8         -1.6980    2.2920   -3.3420 ca        1 PN1     -0.129000
      2 C5          0.1300    0.7090   -3.3930 ca        1 PN1     -0.090300
      3 C6         -0.4820    0.9990    2.5380 c3        1 PN1      0.091100
      4 N1          1.2210   -0.3940   -0.9320 n         1 PN1     -0.525900
      5 N3          0.4150   -1.2660    2.1230 n         1 PN1     -0.337800
      6 C4          1.6020    0.4150   -3.2630 c3        1 PN1      0.144800
      7 C3          1.8290   -0.6340   -2.1380 c         1 PN1      0.621100
      8 C7         -0.3370    2.0150   -3.2210 ca        1 PN1     -0.111500
      9 C9         -2.5970    1.2680   -3.6400 ca        1 PN1     -0.125000
     10 C10        -2.1330   -0.0360   -3.8160 ca        1 PN1     -0.129000
     11 C11        -0.7730   -0.3170   -3.6950 ca        1 PN1     -0.111500
     12 C12        -0.5420   -0.5130    2.9060 c3        1 PN1     -0.081300
     13 C13         1.5400   -0.4650    1.6010 cy        1 PN1      0.134800
     14 C14         1.4120   -1.2100    0.2140 cy        1 PN1     -0.016300
     15 C15         0.1220   -1.8470    0.8510 c         1 PN1      0.649500
     16 N2          2.2020    0.0440   -4.5300 n3        1 PN1     -0.881800
     17 O3          2.5530   -1.6320   -2.3420 o         1 PN1     -0.635100
     18 O4         -0.7410   -2.6090    0.4370 o         1 PN1     -0.569500
     19 S1          1.0890    1.2700    1.6200 ss        1 PN1     -0.438200
     20 H8         -2.0620    3.3190   -3.1980 ha        1 PN1      0.131500
     21 H1          0.7030    0.4510   -0.7950 hn        1 PN1      0.339500
     22 H4          2.1420    1.3530   -2.9230 h1        1 PN1      0.082700
     23 H1C1       -0.4840    2.9600    3.4610 hc        1 PN1      0.046533
     24 H1C2       -1.3550    1.6580    4.3960 hc        1 PN1      0.046533
     25 H1C3        0.4550    1.6830    4.3670 hc        1 PN1      0.046533
     26 H7          0.3690    2.8270   -2.9870 ha        1 PN1      0.138000
     27 H9         -3.6710    1.4860   -3.7280 ha        1 PN1      0.128000
     28 H10        -2.8400   -0.8480   -4.0400 ha        1 PN1      0.131500
     29 H11        -0.4100   -1.3490   -3.8170 ha        1 PN1      0.138000
     30 H12        -1.5750   -0.9060    2.6750 h1        1 PN1      0.081700
     31 H13         2.4920   -0.6350    2.1470 h2        1 PN1      0.121700
     32 H14         2.2210   -1.9660    0.0370 h1        1 PN1      0.112700
     33 H161       -1.5160    2.4340    1.2760 hc        1 PN1      0.046533
     34 H162       -1.6340    0.7120    0.7160 hc        1 PN1      0.046533
     35 H163       -2.5910    1.2670    2.1530 hc        1 PN1      0.046533
     36 H2N1        3.1120   -0.3490   -4.3640 hn        1 PN1      0.357800
     37 H2N2        1.6410   -0.6460   -4.9920 hn        1 PN1      0.357800
     38 C1         -0.4630    1.8830    3.7570 c3        1 PN1     -0.089100
     39 C2         -0.3460   -0.7090    4.4680 c         1 PN1      0.942600
     40 O1          0.8100   -0.6860    4.9540 o         1 PN1     -0.810800
     41 O2         -1.4230   -0.8500    5.1050 o         1 PN1     -0.810800
     42 C16        -1.6170    1.3740    1.6150 c3        1 PN1     -0.089100
@<TRIPOS>BOND
     1    1    8 ar  
     2    1    9 ar  
     3    1   20 1   
     4    2    6 1   
     5    2    8 ar  
     6    2   11 ar  
     7    3   12 1   
     8    3   19 1   
     9    3   38 1   
    10    3   42 1   
    11    4    7 1   
    12    4   14 1   
    13    4   21 1   
    14    5   12 1   
    15    5   13 1   
    16    5   15 1   
    17    6    7 1   
    18    6   16 1   
    19    6   22 1   
    20    7   17 2   
    21    8   26 1   
    22    9   10 ar  
    23    9   27 1   
    24   10   11 ar  
    25   10   28 1   
    26   11   29 1   
    27   12   30 1   
    28   12   39 1   
    29   13   14 1   
    30   13   19 1   
    31   13   31 1   
    32   14   15 1   
    33   14   32 1   
    34   15   18 2   
    35   16   36 1   
    36   16   37 1   
    37   23   38 1   
    38   24   38 1   
    39   25   38 1   
    40   33   42 1   
    41   34   42 1   
    42   35   42 1   
    43   39   40 1   
    44   39   41 1   
@<TRIPOS>SUBSTRUCTURE
     1 PN1         1 TEMP              0 ****  ****    0 ROOT
