@<TRIPOS>MOLECULE
PN1
   44    42     1     0     0
SMALL
bcc


@<TRIPOS>ATOM
      1 C8         -0.2410   -1.0390    1.0340 c2        1 PN1     -0.167000
      2 C5          1.8250   -0.2490   -0.1640 c3        1 PN1     -0.110000
      3 C6          4.8640    5.3880   -1.2360 c3        1 PN1     -0.312000
      4 N1          4.0450    2.3140    2.4110 n         1 PN1     -0.327000
      5 N3          3.1430    4.0950   -0.1770 n3        1 PN1      0.151000
      6 C4          2.6540   -0.9540    0.9490 c3        1 PN1     -0.061000
      7 C3          5.1430    1.8280    3.0980 c2        1 PN1      0.269000
      8 C7          0.3580   -0.4110    0.0260 c2        1 PN1     -0.208000
      9 C9          1.8530    3.5890    0.0330 c1        1 PN1      0.123000
     10 C10         1.4660    2.2470    0.0140 c2        1 PN1     -0.326000
     11 C11         2.2570    1.1630   -0.2570 c2        1 PN1      0.130000
     12 C12         3.5760    4.6250   -1.3210 c2        1 PN1     -0.245000
     13 C13         4.0210    4.2960    0.9020 c2        1 PN1     -0.707000
     14 C14         3.8170    3.6810    2.1960 c2        1 PN1     -0.156000
     15 C15         3.2160    4.4370    3.1420 c1        1 PN1      0.335000
     16 N2          4.0710   -0.8090    0.7500 n3        1 PN1     -0.403000
     17 O3          5.3560    0.6070    3.1380 o         1 PN1     -0.349000
     18 O4          2.8070    5.1600    3.9790 o         1 PN1     -0.069000
     19 S1          5.3440    5.2150    0.5290 s4        1 PN1      1.203000
     20 H8         -1.3370   -1.1400    1.0760 ha        1 PN1      0.130000
     21 H1          3.3170    1.3010   -0.5560 ha        1 PN1      0.154000
     22 H4          2.3160   -2.0310    0.9530 h1        1 PN1      0.096000
     23 H1C1        4.0920    7.3310   -0.6020 hc        1 PN1      0.127667
     24 H1C2        4.0810    7.0470   -2.3960 hc        1 PN1      0.127667
     25 H1C3        5.6500    7.4040   -1.5460 hc        1 PN1      0.127667
     26 H7         -0.2410    0.0220   -0.7950 ha        1 PN1      0.133000
     27 H9          0.2910   -1.5010    1.8770 ha        1 PN1      0.130000
     28 H10         0.3950    2.0980    0.2710 ha        1 PN1      0.202000
     29 H11         2.0950   -0.7440   -1.1510 hc        1 PN1      0.149000
     30 H12         3.0140    4.5550   -2.2610 h4        1 PN1      0.217000
     31 H13         6.2960    4.3220    0.4590 hs        1 PN1     -0.120000
     32 H14         3.4650    1.6770    1.9100 hn        1 PN1      0.221000
     33 H161        5.6020    2.8230   -1.8190 ha        1 PN1      0.019500
     34 H162        6.2820    2.7650   -1.8820 ha        1 PN1      0.019500
     35 H163        5.7640    4.7860   -3.1600 ha        1 PN1      0.105000
     36 H2N1        4.4480   -1.5530    0.2010 hn        1 PN1      0.184000
     37 H2N2        4.5640   -0.7340    1.6200 hn        1 PN1      0.184000
     38 C2          3.1230    9.6460    1.7470 c1        1 PN1      0.428000
     39 O1          3.6080    8.6760    1.2460 o         1 PN1     -0.214000
     40 O2          2.6410   10.6080    2.2430 o         1 PN1     -0.214000
     41 C16         5.9520    4.9310   -2.0890 c1        1 PN1     -0.012000
     42 H121        5.7700    2.5910    3.6100 h5        1 PN1      0.144000
     43 H23         2.3610   -0.5010    1.9380 h1        1 PN1      0.096000
     44 C1          4.6640    6.8840   -1.4560 c3        1 PN1     -0.206000
@<TRIPOS>BOND
     1    1    8 1   
     2    1   20 1   
     3    1   27 1   
     4    2    6 1   
     5    2    8 1   
     6    2   11 1   
     7    2   29 1   
     8    3   12 1   
     9    3   19 1   
    10    3   41 1   
    11    3   44 1   
    12    4    7 1   
    13    4   14 1   
    14    4   32 1   
    15    5    9 1   
    16    5   12 1   
    17    5   13 1   
    18    6   16 1   
    19    6   22 1   
    20    6   43 1   
    21    7   17 1   
    22    7   42 1   
    23    8   26 1   
    24    9   10 1   
    25   10   11 1   
    26   10   28 1   
    27   11   21 1   
    28   12   30 1   
    29   13   14 1   
    30   13   19 1   
    31   14   15 1   
    32   15   18 1   
    33   16   36 1   
    34   16   37 1   
    35   19   31 1   
    36   23   44 1   
    37   24   44 1   
    38   25   44 1   
    39   33   34 1   
    40   35   41 1   
    41   38   39 1   
    42   38   40 1   
@<TRIPOS>SUBSTRUCTURE
     1 PN1         1 TEMP              0 ****  ****    0 ROOT
