@<TRIPOS>MOLECULE
PN2
   55    54     1     0     0
SMALL
bcc


@<TRIPOS>ATOM
      1 CA         -0.1660    0.7240   -0.6040 c2        1 PN2     -0.298300
      2 N          -0.2350   -0.4240   -1.4280 nh        1 PN2     -0.779600
      3 C           0.7860    0.9530    0.3080 c1        1 PN2      0.578600
      4 O           1.6230    1.1830    1.1110 o         1 PN2     -0.312500
      5 CB         -1.2730    1.7340   -0.7260 c3        1 PN2      0.278600
      6 O5         -2.4530    1.2650   -0.1010 os        1 PN2     -0.580200
      7 P6         -3.6910    0.7710   -0.9640 p5        1 PN2      1.650500
      8 O7         -3.1000   -0.0730   -2.1560 oh        1 PN2     -0.785400
      9 O8         -4.8650    0.2840   -0.2620 o         1 PN2     -0.788300
     10 O9         -4.0900    2.1270   -1.7880 os        1 PN2     -0.567200
     11 C11        -6.0610    2.7940   -3.0440 c3        1 PN2     -0.096000
     12 C12        -5.3960    2.5990   -1.6570 c3        1 PN2      0.178400
     13 C13        -5.5280    4.0670   -3.6720 c3        1 PN2     -0.110600
     14 C14        -5.7980    1.6080   -3.9550 c3        1 PN2     -0.110600
     15 C10        -7.5840    2.8960   -2.7830 c3        1 PN2      0.096100
     16 O10        -7.9240    3.9150   -1.8550 oh        1 PN2     -0.652800
     17 C9         -8.3190    3.2150   -4.0790 c         1 PN2      0.564100
     18 O39        -8.6800    2.4670   -4.9630 o         1 PN2     -0.372100
     19 N8         -8.6330    4.7050   -4.3320 n4        1 PN2     -0.684800
     20 C7         -9.9630    5.0420   -3.7660 c3        1 PN2      0.104800
     21 C42       -10.4000    6.4870   -4.0300 c3        1 PN2     -0.179400
     22 C43       -11.7500    6.7020   -3.3970 c         1 PN2      0.538100
     23 O44       -12.3820    5.8910   -2.7390 o         1 PN2     -0.374100
     24 N4        -12.3850    8.0500   -3.5910 n4        1 PN2     -0.679800
     25 C3        -13.2260    8.0910   -4.8430 c3        1 PN2      0.113800
     26 C47       -13.8800    9.4430   -5.0740 c3        1 PN2     -0.070300
     27 S1        -14.5070    9.4130   -6.7130 sh        1 PN2     -0.240900
     28 HN1         0.4520   -0.3850   -2.1580 hn        1 PN2      0.374800
     29 HN2        -0.1120   -1.2660   -0.8960 hn        1 PN2      0.374800
     30 HCB1       -0.9920    2.6840   -0.1920 h1        1 PN2      0.060200
     31 HCB2       -1.4970    1.9500   -1.8080 h1        1 PN2      0.060200
     32 H121       -6.0130    1.8850   -1.0380 h1        1 PN2      0.063700
     33 H122       -5.3490    3.6090   -1.1530 h1        1 PN2      0.063700
     34 H131       -5.8470    4.9630   -3.0860 hc        1 PN2      0.060033
     35 H132       -5.8700    4.1680   -4.7310 hc        1 PN2      0.060033
     36 H133       -4.4080    4.0280   -3.6690 hc        1 PN2      0.060033
     37 H141       -4.7000    1.5240   -4.1540 hc        1 PN2      0.060033
     38 H142       -6.1470    0.6570   -3.4840 hc        1 PN2      0.060033
     39 H143       -6.3210    1.7350   -4.9340 hc        1 PN2      0.060033
     40 H10        -7.9800    1.8930   -2.4300 h1        1 PN2      0.136700
     41 H10O       -7.5710    3.6490   -0.9900 ho        1 PN2      0.480000
     42 HN8        -8.6160    4.8910   -5.3410 hn        1 PN2      0.464800
     43 H71       -10.7220    4.3300   -4.2100 hx        1 PN2      0.141200
     44 H72        -9.9150    4.8530   -2.6470 hx        1 PN2      0.141200
     45 H421      -10.4670    6.6910   -5.1350 hc        1 PN2      0.118200
     46 H422       -9.6640    7.2120   -3.5830 hc        1 PN2      0.118200
     47 HN4       -12.9960    8.2520   -2.7840 hn        1 PN2      0.471800
     48 H31       -12.5520    7.8410   -5.7140 hx        1 PN2      0.117700
     49 H2        -14.0140    7.2870   -4.7430 hx        1 PN2      0.117700
     50 H471      -13.1290   10.2750   -5.0320 h1        1 PN2      0.109200
     51 H472      -14.6660    9.6550   -4.3090 h1        1 PN2      0.109200
     52 HS        -15.7980    9.2140   -6.4730 hs        1 PN2      0.234800
     53 HN3        -2.1820   -0.3700   -2.1370 ho        1 PN2      0.526000
     54 H82        -7.8980    5.2560   -3.8680 hn        1 PN2      0.464800
     55 H42       -11.6660    8.7800   -3.6420 hn        1 PN2      0.471800
@<TRIPOS>BOND
     1    1    2 1   
     2    1    3 2   
     3    1    5 1   
     4    2   28 1   
     5    2   29 1   
     6    3    4 2   
     7    5    6 1   
     8    5   30 1   
     9    5   31 1   
    10    6    7 1   
    11    7    8 1   
    12    7    9 2   
    13    7   10 1   
    14    8   53 1   
    15   10   12 1   
    16   11   12 1   
    17   11   13 1   
    18   11   14 1   
    19   11   15 1   
    20   12   32 1   
    21   12   33 1   
    22   13   34 1   
    23   13   35 1   
    24   13   36 1   
    25   14   37 1   
    26   14   38 1   
    27   14   39 1   
    28   15   16 1   
    29   15   17 1   
    30   15   40 1   
    31   16   41 1   
    32   17   18 2   
    33   17   19 1   
    34   19   20 1   
    35   19   42 1   
    36   19   54 1   
    37   20   21 1   
    38   20   43 1   
    39   20   44 1   
    40   21   22 1   
    41   21   45 1   
    42   21   46 1   
    43   22   23 2   
    44   22   24 1   
    45   24   25 1   
    46   24   47 1   
    47   24   55 1   
    48   25   26 1   
    49   25   48 1   
    50   25   49 1   
    51   26   27 1   
    52   26   50 1   
    53   26   51 1   
    54   27   52 1   
@<TRIPOS>SUBSTRUCTURE
     1 PN2         1 TEMP              0 ****  ****    0 ROOT
