@<TRIPOS>MOLECULE
PN2
   55    54     1     0     0
SMALL
bcc


@<TRIPOS>ATOM
      1 CA          0.1220   -1.9620   -0.8090 c2        1 PN2     -0.323300
      2 N          -0.7630   -2.1070    0.2880 nv        1 PN2     -0.784600
      3 C           1.4050   -1.5870   -0.7070 c1        1 PN2      0.598600
      4 O           2.5400   -1.2760   -0.6330 o         1 PN2     -0.282500
      5 CB         -0.4140   -2.2540   -2.1770 c3        1 PN2      0.283600
      6 O5         -0.5410   -3.6530   -2.4000 os        1 PN2     -0.601200
      7 P6         -1.9310   -4.3890   -2.2920 p5        1 PN2      1.719500
      8 O7         -1.9150   -5.8490   -2.4630 o         1 PN2     -0.856300
      9 O8         -2.6910   -3.7690   -1.0730 oh        1 PN2     -0.817400
     10 O9         -2.8020   -3.9560   -3.5740 os        1 PN2     -0.646200
     11 C11        -5.0590   -3.2680   -4.1650 c3        1 PN2     -0.090000
     12 C12        -3.6930   -2.8650   -3.5730 c3        1 PN2      0.162400
     13 C13        -6.0200   -3.6320   -3.0450 c3        1 PN2     -0.110100
     14 C14        -5.6120   -2.0540   -4.9130 c3        1 PN2     -0.110100
     15 C10        -4.9690   -4.4160   -5.1930 c3        1 PN2      0.120100
     16 O10        -3.9160   -4.3150   -6.1170 oh        1 PN2     -0.591800
     17 C9         -4.9470   -5.8010   -4.5260 c         1 PN2      0.527100
     18 O39        -5.8720   -6.3440   -3.9450 o         1 PN2     -0.416100
     19 N8         -3.6520   -6.5800   -4.6440 ny        1 PN2     -0.690800
     20 C7         -3.7560   -8.0170   -4.2900 c3        1 PN2      0.117800
     21 C42        -2.4370   -8.5860   -3.7560 c3        1 PN2     -0.196400
     22 C43        -2.6880   -9.9400   -3.1630 c         1 PN2      0.547100
     23 O44        -3.7420  -10.5540   -3.1140 o         1 PN2     -0.389100
     24 N4         -1.4970  -10.6200   -2.5350 ny        1 PN2     -0.682800
     25 C3         -0.7350  -11.4340   -3.5430 c3        1 PN2      0.111800
     26 C47         0.4680  -12.1470   -2.9470 c3        1 PN2     -0.068300
     27 S1          1.4230  -12.7500   -4.2900 sh        1 PN2     -0.247900
     28 HN1        -1.1090   -1.2130    0.5890 hn        1 PN2      0.380800
     29 HN2        -0.3170   -2.5670    1.0600 hn        1 PN2      0.380800
     30 HCB1        0.2980   -1.8850   -2.9690 h1        1 PN2      0.063200
     31 HCB2       -1.4310   -1.7910   -2.3200 h1        1 PN2      0.063200
     32 H121       -3.2330   -2.0540   -4.2120 h1        1 PN2      0.075700
     33 H122       -3.8310   -2.4880   -2.5230 h1        1 PN2      0.075700
     34 H131       -6.9700   -4.0510   -3.4610 hc        1 PN2      0.066533
     35 H132       -6.2730   -2.7200   -2.4500 hc        1 PN2      0.066533
     36 H133       -5.5690   -4.3860   -2.3570 hc        1 PN2      0.066533
     37 H141       -5.0110   -1.8540   -5.8340 hc        1 PN2      0.066533
     38 H142       -5.5780   -1.1530   -4.2540 hc        1 PN2      0.066533
     39 H143       -6.6740   -2.2320   -5.2090 hc        1 PN2      0.066533
     40 H10        -5.9200   -4.4290   -5.8180 h1        1 PN2      0.142700
     41 H10O       -3.2350   -3.7180   -5.7740 ho        1 PN2      0.449000
     42 HN8        -2.9650   -6.1080   -4.0070 hn        1 PN2      0.488800
     43 H71        -4.0900   -8.5910   -5.2020 hx        1 PN2      0.126700
     44 H72        -4.5580   -8.1340   -3.4980 hx        1 PN2      0.126700
     45 H421       -2.0040   -7.8990   -2.9610 hc        1 PN2      0.145200
     46 H422       -1.6780   -8.6730   -4.5820 hc        1 PN2      0.145200
     47 HN4        -0.8730   -9.9200   -2.1190 hn        1 PN2      0.467800
     48 H31        -0.3940  -10.7330   -4.3600 hx        1 PN2      0.116700
     49 H2         -1.4560  -12.1850   -3.9820 hx        1 PN2      0.116700
     50 H471        0.1550  -12.9530   -2.2400 h1        1 PN2      0.105700
     51 H472        1.1270  -11.4350   -2.3850 h1        1 PN2      0.105700
     52 HS          1.0470  -14.0220   -4.2990 hs        1 PN2      0.229800
     53 HN3        -2.2310   -3.2500   -0.3880 ho        1 PN2      0.551000
     54 H82        -3.3140   -6.4680   -5.6080 hn        1 PN2      0.488800
     55 H42        -1.8250  -11.2490   -1.7860 hn        1 PN2      0.467800
@<TRIPOS>BOND
     1    1    2 1   
     2    1    3 2   
     3    1    5 1   
     4    2   28 1   
     5    2   29 1   
     6    3    4 2   
     7    5    6 1   
     8    5   30 1   
     9    5   31 1   
    10    6    7 1   
    11    7    8 2   
    12    7    9 1   
    13    7   10 1   
    14    9   53 1   
    15   10   12 1   
    16   11   12 1   
    17   11   13 1   
    18   11   14 1   
    19   11   15 1   
    20   12   32 1   
    21   12   33 1   
    22   13   34 1   
    23   13   35 1   
    24   13   36 1   
    25   14   37 1   
    26   14   38 1   
    27   14   39 1   
    28   15   16 1   
    29   15   17 1   
    30   15   40 1   
    31   16   41 1   
    32   17   18 2   
    33   17   19 1   
    34   19   20 1   
    35   19   42 1   
    36   19   54 1   
    37   20   21 1   
    38   20   43 1   
    39   20   44 1   
    40   21   22 1   
    41   21   45 1   
    42   21   46 1   
    43   22   23 2   
    44   22   24 1   
    45   24   25 1   
    46   24   47 1   
    47   24   55 1   
    48   25   26 1   
    49   25   48 1   
    50   25   49 1   
    51   26   27 1   
    52   26   50 1   
    53   26   51 1   
    54   27   52 1   
@<TRIPOS>SUBSTRUCTURE
     1 PN2         1 TEMP              0 ****  ****    0 ROOT
