@<TRIPOS>MOLECULE
PN2
   55    54     1     0     0
SMALL
bcc


@<TRIPOS>ATOM
      1 CA         -1.4200    2.1880    0.0470 c2        1 PN2     -0.400300
      2 N          -0.6310    0.9760    0.0340 n4        1 PN2     -0.650400
      3 C          -1.0470    3.2960    0.7040 c1        1 PN2      0.647600
      4 O          -0.7890    4.2980    1.2550 o         1 PN2     -0.205500
      5 CB         -2.7340    2.1630   -0.7000 c3        1 PN2      0.252600
      6 O5         -2.5310    1.6050   -1.9740 os        1 PN2     -0.594200
      7 P6         -2.8210    2.5150   -3.2830 p5        1 PN2      1.655500
      8 O7         -1.3930    2.4780   -3.9540 oh        1 PN2     -0.749400
      9 O8         -3.4580    3.7740   -2.9230 o         1 PN2     -0.821300
     10 O9         -3.6170    1.5770   -4.2860 os        1 PN2     -0.591200
     11 C11        -5.5720    1.9120   -5.7380 c3        1 PN2     -0.089000
     12 C12        -5.0330    1.6590   -4.3170 c3        1 PN2      0.176400
     13 C13        -4.4750    2.2130   -6.7430 c3        1 PN2     -0.094600
     14 C14        -6.3070    0.6530   -6.1970 c3        1 PN2     -0.094600
     15 C10        -6.6020    3.0680   -5.7270 c3        1 PN2      0.081100
     16 O10        -7.3520    3.0840   -4.5230 oh        1 PN2     -0.607800
     17 C9         -5.9640    4.4570   -5.8830 c         1 PN2      0.679100
     18 O39        -5.9820    5.0190   -7.0050 o         1 PN2     -0.691100
     19 N8         -5.3960    5.0820   -4.8040 n         1 PN2     -0.544900
     20 C7         -4.7070    6.3340   -4.9140 c3        1 PN2      0.098000
     21 C42        -5.6130    7.5800   -4.9400 c3        1 PN2     -0.186400
     22 C43        -5.4400    8.3820   -6.1990 c         1 PN2      0.546100
     23 O44        -4.9200    9.4850   -6.2890 o         1 PN2     -0.412100
     24 N4         -5.9470    7.7570   -7.4680 n4        1 PN2     -0.687800
     25 C3         -6.6170    8.7250   -8.3860 c3        1 PN2      0.104800
     26 C47        -6.6500    8.2210   -9.8200 c3        1 PN2     -0.053300
     27 S1         -5.1000    7.5560  -10.3300 sh        1 PN2     -0.327900
     28 HN1        -0.9000    0.4500   -0.8160 hn        1 PN2      0.471800
     29 HN2        -0.8380    0.4060    0.8630 hn        1 PN2      0.471800
     30 HCB1       -3.4540    1.4890   -0.1490 h1        1 PN2      0.099700
     31 HCB2       -3.1570    3.2050   -0.7820 h1        1 PN2      0.099700
     32 H121       -5.3640    2.4720   -3.6120 h1        1 PN2      0.066700
     33 H122       -5.4170    0.6640   -3.9470 h1        1 PN2      0.066700
     34 H131       -3.7400    1.3720   -6.7650 hc        1 PN2      0.054200
     35 H132       -4.9170    2.3320   -7.7630 hc        1 PN2      0.054200
     36 H133       -3.9340    3.1560   -6.4890 hc        1 PN2      0.054200
     37 H141       -6.6870    0.7810   -7.2400 hc        1 PN2      0.054200
     38 H142       -5.6120   -0.2210   -6.1820 hc        1 PN2      0.054200
     39 H143       -7.1720    0.4370   -5.5240 hc        1 PN2      0.054200
     40 H10        -7.2870    2.9440   -6.6180 h1        1 PN2      0.095700
     41 H10O       -8.0330    2.4030   -4.6040 ho        1 PN2      0.437000
     42 HN8        -5.4400    4.6590   -3.9010 hn        1 PN2      0.362500
     43 H71        -4.0670    6.3190   -5.8430 h1        1 PN2      0.081200
     44 H72        -4.0200    6.4180   -4.0190 h1        1 PN2      0.081200
     45 H421       -6.6980    7.3150   -4.8080 hc        1 PN2      0.117200
     46 H422       -5.3310    8.2560   -4.0840 hc        1 PN2      0.117200
     47 HN4        -5.1400    7.3370   -7.9890 hn        1 PN2      0.484800
     48 H31        -6.0530    9.7040   -8.3350 hx        1 PN2      0.115200
     49 H2         -7.6670    8.8990   -8.0140 hx        1 PN2      0.115200
     50 H471       -6.9990    9.0590  -10.4750 h1        1 PN2      0.122700
     51 H472       -7.3880    7.3830   -9.9330 h1        1 PN2      0.122700
     52 HS         -4.4870    8.6580  -10.7490 hs        1 PN2      0.237800
     53 HN3         0.3730    1.1810   -0.0020 hn        1 PN2      0.471800
     54 H82        -1.2600    1.8970   -4.7050 ho        1 PN2      0.513000
     55 H42        -6.5860    6.9790   -7.2400 hn        1 PN2      0.484800
@<TRIPOS>BOND
     1    1    2 1   
     2    1    3 2   
     3    1    5 1   
     4    2   28 1   
     5    2   29 1   
     6    2   53 1   
     7    3    4 2   
     8    5    6 1   
     9    5   30 1   
    10    5   31 1   
    11    6    7 1   
    12    7    8 1   
    13    7    9 2   
    14    7   10 1   
    15    8   54 1   
    16   10   12 1   
    17   11   12 1   
    18   11   13 1   
    19   11   14 1   
    20   11   15 1   
    21   12   32 1   
    22   12   33 1   
    23   13   34 1   
    24   13   35 1   
    25   13   36 1   
    26   14   37 1   
    27   14   38 1   
    28   14   39 1   
    29   15   16 1   
    30   15   17 1   
    31   15   40 1   
    32   16   41 1   
    33   17   18 2   
    34   17   19 1   
    35   19   20 1   
    36   19   42 1   
    37   20   21 1   
    38   20   43 1   
    39   20   44 1   
    40   21   22 1   
    41   21   45 1   
    42   21   46 1   
    43   22   23 2   
    44   22   24 1   
    45   24   25 1   
    46   24   47 1   
    47   24   55 1   
    48   25   26 1   
    49   25   48 1   
    50   25   49 1   
    51   26   27 1   
    52   26   50 1   
    53   26   51 1   
    54   27   52 1   
@<TRIPOS>SUBSTRUCTURE
     1 PN2         1 TEMP              0 ****  ****    0 ROOT
