@<TRIPOS>MOLECULE
PN2
   52    51     1     0     0
SMALL
bcc


@<TRIPOS>ATOM
      1 CA         -2.9980   -1.3460   -3.1970 c2        1 PN2     -0.270300
      2 N          -3.8550   -1.1000   -4.3050 nh        1 PN2     -0.751600
      3 C          -2.8190   -2.5920   -2.7660 c1        1 PN2      0.619600
      4 O          -2.6470   -3.6980   -2.3660 o         1 PN2     -0.403500
      5 CB         -2.2860   -0.2150   -2.5060 c3        1 PN2      0.226600
      6 O5         -1.6020   -0.6870   -1.3790 os        1 PN2     -0.569200
      7 P6         -0.9350    0.5300   -0.4940 p5        1 PN2      1.443800
      8 O7         -0.3130   -0.0840    0.7060 o         1 PN2     -0.838500
      9 O8         -1.8770    1.6590   -0.4740 o         1 PN2     -0.838500
     10 O9          0.2820    0.8730   -1.5590 os        1 PN2     -0.581200
     11 C11         2.5530   -0.0110   -1.6810 c3        1 PN2     -0.093000
     12 C12         1.5720    1.0030   -1.0520 c3        1 PN2      0.192400
     13 C13         1.8640   -1.3070   -2.0890 c3        1 PN2     -0.077100
     14 C14         3.1210    0.6140   -2.9540 c3        1 PN2     -0.077100
     15 C10         3.7220   -0.3530   -0.7290 c3        1 PN2      0.080100
     16 O10         4.8440    0.4830   -0.9530 oh        1 PN2     -0.598800
     17 C9          3.3970   -0.3270    0.7750 c         1 PN2      0.612100
     18 O39         4.0620    0.4390    1.5080 o         1 PN2     -0.634100
     19 N8          2.4860   -1.2380    1.2830 n         1 PN2     -0.516900
     20 C7          2.1520   -1.1690    2.6920 c3        1 PN2      0.091000
     21 C42         0.8030   -1.8100    3.0220 c3        1 PN2     -0.168400
     22 C43         0.0720   -1.0320    4.1000 c         1 PN2      0.662100
     23 O44        -0.0660   -1.4950    5.2560 o         1 PN2     -0.658100
     24 N4         -0.4110    0.2100    3.7470 n         1 PN2     -0.556900
     25 C3         -1.2610    0.9730    4.6120 c3        1 PN2      0.092000
     26 C47        -2.7490    0.8880    4.2830 c3        1 PN2     -0.022300
     27 S1         -3.7320    1.7480    5.4740 sh        1 PN2     -0.396900
     28 HN1        -3.3340   -0.6140   -5.0120 hn        1 PN2      0.345800
     29 HN2        -4.6060   -0.5040   -4.0040 hn        1 PN2      0.345800
     30 HCB1       -3.0260    0.5710   -2.1810 h1        1 PN2      0.044200
     31 HCB2       -1.5360    0.2520   -3.2050 h1        1 PN2      0.044200
     32 H121        1.5500    0.9090    0.0700 h1        1 PN2      0.032200
     33 H122        1.9390    2.0410   -1.3080 h1        1 PN2      0.032200
     34 H131        1.4280   -1.8460   -1.2180 hc        1 PN2      0.037200
     35 H132        1.0370   -1.0800   -2.8070 hc        1 PN2      0.037200
     36 H133        2.5950   -1.9860   -2.5930 hc        1 PN2      0.037200
     37 H141        3.6610    1.5620   -2.7200 hc        1 PN2      0.037200
     38 H142        3.8410   -0.0870   -3.4400 hc        1 PN2      0.037200
     39 H143        2.2850    0.8380   -3.6590 hc        1 PN2      0.037200
     40 H10         4.1060   -1.3850   -0.9850 h1        1 PN2      0.082700
     41 H10O        4.7180    1.2940   -0.4400 ho        1 PN2      0.418000
     42 HN8         1.7080   -1.4450    0.6850 hn        1 PN2      0.331500
     43 H71         2.9670   -1.7090    3.2540 h1        1 PN2      0.050700
     44 H72         2.1720   -0.0940    3.0350 h1        1 PN2      0.050700
     45 H421        0.1360   -1.8500    2.1120 hc        1 PN2      0.090200
     46 H422        0.9600   -2.8550    3.3930 hc        1 PN2      0.090200
     47 HN4        -0.4060    0.4450    2.7710 hn        1 PN2      0.365500
     48 H31        -1.1010    0.6250    5.6740 h1        1 PN2      0.058200
     49 H2         -0.9440    2.0540    4.5430 h1        1 PN2      0.058200
     50 H471       -2.9670    1.3890    3.3050 h1        1 PN2      0.087700
     51 H472       -3.0760   -0.1760    4.2080 h1        1 PN2      0.087700
     52 HS         -3.4230    1.0530    6.5540 hs        1 PN2      0.196800
@<TRIPOS>BOND
     1    1    2 1   
     2    1    3 2   
     3    1    5 1   
     4    2   28 1   
     5    2   29 1   
     6    3    4 2   
     7    5    6 1   
     8    5   30 1   
     9    5   31 1   
    10    6    7 1   
    11    7    8 1   
    12    7    9 1   
    13    7   10 1   
    14   10   12 1   
    15   11   12 1   
    16   11   13 1   
    17   11   14 1   
    18   11   15 1   
    19   12   32 1   
    20   12   33 1   
    21   13   34 1   
    22   13   35 1   
    23   13   36 1   
    24   14   37 1   
    25   14   38 1   
    26   14   39 1   
    27   15   16 1   
    28   15   17 1   
    29   15   40 1   
    30   16   41 1   
    31   17   18 2   
    32   17   19 1   
    33   19   20 1   
    34   19   42 1   
    35   20   21 1   
    36   20   43 1   
    37   20   44 1   
    38   21   22 1   
    39   21   45 1   
    40   21   46 1   
    41   22   23 2   
    42   22   24 1   
    43   24   25 1   
    44   24   47 1   
    45   25   26 1   
    46   25   48 1   
    47   25   49 1   
    48   26   27 1   
    49   26   50 1   
    50   26   51 1   
    51   27   52 1   
@<TRIPOS>SUBSTRUCTURE
     1 PN2         1 TEMP              0 ****  ****    0 ROOT
