@<TRIPOS>MOLECULE
PN3
   45    45     1     0     0
SMALL
bcc


@<TRIPOS>ATOM
      1 C1         -0.4860    1.9950    0.3910 c         1 PN3      0.556900
      2 O2          0.0510    2.7190    1.1920 o         1 PN3     -0.324100
      3 N3         -0.7170    0.5250    0.8420 n4        1 PN3     -0.425700
      4 O4         -0.3390    0.2780    2.1210 oh        1 PN3     -0.408300
      5 C5         -2.1760    0.1600    0.7460 c3        1 PN3      0.099800
      6 C6         -2.4700   -1.3470    0.6090 c3        1 PN3      0.114500
      7 C7         -4.0090   -1.5000    0.5420 c3        1 PN3     -0.041100
      8 C8         -4.4110   -2.9290    0.4900 ca        1 PN3     -0.190300
      9 C9         -4.3970   -3.6220   -0.7260 ca        1 PN3     -0.128000
     10 C10        -4.8390   -4.9430   -0.7820 ca        1 PN3     -0.106500
     11 C11        -5.3010   -5.5780    0.3720 ca        1 PN3     -0.079000
     12 C12        -5.3210   -4.8880    1.5870 ca        1 PN3     -0.106500
     13 C13        -4.8790   -3.5670    1.6480 ca        1 PN3     -0.128000
     14 N14        -1.8880   -2.1870    1.7100 n4        1 PN3     -0.667800
     15 C15        -0.5400   -2.7780    1.3430 c         1 PN3      0.666100
     16 O16         0.2140   -2.1460    0.6040 o         1 PN3     -0.523000
     17 O17        -0.3870   -3.9500    1.9200 os        1 PN3     -0.406900
     18 C18         0.8890   -4.7680    1.6940 c3        1 PN3      0.223800
     19 C19         0.9890   -5.0760    0.2210 c3        1 PN3     -0.136767
     20 C20         2.0530   -3.9710    2.2270 c3        1 PN3     -0.136767
     21 C21         0.5700   -5.9870    2.5360 c3        1 PN3     -0.136767
     22 H1         -0.8480    2.1660   -0.6480 hx        1 PN3      0.171200
     23 HO4         0.3240    0.9550    2.4130 ho        1 PN3      0.506000
     24 H5         -2.6940    0.5830    1.6590 hx        1 PN3      0.141700
     25 H5A        -2.5920    0.6610   -0.1780 hx        1 PN3      0.141700
     26 H6         -2.0340   -1.7390   -0.3630 hx        1 PN3      0.134700
     27 H7         -4.3550   -0.9710   -0.3890 hc        1 PN3      0.096700
     28 H7A        -4.4830   -0.9890    1.4230 hc        1 PN3      0.096700
     29 H9         -4.0640   -3.1190   -1.6470 ha        1 PN3      0.136000
     30 H10        -4.8420   -5.4810   -1.7460 ha        1 PN3      0.168500
     31 H11        -5.6670   -6.6170    0.3230 ha        1 PN3      0.173000
     32 H12        -5.7070   -5.3810    2.4940 ha        1 PN3      0.168500
     33 H13        -4.9540   -3.0150    2.5980 ha        1 PN3      0.136000
     34 HN14       -2.5450   -2.9720    1.9110 hn        1 PN3      0.489800
     35 H19         1.8520   -5.7730    0.0580 hc        1 PN3      0.081589
     36 H19A        1.1710   -4.1480   -0.3740 hc        1 PN3      0.081589
     37 H19B        0.0610   -5.5780   -0.1460 hc        1 PN3      0.081589
     38 H20         2.9750   -4.6070    2.1770 hc        1 PN3      0.081589
     39 H20A        2.2270   -3.0540    1.6140 hc        1 PN3      0.081589
     40 H20B        1.8850   -3.6820    3.2920 hc        1 PN3      0.081589
     41 H21        -0.3460   -6.5030    2.1610 hc        1 PN3      0.081589
     42 H21A        1.4370   -6.6930    2.4660 hc        1 PN3      0.081589
     43 H21B        0.4190   -5.7070    3.6060 hc        1 PN3      0.081589
     44 H31        -0.1550   -0.1090    0.2220 hn        1 PN3      0.499800
     45 H142       -1.7730   -1.6360    2.5700 hn        1 PN3      0.489800
@<TRIPOS>BOND
     1    1    2 2   
     2    1    3 1   
     3    1   22 1   
     4    3    4 1   
     5    3    5 1   
     6    3   44 1   
     7    4   23 1   
     8    5    6 1   
     9    5   24 1   
    10    5   25 1   
    11    6    7 1   
    12    6   14 1   
    13    6   26 1   
    14    7    8 1   
    15    7   27 1   
    16    7   28 1   
    17    8    9 ar  
    18    8   13 ar  
    19    9   10 ar  
    20    9   29 1   
    21   10   11 ar  
    22   10   30 1   
    23   11   12 ar  
    24   11   31 1   
    25   12   13 ar  
    26   12   32 1   
    27   13   33 1   
    28   14   15 1   
    29   14   34 1   
    30   14   45 1   
    31   15   16 2   
    32   15   17 1   
    33   17   18 1   
    34   18   19 1   
    35   18   20 1   
    36   18   21 1   
    37   19   35 1   
    38   19   36 1   
    39   19   37 1   
    40   20   38 1   
    41   20   39 1   
    42   20   40 1   
    43   21   41 1   
    44   21   42 1   
    45   21   43 1   
@<TRIPOS>SUBSTRUCTURE
     1 PN3         1 TEMP              0 ****  ****    0 ROOT
