@<TRIPOS>MOLECULE
PN3
   45    45     1     0     0
SMALL
bcc


@<TRIPOS>ATOM
      1 C1         -0.4730    1.9950    0.4090 c         1 PN3      0.556900
      2 O2          0.0700    2.7130    1.2100 o         1 PN3     -0.324100
      3 N3         -0.7060    0.5230    0.8530 nx        1 PN3     -0.425700
      4 O4         -0.3210    0.2680    2.1290 oh        1 PN3     -0.408300
      5 C5         -2.1660    0.1630    0.7640 c3        1 PN3      0.099800
      6 C6         -2.4660   -1.3420    0.6210 c3        1 PN3      0.114500
      7 C7         -4.0060   -1.4900    0.5620 c3        1 PN3     -0.041100
      8 C8         -4.4120   -2.9170    0.5050 ca        1 PN3     -0.190300
      9 C9         -4.4070   -3.6050   -0.7150 ca        1 PN3     -0.128000
     10 C10        -4.8540   -4.9240   -0.7750 ca        1 PN3     -0.106500
     11 C11        -5.3110   -5.5630    0.3790 ca        1 PN3     -0.079000
     12 C12        -5.3220   -4.8800    1.5970 ca        1 PN3     -0.106500
     13 C13        -4.8760   -3.5610    1.6620 ca        1 PN3     -0.128000
     14 N14        -1.8800   -2.1900    1.7150 ny        1 PN3     -0.667800
     15 C15        -0.5360   -2.7830    1.3360 c         1 PN3      0.666100
     16 O16         0.2150   -2.1500    0.5960 o         1 PN3     -0.523000
     17 O17        -0.3830   -3.9580    1.9070 os        1 PN3     -0.406900
     18 C18         0.8880   -4.7790    1.6690 c3        1 PN3      0.223800
     19 C19         0.9800   -5.0800    0.1940 c3        1 PN3     -0.136767
     20 C20         2.0580   -3.9890    2.1990 c3        1 PN3     -0.136767
     21 C21         0.5710   -6.0020    2.5060 c3        1 PN3     -0.136767
     22 H1         -0.8400    2.1720   -0.6270 hx        1 PN3      0.171200
     23 HO4         0.3450    0.9420    2.4210 ho        1 PN3      0.506000
     24 H5         -2.6780    0.5830    1.6810 hx        1 PN3      0.141700
     25 H5A        -2.5860    0.6700   -0.1550 hx        1 PN3      0.141700
     26 H6         -2.0370   -1.7300   -0.3550 hx        1 PN3      0.134700
     27 H7         -4.4730   -0.9820    1.4480 hc        1 PN3      0.096700
     28 H7A        -4.3550   -0.9560   -0.3640 hc        1 PN3      0.096700
     29 H9         -4.0790   -3.0980   -1.6350 ha        1 PN3      0.136000
     30 H10        -4.8650   -5.4570   -1.7410 ha        1 PN3      0.168500
     31 H11        -5.6810   -6.6010    0.3260 ha        1 PN3      0.173000
     32 H12        -5.7040   -5.3770    2.5040 ha        1 PN3      0.168500
     33 H13        -4.9440   -3.0130    2.6150 ha        1 PN3      0.136000
     34 HN14       -2.5380   -2.9740    1.9150 hn        1 PN3      0.489800
     35 H19         0.0480   -5.5770   -0.1710 hc        1 PN3      0.081589
     36 H19A        1.8390   -5.7780    0.0220 hc        1 PN3      0.081589
     37 H19B        1.1610   -4.1500   -0.3970 hc        1 PN3      0.081589
     38 H20         2.9780   -4.6270    2.1410 hc        1 PN3      0.081589
     39 H20A        1.8970   -3.7050    3.2680 hc        1 PN3      0.081589
     40 H20B        2.2310   -3.0690    1.5910 hc        1 PN3      0.081589
     41 H21         0.4260   -5.7260    3.5780 hc        1 PN3      0.081589
     42 H21A        1.4350   -6.7100    2.4280 hc        1 PN3      0.081589
     43 H21B       -0.3490   -6.5130    2.1330 hc        1 PN3      0.081589
     44 H31        -0.1490   -0.1100    0.2280 hn        1 PN3      0.499800
     45 H142       -1.7590   -1.6440    2.5760 hn        1 PN3      0.489800
@<TRIPOS>BOND
     1    1    2 2   
     2    1    3 1   
     3    1   22 1   
     4    3    4 1   
     5    3    5 1   
     6    3   44 1   
     7    4   23 1   
     8    5    6 1   
     9    5   24 1   
    10    5   25 1   
    11    6    7 1   
    12    6   14 1   
    13    6   26 1   
    14    7    8 1   
    15    7   27 1   
    16    7   28 1   
    17    8    9 ar  
    18    8   13 ar  
    19    9   10 ar  
    20    9   29 1   
    21   10   11 ar  
    22   10   30 1   
    23   11   12 ar  
    24   11   31 1   
    25   12   13 ar  
    26   12   32 1   
    27   13   33 1   
    28   14   15 1   
    29   14   34 1   
    30   14   45 1   
    31   15   16 2   
    32   15   17 1   
    33   17   18 1   
    34   18   19 1   
    35   18   20 1   
    36   18   21 1   
    37   19   35 1   
    38   19   36 1   
    39   19   37 1   
    40   20   38 1   
    41   20   39 1   
    42   20   40 1   
    43   21   41 1   
    44   21   42 1   
    45   21   43 1   
@<TRIPOS>SUBSTRUCTURE
     1 PN3         1 TEMP              0 ****  ****    0 ROOT
