@<TRIPOS>MOLECULE
PN3
   43    43     1     0     0
SMALL
bcc


@<TRIPOS>ATOM
      1 C1         -2.1400    2.8720    0.2780 c         1 PN3      0.617900
      2 O2         -3.3480    2.6150    0.2380 o         1 PN3     -0.555100
      3 N3         -1.4210    3.2480   -0.8930 n         1 PN3     -0.289300
      4 O4         -1.9630    2.8320   -2.0480 oh        1 PN3     -0.438100
      5 C5          0.0180    3.0130   -0.8950 c3        1 PN3      0.049000
      6 C6          0.5350    1.6310   -0.3970 c3        1 PN3      0.083700
      7 C7          1.9900    1.5080   -0.8950 c3        1 PN3     -0.058100
      8 C8          2.7200    0.3680   -0.2830 ca        1 PN3     -0.089300
      9 C9          3.0430    0.3840    1.0800 ca        1 PN3     -0.119500
     10 C10         3.7500   -0.6730    1.6480 ca        1 PN3     -0.125500
     11 C11         4.1440   -1.7550    0.8610 ca        1 PN3     -0.126000
     12 C12         3.8280   -1.7770   -0.4970 ca        1 PN3     -0.125500
     13 C13         3.1190   -0.7200   -1.0680 ca        1 PN3     -0.119500
     14 N14        -0.3240    0.5520   -0.8090 n         1 PN3     -0.544900
     15 C15        -0.7560   -0.3950    0.1010 c         1 PN3      0.755100
     16 O16        -0.7240   -0.3000    1.3400 o         1 PN3     -0.600000
     17 O17        -1.2900   -1.4920   -0.5270 os        1 PN3     -0.444900
     18 C18        -2.0040   -2.4820    0.2620 c3        1 PN3      0.186800
     19 C19        -1.0530   -3.1900    1.2130 c3        1 PN3     -0.114433
     20 C20        -3.1690   -1.8470    1.0010 c3        1 PN3     -0.114433
     21 C21        -2.5130   -3.4530   -0.8030 c3        1 PN3     -0.114433
     22 H1         -1.5500    2.9540    1.2170 h5        1 PN3      0.046200
     23 HO4        -2.7880    3.3460   -2.1470 ho        1 PN3      0.431000
     24 H5          0.3810    3.1820   -1.9480 h1        1 PN3      0.072700
     25 H5A         0.4620    3.8000   -0.2240 h1        1 PN3      0.072700
     26 H6          0.5490    1.6430    0.7370 h1        1 PN3      0.089700
     27 H7          1.9980    1.4180   -2.0140 hc        1 PN3      0.056200
     28 H7A         2.5190    2.4640   -0.6310 hc        1 PN3      0.056200
     29 H9          2.7300    1.2340    1.7050 ha        1 PN3      0.130500
     30 H10         3.9940   -0.6550    2.7200 ha        1 PN3      0.133000
     31 H11         4.7020   -2.5900    1.3100 ha        1 PN3      0.132000
     32 H12         4.1360   -2.6280   -1.1210 ha        1 PN3      0.133000
     33 H13         2.8730   -0.7440   -2.1400 ha        1 PN3      0.130500
     34 HN14       -0.3730    0.3350   -1.7770 hn        1 PN3      0.329500
     35 H19        -0.7050   -2.4890    2.0100 hc        1 PN3      0.052367
     36 H19A       -1.5790   -4.0510    1.6890 hc        1 PN3      0.052367
     37 H19B       -0.1640   -3.5680    0.6550 hc        1 PN3      0.052367
     38 H20        -3.7840   -1.2370    0.2970 hc        1 PN3      0.052367
     39 H20A       -3.8080   -2.6480    1.4420 hc        1 PN3      0.052367
     40 H20B       -2.7980   -1.1860    1.8210 hc        1 PN3      0.052367
     41 H21        -1.6560   -3.8800   -1.3760 hc        1 PN3      0.052367
     42 H21A       -3.0710   -4.2790   -0.3030 hc        1 PN3      0.052367
     43 H21B       -3.1910   -2.9240   -1.5130 hc        1 PN3      0.052367
@<TRIPOS>BOND
     1    1    2 2   
     2    1    3 1   
     3    1   22 1   
     4    3    4 1   
     5    3    5 1   
     6    4   23 1   
     7    5    6 1   
     8    5   24 1   
     9    5   25 1   
    10    6    7 1   
    11    6   14 1   
    12    6   26 1   
    13    7    8 1   
    14    7   27 1   
    15    7   28 1   
    16    8    9 ar  
    17    8   13 ar  
    18    9   10 ar  
    19    9   29 1   
    20   10   11 ar  
    21   10   30 1   
    22   11   12 ar  
    23   11   31 1   
    24   12   13 ar  
    25   12   32 1   
    26   13   33 1   
    27   14   15 1   
    28   14   34 1   
    29   15   16 2   
    30   15   17 1   
    31   17   18 1   
    32   18   19 1   
    33   18   20 1   
    34   18   21 1   
    35   19   35 1   
    36   19   36 1   
    37   19   37 1   
    38   20   38 1   
    39   20   39 1   
    40   20   40 1   
    41   21   41 1   
    42   21   42 1   
    43   21   43 1   
@<TRIPOS>SUBSTRUCTURE
     1 PN3         1 TEMP              0 ****  ****    0 ROOT
