@<TRIPOS>MOLECULE
PN3
   45    45     1     0     0
SMALL
bcc


@<TRIPOS>ATOM
      1 C1         -0.4660    1.9910    0.3900 c         1 PN3      0.556900
      2 O2          0.0780    2.7120    1.1890 o         1 PN3     -0.324100
      3 N3         -0.7020    0.5210    0.8400 n4        1 PN3     -0.425700
      4 O4         -0.3190    0.2710    2.1180 oh        1 PN3     -0.408300
      5 C5         -2.1620    0.1640    0.7510 c3        1 PN3      0.099800
      6 C6         -2.4640   -1.3420    0.6140 c3        1 PN3      0.114500
      7 C7         -4.0040   -1.4880    0.5540 c3        1 PN3     -0.041100
      8 C8         -4.4130   -2.9140    0.5030 ca        1 PN3     -0.190300
      9 C9         -4.4080   -3.6070   -0.7140 ca        1 PN3     -0.128000
     10 C10        -4.8570   -4.9260   -0.7690 ca        1 PN3     -0.106500
     11 C11        -5.3170   -5.5590    0.3870 ca        1 PN3     -0.079000
     12 C12        -5.3280   -4.8700    1.6020 ca        1 PN3     -0.106500
     13 C13        -4.8800   -3.5520    1.6620 ca        1 PN3     -0.128000
     14 N14        -1.8820   -2.1860    1.7120 n4        1 PN3     -0.667800
     15 C15        -0.5380   -2.7840    1.3380 c         1 PN3      0.666100
     16 O16         0.2150   -2.1540    0.5970 o         1 PN3     -0.523000
     17 O17        -0.3880   -3.9570    1.9130 os        1 PN3     -0.406900
     18 C18         0.8820   -4.7810    1.6810 c3        1 PN3      0.223800
     19 C19         0.9750   -5.0880    0.2070 c3        1 PN3     -0.136767
     20 C20         2.0530   -3.9910    2.2100 c3        1 PN3     -0.136767
     21 C21         0.5610   -6.0000    2.5220 c3        1 PN3     -0.136767
     22 H1         -0.8300    2.1640   -0.6480 hx        1 PN3      0.171200
     23 HO4         0.3480    0.9450    2.4080 ho        1 PN3      0.506000
     24 H5         -2.5800    0.6670   -0.1710 hx        1 PN3      0.141700
     25 H5A        -2.6740    0.5880    1.6660 hx        1 PN3      0.141700
     26 H6         -2.0350   -1.7350   -0.3600 hx        1 PN3      0.134700
     27 H7         -4.4720   -0.9750    1.4370 hc        1 PN3      0.096700
     28 H7A        -4.3520   -0.9570   -0.3750 hc        1 PN3      0.096700
     29 H9         -4.0770   -3.1060   -1.6360 ha        1 PN3      0.136000
     30 H10        -4.8670   -5.4630   -1.7330 ha        1 PN3      0.168500
     31 H11        -5.6890   -6.5970    0.3390 ha        1 PN3      0.173000
     32 H12        -5.7120   -5.3620    2.5110 ha        1 PN3      0.168500
     33 H13        -4.9480   -3.0000    2.6130 ha        1 PN3      0.136000
     34 HN14       -2.5420   -2.9680    1.9150 hn        1 PN3      0.489800
     35 H19         0.0430   -5.5830   -0.1570 hc        1 PN3      0.081589
     36 H19A        1.8340   -5.7880    0.0390 hc        1 PN3      0.081589
     37 H19B        1.1590   -4.1600   -0.3870 hc        1 PN3      0.081589
     38 H20         2.9710   -4.6300    2.1560 hc        1 PN3      0.081589
     39 H20A        1.8910   -3.7020    3.2770 hc        1 PN3      0.081589
     40 H20B        2.2280   -3.0730    1.5980 hc        1 PN3      0.081589
     41 H21         0.4150   -5.7200    3.5930 hc        1 PN3      0.081589
     42 H21A        1.4240   -6.7100    2.4480 hc        1 PN3      0.081589
     43 H21B       -0.3590   -6.5110    2.1500 hc        1 PN3      0.081589
     44 H31        -0.1450   -0.1150    0.2180 hn        1 PN3      0.499800
     45 H142       -1.7600   -1.6360    2.5710 hn        1 PN3      0.489800
@<TRIPOS>BOND
     1    1    2 2   
     2    1    3 1   
     3    1   22 1   
     4    3    4 1   
     5    3    5 1   
     6    3   44 1   
     7    4   23 1   
     8    5    6 1   
     9    5   24 1   
    10    5   25 1   
    11    6    7 1   
    12    6   14 1   
    13    6   26 1   
    14    7    8 1   
    15    7   27 1   
    16    7   28 1   
    17    8    9 ar  
    18    8   13 ar  
    19    9   10 ar  
    20    9   29 1   
    21   10   11 ar  
    22   10   30 1   
    23   11   12 ar  
    24   11   31 1   
    25   12   13 ar  
    26   12   32 1   
    27   13   33 1   
    28   14   15 1   
    29   14   34 1   
    30   14   45 1   
    31   15   16 2   
    32   15   17 1   
    33   17   18 1   
    34   18   19 1   
    35   18   20 1   
    36   18   21 1   
    37   19   35 1   
    38   19   36 1   
    39   19   37 1   
    40   20   38 1   
    41   20   39 1   
    42   20   40 1   
    43   21   41 1   
    44   21   42 1   
    45   21   43 1   
@<TRIPOS>SUBSTRUCTURE
     1 PN3         1 TEMP              0 ****  ****    0 ROOT
