@<TRIPOS>MOLECULE
PN4
   48    47     1     0     0
SMALL
bcc


@<TRIPOS>ATOM
      1 CAU         2.2870   -0.6680    0.5530 c         1 PN4      0.625100
      2 OAE         1.6540   -0.1960    1.5210 o         1 PN4     -0.622100
      3 CAV         3.8090   -0.4690    0.4740 c3        1 PN4      0.082100
      4 OAG         4.3380   -0.4800    1.7840 oh        1 PN4     -0.581800
      5 CAW         4.1760    0.8260   -0.2830 c3        1 PN4     -0.076000
      6 CAC         5.6910    0.8790   -0.4250 c3        1 PN4     -0.089600
      7 CAB         3.5370    0.8320   -1.6600 c3        1 PN4     -0.089600
      8 CAP         3.7010    2.0430    0.5220 c3        1 PN4      0.125400
      9 OAS         3.8930    3.2000   -0.2770 oh        1 PN4     -0.599800
     10 NAR         1.6770   -1.4310   -0.4190 n         1 PN4     -0.549900
     11 CAN         0.2520   -1.6080   -0.4630 c3        1 PN4      0.089000
     12 CAO        -0.4910   -0.5520   -1.2860 c3        1 PN4     -0.188400
     13 CAT        -1.9750   -0.8680   -1.3340 c         1 PN4      0.657100
     14 OAD        -2.5100   -1.2580   -2.3910 o         1 PN4     -0.606100
     15 CAA        -8.6290    1.0930    0.6480 c3        1 PN4     -0.093100
     16 CAJ        -7.1520    1.3740    0.5500 c3        1 PN4     -0.079400
     17 CAK        -6.3650    0.1100    0.2770 c3        1 PN4     -0.077400
     18 CAL        -4.8830    0.3990    0.1790 c3        1 PN4     -0.104400
     19 CAM        -4.1160   -0.8960   -0.0980 c3        1 PN4      0.084000
     20 NAQ        -2.6890   -0.7400   -0.1600 n         1 PN4     -0.566900
     21 HAV         4.3100   -1.3430   -0.0330 h1        1 PN4      0.091700
     22 HOAG        3.7860    0.0960    2.3330 ho        1 PN4      0.423000
     23 HAC         6.0440    0.0850   -1.1250 hc        1 PN4      0.045367
     24 HACA        5.9940    1.8770   -0.8260 hc        1 PN4      0.045367
     25 HACB        6.1740    0.7230    0.5700 hc        1 PN4      0.045367
     26 HAB         2.4290    0.9480   -1.5830 hc        1 PN4      0.045367
     27 HABA        3.9330    1.6980   -2.2470 hc        1 PN4      0.045367
     28 HABB        3.7730   -0.1120   -2.2070 hc        1 PN4      0.045367
     29 HAP         2.6130    1.9330    0.7810 h1        1 PN4      0.035700
     30 HAPA        4.3010    2.1270    1.4690 h1        1 PN4      0.035700
     31 HOAS        3.6400    3.9520    0.2720 ho        1 PN4      0.404000
     32 HNAR        2.1840   -1.6230   -1.2520 hn        1 PN4      0.312500
     33 HAN         0.0440   -2.6240   -0.9060 h1        1 PN4      0.072700
     34 HANA       -0.1360   -1.5950    0.5970 h1        1 PN4      0.072700
     35 HAO        -0.3270    0.4680   -0.8500 hc        1 PN4      0.074200
     36 HAOA       -0.1140   -0.5400   -2.3430 hc        1 PN4      0.074200
     37 HAA        -9.1910    2.0370    0.8490 hc        1 PN4      0.033700
     38 HAAA       -9.0110    0.6510   -0.3050 hc        1 PN4      0.033700
     39 HAAB       -8.8400    0.3730    1.4760 hc        1 PN4      0.033700
     40 HAJ        -6.9630    2.1160   -0.2700 hc        1 PN4      0.039200
     41 HAJA       -6.7930    1.8390    1.5060 hc        1 PN4      0.039200
     42 HAK        -6.5530   -0.6340    1.0960 hc        1 PN4      0.043200
     43 HAKA       -6.7210   -0.3550   -0.6810 hc        1 PN4      0.043200
     44 HAL        -4.6960    1.1390   -0.6420 hc        1 PN4      0.044700
     45 HALA       -4.5260    0.8630    1.1360 hc        1 PN4      0.044700
     46 HAM        -4.3470   -1.6340    0.7250 h1        1 PN4      0.062700
     47 HAMA       -4.4760   -1.3350   -1.0730 h1        1 PN4      0.062700
     48 HNAQ       -2.2460   -0.3180    0.6210 hn        1 PN4      0.310500
@<TRIPOS>BOND
     1    1    2 2   
     2    1    3 1   
     3    1   10 1   
     4    3    4 1   
     5    3    5 1   
     6    3   21 1   
     7    4   22 1   
     8    5    6 1   
     9    5    7 1   
    10    5    8 1   
    11    6   23 1   
    12    6   24 1   
    13    6   25 1   
    14    7   26 1   
    15    7   27 1   
    16    7   28 1   
    17    8    9 1   
    18    8   29 1   
    19    8   30 1   
    20    9   31 1   
    21   10   11 1   
    22   10   32 1   
    23   11   12 1   
    24   11   33 1   
    25   11   34 1   
    26   12   13 1   
    27   12   35 1   
    28   12   36 1   
    29   13   14 2   
    30   13   20 1   
    31   15   16 1   
    32   15   37 1   
    33   15   38 1   
    34   15   39 1   
    35   16   17 1   
    36   16   40 1   
    37   16   41 1   
    38   17   18 1   
    39   17   42 1   
    40   17   43 1   
    41   18   19 1   
    42   18   44 1   
    43   18   45 1   
    44   19   20 1   
    45   19   46 1   
    46   19   47 1   
    47   20   48 1   
@<TRIPOS>SUBSTRUCTURE
     1 PN4         1 TEMP              0 ****  ****    0 ROOT
