@<TRIPOS>MOLECULE
PN5
   56    55     1     0     0
SMALL
bcc


@<TRIPOS>ATOM
      1 CP2         0.1310    0.4960    0.1130 c3        1 PN5     -0.070300
      2 CP3         1.5910    0.4420    0.5300 c3        1 PN5      0.114800
      3 NP4         1.9670   -0.8610    1.1920 n4        1 PN5     -0.678800
      4 CP5         3.4130   -0.8750    1.6010 c         1 PN5      0.536100
      5 OP5         4.2100   -1.2970    0.7770 o         1 PN5     -0.371100
      6 CP6         3.7350   -0.3720    2.9840 c3        1 PN5     -0.178400
      7 CP7         5.2510   -0.4430    3.1880 c3        1 PN5      0.098800
      8 NP8         5.6920   -0.0370    4.5430 n4        1 PN5     -0.685800
      9 CP9         7.2100   -0.1710    4.7570 c         1 PN5      0.563100
     10 OP9         7.8690   -0.4390    3.7730 o         1 PN5     -0.381100
     11 CPA         7.6870    0.0660    6.1880 c3        1 PN5      0.099100
     12 OPA         6.5850   -0.2030    7.0380 oh        1 PN5     -0.644800
     13 CPB         8.2250    1.5100    6.3320 c3        1 PN5     -0.079000
     14 CPE         9.5020    1.6550    5.5210 c3        1 PN5     -0.111100
     15 CPD         7.1890    2.5240    5.8850 c3        1 PN5     -0.111100
     16 CPC         8.5360    1.7200    7.8250 c3        1 PN5      0.140400
     17 OA6         9.1720    2.9920    7.9430 os        1 PN5     -0.452900
     18 CT1         9.5450    3.3630    9.2260 c         1 PN5      0.643100
     19 OT1         9.2560    2.5720   10.1210 o         1 PN5     -0.517000
     20 CT2        10.2490    4.7010    9.2810 c3        1 PN5     -0.079000
     21 CT5         9.2960    5.7800    8.7870 c3        1 PN5     -0.093433
     22 CT3        10.6500    4.9780   10.7230 c3        1 PN5     -0.093433
     23 CT4        11.4870    4.6480    8.3960 c3        1 PN5     -0.093433
     24 SP1        -0.1990    2.1680   -0.3040 sh        1 PN5     -0.241900
     25 HP21       -0.5500    0.2360    0.9650 h1        1 PN5      0.109200
     26 HP22       -0.0830   -0.2140   -0.7240 h1        1 PN5      0.109200
     27 HP31        1.8070    1.2710    1.2670 hx        1 PN5      0.117200
     28 HP32        2.2620    0.5650   -0.3710 hx        1 PN5      0.117200
     29 HP1        -0.1880    2.0930   -1.6300 hs        1 PN5      0.235800
     30 HP4         1.3620   -1.0150    2.0060 hn        1 PN5      0.472300
     31 HP61        3.3650    0.6870    3.0920 hc        1 PN5      0.118200
     32 HP62        3.1980   -1.0080    3.7430 hc        1 PN5      0.118200
     33 HP71        5.6130   -1.5010    3.0040 hx        1 PN5      0.138700
     34 HP72        5.7740    0.2190    2.4330 hx        1 PN5      0.138700
     35 HP8         5.4490    0.9450    4.7340 hn        1 PN5      0.474300
     36 HPA         8.5220   -0.6770    6.3700 h1        1 PN5      0.130700
     37 HA          6.9180   -0.2520    7.9500 ho        1 PN5      0.484000
     38 HPD1        7.0680    2.5090    4.7740 hc        1 PN5      0.060700
     39 HPD2        6.2070    2.3290    6.3800 hc        1 PN5      0.060700
     40 HPD3        7.5330    3.5500    6.1820 hc        1 PN5      0.060700
     41 HPE1       10.2760    0.9300    5.8720 hc        1 PN5      0.060700
     42 HPE2        9.3090    1.4840    4.4350 hc        1 PN5      0.060700
     43 HPE3        9.9090    2.6890    5.6590 hc        1 PN5      0.060700
     44 HPC1        7.5930    1.7280    8.4340 h1        1 PN5      0.060700
     45 HPC2        9.2290    0.9230    8.2050 h1        1 PN5      0.060700
     46 HT31       11.1670    5.9660   10.7820 hc        1 PN5      0.054700
     47 HT32        9.7490    4.9980   11.3810 hc        1 PN5      0.054700
     48 HT33       11.3410    4.1830   11.0950 hc        1 PN5      0.054700
     49 HT41       11.2020    4.4080    7.3430 hc        1 PN5      0.054700
     50 HT42       12.0010    5.6400    8.4150 hc        1 PN5      0.054700
     51 HT43       12.1990    3.8720    8.7650 hc        1 PN5      0.054700
     52 HT51        8.3970    5.8390    9.4470 hc        1 PN5      0.054700
     53 HT52        8.9680    5.5600    7.7430 hc        1 PN5      0.054700
     54 HT53        9.8150    6.7690    8.8030 hc        1 PN5      0.054700
     55 HP42        1.8020   -1.6250    0.5170 hn        1 PN5      0.472300
     56 HP82        5.2380   -0.6160    5.2660 hn        1 PN5      0.474300
@<TRIPOS>BOND
     1    1    2 1   
     2    1   24 1   
     3    1   25 1   
     4    1   26 1   
     5    2    3 1   
     6    2   27 1   
     7    2   28 1   
     8    3    4 1   
     9    3   30 1   
    10    3   55 1   
    11    4    5 2   
    12    4    6 1   
    13    6    7 1   
    14    6   31 1   
    15    6   32 1   
    16    7    8 1   
    17    7   33 1   
    18    7   34 1   
    19    8    9 1   
    20    8   35 1   
    21    8   56 1   
    22    9   10 2   
    23    9   11 1   
    24   11   12 1   
    25   11   13 1   
    26   11   36 1   
    27   12   37 1   
    28   13   14 1   
    29   13   15 1   
    30   13   16 1   
    31   14   41 1   
    32   14   42 1   
    33   14   43 1   
    34   15   38 1   
    35   15   39 1   
    36   15   40 1   
    37   16   17 1   
    38   16   44 1   
    39   16   45 1   
    40   17   18 1   
    41   18   19 2   
    42   18   20 1   
    43   20   21 1   
    44   20   22 1   
    45   20   23 1   
    46   21   52 1   
    47   21   53 1   
    48   21   54 1   
    49   22   46 1   
    50   22   47 1   
    51   22   48 1   
    52   23   49 1   
    53   23   50 1   
    54   23   51 1   
    55   24   29 1   
@<TRIPOS>SUBSTRUCTURE
     1 PN5         1 TEMP              0 ****  ****    0 ROOT
