@<TRIPOS>MOLECULE
PN5
   56    55     1     0     0
SMALL
bcc


@<TRIPOS>ATOM
      1 CP2        -0.1110   -0.8180    0.3300 c3        1 PN5     -0.070300
      2 CP3         1.3720   -0.7060    0.6410 c3        1 PN5      0.114800
      3 NP4         1.8240    0.7190    0.8480 ny        1 PN5     -0.678800
      4 CP5         3.2910    0.7920    1.1610 c         1 PN5      0.536100
      5 OP5         4.0480    0.9080    0.2090 o         1 PN5     -0.371100
      6 CP6         3.6830    0.7220    2.6140 c3        1 PN5     -0.178400
      7 CP7         5.2120    0.7340    2.7080 c3        1 PN5      0.098800
      8 NP8         5.7250    0.7070    4.0970 ny        1 PN5     -0.685800
      9 CP9         7.2590    0.6270    4.1810 c         1 PN5      0.563100
     10 OP9         7.8600    0.7080    3.1300 o         1 PN5     -0.380100
     11 CPA         7.8230    0.4660    5.5920 c3        1 PN5      0.099100
     12 OPA         6.8010   -0.1220    6.3780 oh        1 PN5     -0.644800
     13 CPB         8.2910    1.8380    6.1330 c3        1 PN5     -0.079000
     14 CPE         9.4930    2.3120    5.3330 c3        1 PN5     -0.111100
     15 CPD         7.1700    2.8580    6.0700 c3        1 PN5     -0.111100
     16 CPC         8.7030    1.6180    7.6010 c3        1 PN5      0.140400
     17 OA6         9.2740    2.8420    8.0600 os        1 PN5     -0.452900
     18 CT1         9.7230    2.8430    9.3730 c         1 PN5      0.643100
     19 OT1         9.5450    1.8030   10.0020 o         1 PN5     -0.517000
     20 CT2        10.3550    4.1530    9.7870 c3        1 PN5     -0.079000
     21 CT5         9.3100    5.2560    9.6950 c3        1 PN5     -0.093433
     22 CT3        10.8480    4.0190   11.2220 c3        1 PN5     -0.093433
     23 CT4        11.5240    4.4570    8.8600 c3        1 PN5     -0.093433
     24 SP1        -0.5130   -2.5210    0.4690 sh        1 PN5     -0.240900
     25 HP21       -0.3540   -0.3910   -0.6730 h1        1 PN5      0.109200
     26 HP22       -0.7320   -0.2770    1.0910 h1        1 PN5      0.109200
     27 HP31        1.9840   -1.1290   -0.2090 hx        1 PN5      0.117200
     28 HP32        1.6070   -1.2770    1.5860 hx        1 PN5      0.117200
     29 HP1        -0.5760   -2.8590   -0.8140 hs        1 PN5      0.234800
     30 HP4         1.6390    1.2460   -0.0210 hn        1 PN5      0.472300
     31 HP61        3.2410    1.6040    3.1570 hc        1 PN5      0.118700
     32 HP62        3.2610   -0.2170    3.0720 hc        1 PN5      0.118700
     33 HP71        5.6360   -0.1610    2.1600 hx        1 PN5      0.138700
     34 HP72        5.6230    1.6580    2.1980 hx        1 PN5      0.138700
     35 HP8         5.4420    1.5510    4.6150 hn        1 PN5      0.474300
     36 HPA         8.7090   -0.2350    5.4990 h1        1 PN5      0.130700
     37 HA          7.1990   -0.4090    7.2160 ho        1 PN5      0.484000
     38 HPD1        6.9650    3.1640    5.0160 hc        1 PN5      0.060533
     39 HPD2        6.2410    2.4530    6.5390 hc        1 PN5      0.060533
     40 HPD3        7.4790    3.7730    6.6420 hc        1 PN5      0.060533
     41 HPE1       10.3300    1.5760    5.4050 hc        1 PN5      0.060533
     42 HPE2        9.2280    2.4590    4.2590 hc        1 PN5      0.060533
     43 HPE3        9.8520    3.2860    5.7550 hc        1 PN5      0.060533
     44 HPC1        7.8090    1.3750    8.2350 h1        1 PN5      0.060700
     45 HPC2        9.4640    0.7990    7.6840 h1        1 PN5      0.060700
     46 HT31       11.3130    4.9810   11.5460 hc        1 PN5      0.054811
     47 HT32        9.9990    3.7760   11.9040 hc        1 PN5      0.054811
     48 HT33       11.6080    3.2040   11.2980 hc        1 PN5      0.054811
     49 HT41       11.1730    4.5200    7.8020 hc        1 PN5      0.054811
     50 HT42       11.9820    5.4340    9.1480 hc        1 PN5      0.054811
     51 HT43       12.3030    3.6620    8.9390 hc        1 PN5      0.054811
     52 HT51        8.4610    5.0500   10.3910 hc        1 PN5      0.054811
     53 HT52        8.9170    5.3310    8.6530 hc        1 PN5      0.054811
     54 HT53        9.7730    6.2320    9.9780 hc        1 PN5      0.054811
     55 HP42        1.2740    1.1430    1.6040 hn        1 PN5      0.472300
     56 HP82        5.3580   -0.1090    4.6100 hn        1 PN5      0.474300
@<TRIPOS>BOND
     1    1    2 1   
     2    1   24 1   
     3    1   25 1   
     4    1   26 1   
     5    2    3 1   
     6    2   27 1   
     7    2   28 1   
     8    3    4 1   
     9    3   30 1   
    10    3   55 1   
    11    4    5 2   
    12    4    6 1   
    13    6    7 1   
    14    6   31 1   
    15    6   32 1   
    16    7    8 1   
    17    7   33 1   
    18    7   34 1   
    19    8    9 1   
    20    8   35 1   
    21    8   56 1   
    22    9   10 2   
    23    9   11 1   
    24   11   12 1   
    25   11   13 1   
    26   11   36 1   
    27   12   37 1   
    28   13   14 1   
    29   13   15 1   
    30   13   16 1   
    31   14   41 1   
    32   14   42 1   
    33   14   43 1   
    34   15   38 1   
    35   15   39 1   
    36   15   40 1   
    37   16   17 1   
    38   16   44 1   
    39   16   45 1   
    40   17   18 1   
    41   18   19 2   
    42   18   20 1   
    43   20   21 1   
    44   20   22 1   
    45   20   23 1   
    46   21   52 1   
    47   21   53 1   
    48   21   54 1   
    49   22   46 1   
    50   22   47 1   
    51   22   48 1   
    52   23   49 1   
    53   23   50 1   
    54   23   51 1   
    55   24   29 1   
@<TRIPOS>SUBSTRUCTURE
     1 PN5         1 TEMP              0 ****  ****    0 ROOT
