@<TRIPOS>MOLECULE
PN5
   56    55     1     0     0
SMALL
bcc


@<TRIPOS>ATOM
      1 CP2         0.1310    0.5170    0.1080 c3        1 PN5     -0.070300
      2 CP3         1.5910    0.4570    0.5270 c3        1 PN5      0.114800
      3 NP4         1.9580   -0.8460    1.1940 n4        1 PN5     -0.678800
      4 CP5         3.4040   -0.8670    1.6030 c         1 PN5      0.536100
      5 OP5         4.1990   -1.2950    0.7810 o         1 PN5     -0.371100
      6 CP6         3.7280   -0.3620    2.9860 c3        1 PN5     -0.178400
      7 CP7         5.2450   -0.4390    3.1890 c3        1 PN5      0.098800
      8 NP8         5.6860   -0.0340    4.5430 n4        1 PN5     -0.685800
      9 CP9         7.2040   -0.1720    4.7560 c         1 PN5      0.563100
     10 OP9         7.8620   -0.4400    3.7720 o         1 PN5     -0.381100
     11 CPA         7.6830    0.0630    6.1880 c3        1 PN5      0.099100
     12 OPA         6.5810   -0.2040    7.0390 oh        1 PN5     -0.644800
     13 CPB         8.2240    1.5060    6.3330 c3        1 PN5     -0.079000
     14 CPE         9.5000    1.6490    5.5210 c3        1 PN5     -0.111100
     15 CPD         7.1900    2.5220    5.8880 c3        1 PN5     -0.111100
     16 CPC         8.5370    1.7130    7.8260 c3        1 PN5      0.140400
     17 OA6         9.1750    2.9840    7.9440 os        1 PN5     -0.452900
     18 CT1         9.5520    3.3520    9.2280 c         1 PN5      0.643100
     19 OT1         9.2630    2.5610   10.1220 o         1 PN5     -0.517000
     20 CT2        10.2580    4.6890    9.2830 c3        1 PN5     -0.079000
     21 CT5         9.3050    5.7710    8.7960 c3        1 PN5     -0.093433
     22 CT3        10.6650    4.9620   10.7250 c3        1 PN5     -0.093433
     23 CT4        11.4930    4.6370    8.3940 c3        1 PN5     -0.093433
     24 SP1        -0.1890    2.1900   -0.3150 sh        1 PN5     -0.241900
     25 HP21       -0.0870   -0.1950   -0.7250 h1        1 PN5      0.109200
     26 HP22       -0.5520    0.2640    0.9610 h1        1 PN5      0.109200
     27 HP31        1.8100    1.2870    1.2600 hx        1 PN5      0.117200
     28 HP32        2.2620    0.5720   -0.3740 hx        1 PN5      0.117200
     29 HP1        -0.1780    2.1090   -1.6400 hs        1 PN5      0.235800
     30 HP4         1.3520   -0.9930    2.0080 hn        1 PN5      0.472300
     31 HP61        3.1900   -0.9960    3.7460 hc        1 PN5      0.118200
     32 HP62        3.3620    0.6980    3.0920 hc        1 PN5      0.118200
     33 HP71        5.7690    0.2210    2.4340 hx        1 PN5      0.138700
     34 HP72        5.6030   -1.4980    3.0060 hx        1 PN5      0.138700
     35 HP8         5.4460    0.9490    4.7350 hn        1 PN5      0.474800
     36 HPA         8.5170   -0.6820    6.3680 h1        1 PN5      0.130700
     37 HA          6.9140   -0.2550    7.9500 ho        1 PN5      0.484000
     38 HPD1        7.0670    2.5090    4.7770 hc        1 PN5      0.060700
     39 HPD2        7.5360    3.5470    6.1860 hc        1 PN5      0.060700
     40 HPD3        6.2080    2.3290    6.3840 hc        1 PN5      0.060700
     41 HPE1       10.2740    0.9220    5.8700 hc        1 PN5      0.060700
     42 HPE2        9.9090    2.6820    5.6600 hc        1 PN5      0.060700
     43 HPE3        9.3060    1.4800    4.4340 hc        1 PN5      0.060700
     44 HPC1        9.2290    0.9150    8.2040 h1        1 PN5      0.060700
     45 HPC2        7.5940    1.7220    8.4360 h1        1 PN5      0.060700
     46 HT31        9.7650    4.9810   11.3860 hc        1 PN5      0.054700
     47 HT32       11.1830    5.9490   10.7840 hc        1 PN5      0.054700
     48 HT33       11.3570    4.1650   11.0910 hc        1 PN5      0.054700
     49 HT41       12.0080    5.6280    8.4140 hc        1 PN5      0.054700
     50 HT42       12.2050    3.8580    8.7580 hc        1 PN5      0.054700
     51 HT43       11.2040    4.4000    7.3410 hc        1 PN5      0.054700
     52 HT51        9.8250    6.7590    8.8120 hc        1 PN5      0.054700
     53 HT52        8.4080    5.8300    9.4590 hc        1 PN5      0.054700
     54 HT53        8.9730    5.5530    7.7520 hc        1 PN5      0.054700
     55 HP42        1.7890   -1.6120    0.5210 hn        1 PN5      0.472300
     56 HP82        5.2320   -0.6110    5.2670 hn        1 PN5      0.474800
@<TRIPOS>BOND
     1    1    2 1   
     2    1   24 1   
     3    1   25 1   
     4    1   26 1   
     5    2    3 1   
     6    2   27 1   
     7    2   28 1   
     8    3    4 1   
     9    3   30 1   
    10    3   55 1   
    11    4    5 2   
    12    4    6 1   
    13    6    7 1   
    14    6   31 1   
    15    6   32 1   
    16    7    8 1   
    17    7   33 1   
    18    7   34 1   
    19    8    9 1   
    20    8   35 1   
    21    8   56 1   
    22    9   10 2   
    23    9   11 1   
    24   11   12 1   
    25   11   13 1   
    26   11   36 1   
    27   12   37 1   
    28   13   14 1   
    29   13   15 1   
    30   13   16 1   
    31   14   41 1   
    32   14   42 1   
    33   14   43 1   
    34   15   38 1   
    35   15   39 1   
    36   15   40 1   
    37   16   17 1   
    38   16   44 1   
    39   16   45 1   
    40   17   18 1   
    41   18   19 2   
    42   18   20 1   
    43   20   21 1   
    44   20   22 1   
    45   20   23 1   
    46   21   52 1   
    47   21   53 1   
    48   21   54 1   
    49   22   46 1   
    50   22   47 1   
    51   22   48 1   
    52   23   49 1   
    53   23   50 1   
    54   23   51 1   
    55   24   29 1   
@<TRIPOS>SUBSTRUCTURE
     1 PN5         1 TEMP              0 ****  ****    0 ROOT
