@<TRIPOS>MOLECULE
PN5
   54    53     1     0     0
SMALL
bcc


@<TRIPOS>ATOM
      1 CP2         7.0050   -1.5650   -0.5380 c3        1 PN5     -0.032300
      2 CP3         6.5330   -0.1140   -0.5410 c3        1 PN5      0.087000
      3 NP4         5.1490    0.0680   -0.2030 n         1 PN5     -0.568900
      4 CP5         4.7350    0.3930    1.0750 c         1 PN5      0.657100
      5 OP5         5.5550    0.6540    1.9780 o         1 PN5     -0.606100
      6 CP6         3.2410    0.4520    1.3320 c3        1 PN5     -0.186400
      7 CP7         2.6170    1.6340    0.5850 c3        1 PN5      0.097000
      8 NP8         1.2080    1.7950    0.8030 n         1 PN5     -0.562900
      9 CP9         0.2640    1.1530    0.0260 c         1 PN5      0.628100
     10 OP9         0.6100    0.4790   -0.9650 o         1 PN5     -0.611100
     11 CPA        -1.2110    1.3990    0.3950 c3        1 PN5      0.076100
     12 OPA        -1.3530    1.5580    1.7960 oh        1 PN5     -0.594800
     13 CPB        -2.1810    0.3410   -0.1710 c3        1 PN5     -0.063000
     14 CPE        -2.2580    0.4670   -1.6840 c3        1 PN5     -0.096600
     15 CPD        -1.7600   -1.0660    0.2130 c3        1 PN5     -0.096600
     16 CPC        -3.5660    0.6490    0.4260 c3        1 PN5      0.140400
     17 OA6        -4.4770   -0.3250   -0.1080 os        1 PN5     -0.440900
     18 CT1        -5.7890   -0.2020    0.2640 c         1 PN5      0.634100
     19 OT1        -6.0930    0.7140    1.0280 o         1 PN5     -0.537000
     20 CT2        -6.6810   -1.2600   -0.3550 c3        1 PN5     -0.087000
     21 CT5        -6.1840   -2.6350    0.0660 c3        1 PN5     -0.089433
     22 CT3        -8.1070   -1.0480    0.1330 c3        1 PN5     -0.089433
     23 CT4        -6.6230   -1.1250   -1.8710 c3        1 PN5     -0.089433
     24 SP1         8.6830   -1.6980   -1.0600 sh        1 PN5     -0.360900
     25 HP21        6.8660   -2.0170    0.4730 h1        1 PN5      0.079200
     26 HP22        6.4260   -2.1750   -1.2750 h1        1 PN5      0.079200
     27 HP31        7.1580    0.4740    0.1930 h1        1 PN5      0.071200
     28 HP32        6.6990    0.3160   -1.5720 h1        1 PN5      0.071200
     29 HP1         9.2790   -1.0900   -0.0490 hs        1 PN5      0.204800
     30 HP4         4.4740   -0.2500   -0.8570 hn        1 PN5      0.314500
     31 HP61        2.7590   -0.5090    1.0130 hc        1 PN5      0.075700
     32 HP62        3.0940    0.5640    2.4380 hc        1 PN5      0.075700
     33 HP71        3.1300    2.5820    0.9150 h1        1 PN5      0.069200
     34 HP72        2.7880    1.5010   -0.5230 h1        1 PN5      0.069200
     35 HP8         0.9130    2.2200    1.6520 hn        1 PN5      0.325500
     36 HPA        -1.4880    2.4120   -0.0250 h1        1 PN5      0.101700
     37 HA         -1.3050    0.6820    2.1990 ho        1 PN5      0.410000
     38 HPD1       -0.7690   -1.3110   -0.2400 hc        1 PN5      0.050033
     39 HPD2       -1.6920   -1.1730    1.3230 hc        1 PN5      0.050033
     40 HPD3       -2.5190   -1.7960   -0.1620 hc        1 PN5      0.050033
     41 HPE1       -3.0390   -0.2310   -2.0750 hc        1 PN5      0.050033
     42 HPE2       -2.5350    1.5090   -1.9750 hc        1 PN5      0.050033
     43 HPE3       -1.2760    0.2090   -2.1500 hc        1 PN5      0.050033
     44 HPC1       -3.5600    0.5620    1.5440 h1        1 PN5      0.058700
     45 HPC2       -3.9110    1.6740    0.1340 h1        1 PN5      0.058700
     46 HT31       -8.4680   -0.0330   -0.1570 hc        1 PN5      0.048144
     47 HT32       -8.7760   -1.8180   -0.3200 hc        1 PN5      0.048144
     48 HT33       -8.1510   -1.1330    1.2450 hc        1 PN5      0.048144
     49 HT41       -5.5690   -1.2290   -2.2250 hc        1 PN5      0.048144
     50 HT42       -7.2460   -1.9230   -2.3430 hc        1 PN5      0.048144
     51 HT43       -7.0140   -0.1300   -2.1880 hc        1 PN5      0.048144
     52 HT51       -6.2430   -2.7480    1.1740 hc        1 PN5      0.048144
     53 HT52       -6.8140   -3.4240   -0.4100 hc        1 PN5      0.048144
     54 HT53       -5.1220   -2.7740   -0.2550 hc        1 PN5      0.048144
@<TRIPOS>BOND
     1    1    2 1   
     2    1   24 1   
     3    1   25 1   
     4    1   26 1   
     5    2    3 1   
     6    2   27 1   
     7    2   28 1   
     8    3    4 1   
     9    3   30 1   
    10    4    5 2   
    11    4    6 1   
    12    6    7 1   
    13    6   31 1   
    14    6   32 1   
    15    7    8 1   
    16    7   33 1   
    17    7   34 1   
    18    8    9 1   
    19    8   35 1   
    20    9   10 2   
    21    9   11 1   
    22   11   12 1   
    23   11   13 1   
    24   11   36 1   
    25   12   37 1   
    26   13   14 1   
    27   13   15 1   
    28   13   16 1   
    29   14   41 1   
    30   14   42 1   
    31   14   43 1   
    32   15   38 1   
    33   15   39 1   
    34   15   40 1   
    35   16   17 1   
    36   16   44 1   
    37   16   45 1   
    38   17   18 1   
    39   18   19 2   
    40   18   20 1   
    41   20   21 1   
    42   20   22 1   
    43   20   23 1   
    44   21   52 1   
    45   21   53 1   
    46   21   54 1   
    47   22   46 1   
    48   22   47 1   
    49   22   48 1   
    50   23   49 1   
    51   23   50 1   
    52   23   51 1   
    53   24   29 1   
@<TRIPOS>SUBSTRUCTURE
     1 PN5         1 TEMP              0 ****  ****    0 ROOT
