@<TRIPOS>MOLECULE
PN6
   45    45     1     0     0
SMALL
bcc


@<TRIPOS>ATOM
      1 C6          0.5110    0.2190   -0.3140 ce        1 PN6     -0.262600
      2 C2          1.9360    0.0250   -0.0390 ce        1 PN6      0.489600
      3 C4          0.8080   -2.9330    1.4460 c1        1 PN6      0.456800
      4 C23         2.7510   -0.6960    3.6940 c3        1 PN6     -0.095433
      5 C24         0.8690    0.6630    2.8240 c3        1 PN6     -0.095433
      6 C25         3.2080    1.2760    2.2690 c3        1 PN6     -0.095433
      7 C1          2.2550   -0.7930    1.2380 c3        1 PN6      0.207500
      8 N5          1.4570   -1.9500    1.3500 n1        1 PN6     -0.846300
      9 N3          2.8540    0.4960   -0.8090 n2        1 PN6     -0.788100
     10 C7         -0.0560    0.7080   -1.4510 cd        1 PN6      0.036400
     11 C8         -1.5670    0.7860   -1.4600 c         1 PN6      0.695700
     12 O20        -2.2470    0.4900   -0.4620 o         1 PN6     -0.606500
     13 N9         -2.2040    1.2060   -2.6170 ns        1 PN6     -0.466100
     14 N12         0.6240    1.1300   -2.5870 ns        1 PN6     -0.463100
     15 C11        -0.0160    1.5470   -3.7490 c         1 PN6      0.704700
     16 O21         0.6640    1.8910   -4.7310 o         1 PN6     -0.600500
     17 C10        -1.5170    1.5690   -3.7760 cc        1 PN6     -0.026600
     18 C13        -2.1330    1.9500   -4.9320 cf        1 PN6     -0.007700
     19 C14        -3.5160    2.0090   -5.0910 ch        1 PN6     -0.183300
     20 C15        -5.7980    1.8560   -2.3710 c2        1 PN6     -0.201000
     21 C16        -6.8140    1.4510   -3.1370 ce        1 PN6     -0.145000
     22 C17        -7.0310    1.8350   -4.5150 ce        1 PN6     -0.093000
     23 C18        -6.0920    2.1110   -5.4400 ce        1 PN6     -0.039700
     24 C19        -4.7090    2.0610   -5.2390 cg        1 PN6     -0.112300
     25 H1         -0.1770   -0.0690    0.5040 ha        1 PN6      0.181000
     26 H2          3.7970    0.3140   -0.5360 hn        1 PN6      0.399400
     27 H3          2.0240   -1.4970    3.9680 hc        1 PN6      0.043922
     28 H4          3.7360   -1.1670    3.4590 hc        1 PN6      0.043922
     29 H5          2.8810   -0.0280    4.5800 hc        1 PN6      0.043922
     30 H6          0.1260   -0.1620    2.9460 hc        1 PN6      0.043922
     31 H7          0.9080    1.2420    3.7790 hc        1 PN6      0.043922
     32 H8          0.5190    1.3480    2.0150 hc        1 PN6      0.043922
     33 H9          2.7990    1.9840    1.5090 hc        1 PN6      0.043922
     34 H10         4.2020    0.9030    1.9230 hc        1 PN6      0.043922
     35 H11         3.3550    1.8400    3.2220 hc        1 PN6      0.043922
     36 H12         3.3270   -1.1690    1.1420 h1        1 PN6      0.062700
     37 H14         1.6260    1.1240   -2.5870 hn        1 PN6      0.370500
     38 H15        -1.5080    2.2300   -5.8020 ha        1 PN6      0.184000
     39 H17        -5.0220    2.5440   -2.7340 ha        1 PN6      0.120500
     40 H18        -5.6930    1.5390   -1.3250 ha        1 PN6      0.120500
     41 H19        -7.5900    0.7810   -2.7230 ha        1 PN6      0.130000
     42 H20        -8.0950    1.8830   -4.8160 ha        1 PN6      0.132000
     43 H21        -6.3980    2.3910   -6.4670 ha        1 PN6      0.145000
     44 H13        -3.2040    1.2270   -2.6320 hn        1 PN6      0.349500
     45 C22         2.2490    0.1160    2.5060 c3        1 PN6     -0.054000
@<TRIPOS>BOND
     1    1    2 1   
     2    1   10 2   
     3    1   25 1   
     4    2    7 1   
     5    2    9 2   
     6    3    8 3   
     7    4   27 1   
     8    4   28 1   
     9    4   29 1   
    10    4   45 1   
    11    5   30 1   
    12    5   31 1   
    13    5   32 1   
    14    5   45 1   
    15    6   33 1   
    16    6   34 1   
    17    6   35 1   
    18    6   45 1   
    19    7    8 1   
    20    7   36 1   
    21    7   45 1   
    22    9   26 1   
    23   10   11 1   
    24   10   14 1   
    25   11   12 2   
    26   11   13 1   
    27   13   17 1   
    28   13   44 1   
    29   14   15 1   
    30   14   37 1   
    31   15   16 2   
    32   15   17 1   
    33   17   18 2   
    34   18   19 1   
    35   18   38 1   
    36   19   24 3   
    37   20   21 2   
    38   20   39 1   
    39   20   40 1   
    40   21   22 1   
    41   21   41 1   
    42   22   23 2   
    43   22   42 1   
    44   23   24 1   
    45   23   43 1   
@<TRIPOS>SUBSTRUCTURE
     1 PN6         1 TEMP              0 ****  ****    0 ROOT
