@<TRIPOS>MOLECULE
PN6
   45    47     1     0     0
SMALL
bcc


@<TRIPOS>ATOM
      1 C6          0.3350    0.4190   -0.0710 ce        1 PN6     -0.193800
      2 C2          1.7290    0.0920    0.0280 cc        1 PN6      0.343100
      3 C4          3.8140   -0.2990   -0.5620 cd        1 PN6      0.400400
      4 C23         3.1220   -0.6900    3.5910 c3        1 PN6     -0.092767
      5 C24         0.8950   -1.3730    2.7730 c3        1 PN6     -0.092767
      6 C25         1.4410    1.0480    3.0920 c3        1 PN6     -0.092767
      7 C1          2.4390   -0.2250    1.2260 cd        1 PN6     -0.156900
      8 N5          3.7560   -0.4680    0.8240 na        1 PN6     -0.313900
      9 N3          2.6130    0.0360   -1.0640 nc        1 PN6     -0.682000
     10 C7         -0.3800    0.7240   -1.1900 cd        1 PN6     -0.023600
     11 C8         -1.8400    1.0280   -0.9860 c         1 PN6      0.703700
     12 O20        -2.3790    0.9710    0.1360 o         1 PN6     -0.628500
     13 N9         -2.6070    1.3900   -2.0820 n         1 PN6     -0.473100
     14 N12         0.1230    0.7740   -2.4900 n         1 PN6     -0.458100
     15 C11        -0.6480    1.1150   -3.5890 c         1 PN6      0.700700
     16 O21        -0.1300    1.1340   -4.7220 o         1 PN6     -0.620500
     17 C10        -2.0990    1.4560   -3.3810 cc        1 PN6     -0.025600
     18 C13        -2.8330    1.8000   -4.4710 cf        1 PN6     -0.116200
     19 C14        -4.2380    2.1660   -4.4690 ca        1 PN6     -0.064800
     20 C15        -4.7510    3.1270   -3.5870 ca        1 PN6     -0.121500
     21 C16        -6.1020    3.4690   -3.6280 ca        1 PN6     -0.128000
     22 C17        -6.9530    2.8560   -4.5470 ca        1 PN6     -0.124000
     23 C18        -6.4470    1.9060   -5.4350 ca        1 PN6     -0.128000
     24 C19        -5.0980    1.5650   -5.4020 ca        1 PN6     -0.121500
     25 H1         -0.2200    0.4190    0.8870 ha        1 PN6      0.167000
     26 H2          4.7360   -0.4300   -1.1390 h5        1 PN6      0.066100
     27 H3          3.9370    0.0720    3.5630 hc        1 PN6      0.043367
     28 H4          2.7320   -0.7400    4.6380 hc        1 PN6      0.043367
     29 H5          3.5400   -1.6910    3.3310 hc        1 PN6      0.043367
     30 H6          0.0260   -1.1400    2.1150 hc        1 PN6      0.043367
     31 H7          1.3000   -2.3730    2.4860 hc        1 PN6      0.043367
     32 H8          0.5380   -1.4210    3.8300 hc        1 PN6      0.043367
     33 H9          2.2450    1.8200    3.0380 hc        1 PN6      0.043367
     34 H10         0.5920    1.3730    2.4460 hc        1 PN6      0.043367
     35 H11         1.0790    0.9800    4.1460 hc        1 PN6      0.043367
     36 H12         4.5010   -0.7140    1.4210 hn        1 PN6      0.305700
     37 H14         1.0870    0.5590   -2.6470 hn        1 PN6      0.368500
     38 H15        -2.3360    1.7860   -5.4590 ha        1 PN6      0.173000
     39 H17        -4.0830    3.6370   -2.8760 ha        1 PN6      0.138500
     40 H18        -6.4950    4.2260   -2.9340 ha        1 PN6      0.135000
     41 H19        -8.0190    3.1240   -4.5750 ha        1 PN6      0.134000
     42 H20        -7.1160    1.4250   -6.1650 ha        1 PN6      0.135000
     43 H21        -4.6990    0.8200   -6.1070 ha        1 PN6      0.138500
     44 H13        -3.5820    1.5620   -1.9480 hn        1 PN6      0.342500
     45 C22         1.9820   -0.3090    2.6480 c3        1 PN6      0.018300
@<TRIPOS>BOND
     1    1    2 1   
     2    1   10 2   
     3    1   25 1   
     4    2    7 2   
     5    2    9 1   
     6    3    8 1   
     7    3    9 2   
     8    3   26 1   
     9    4   27 1   
    10    4   28 1   
    11    4   29 1   
    12    4   45 1   
    13    5   30 1   
    14    5   31 1   
    15    5   32 1   
    16    5   45 1   
    17    6   33 1   
    18    6   34 1   
    19    6   35 1   
    20    6   45 1   
    21    7    8 1   
    22    7   45 1   
    23    8   36 1   
    24   10   11 1   
    25   10   14 1   
    26   11   12 2   
    27   11   13 1   
    28   13   17 1   
    29   13   44 1   
    30   14   15 1   
    31   14   37 1   
    32   15   16 2   
    33   15   17 1   
    34   17   18 2   
    35   18   19 1   
    36   18   38 1   
    37   19   20 ar  
    38   19   24 ar  
    39   20   21 ar  
    40   20   39 1   
    41   21   22 ar  
    42   21   40 1   
    43   22   23 ar  
    44   22   41 1   
    45   23   24 ar  
    46   23   42 1   
    47   24   43 1   
@<TRIPOS>SUBSTRUCTURE
     1 PN6         1 TEMP              0 ****  ****    0 ROOT
