@<TRIPOS>MOLECULE
PNA
   36    37     1     0     0
SMALL
bcc


@<TRIPOS>ATOM
      1 C1         -1.1620   -0.8650    0.4980 c3        1 PNA      0.305900
      2 C2         -2.4750   -1.5200    0.0170 c3        1 PNA      0.093100
      3 C3         -3.3140   -0.5500   -0.8250 c3        1 PNA      0.115100
      4 C4         -3.4080    0.8180   -0.1290 c3        1 PNA      0.085100
      5 C5         -1.9890    1.3570    0.1080 c3        1 PNA      0.146100
      6 C6         -2.0230    2.6950    0.8470 c3        1 PNA      0.135400
      7 C7          1.0520   -0.7320   -0.4150 ca        1 PNA      0.170100
      8 C8          1.6170   -0.2240    0.7630 ca        1 PNA     -0.181500
      9 C9          3.0000   -0.1470    0.8810 ca        1 PNA     -0.038500
     10 C10         3.8120   -0.5760   -0.1820 ca        1 PNA     -0.210200
     11 C11         3.2440   -1.0710   -1.3700 ca        1 PNA     -0.038500
     12 C12         1.8640   -1.1530   -1.4870 ca        1 PNA     -0.181500
     13 N1          5.2880   -0.5020   -0.0530 no        1 PNA      0.318200
     14 O1         -0.3050   -0.8280   -0.6450 os        1 PNA     -0.357900
     15 O2         -3.2660   -1.8770    1.1380 oh        1 PNA     -0.594800
     16 O3         -4.6060   -1.0600   -1.0770 oh        1 PNA     -0.592800
     17 O4         -4.0950    1.7530   -0.9410 oh        1 PNA     -0.593800
     18 O5         -1.2780    0.4520    0.9650 os        1 PNA     -0.419600
     19 O6         -0.8060    3.3590    0.5520 oh        1 PNA     -0.597800
     20 O7          5.7640   -0.0880    0.9710 o         1 PNA     -0.213000
     21 O8          5.9730   -0.8610   -0.9740 o         1 PNA     -0.213000
     22 H1         -0.7050   -1.4380    1.3540 h2        1 PNA      0.088700
     23 H2         -2.2270   -2.4320   -0.5950 h1        1 PNA      0.074700
     24 H3         -2.8420   -0.4370   -1.8420 h1        1 PNA      0.105700
     25 H4         -3.9490    0.7040    0.8520 h1        1 PNA      0.061700
     26 H5         -1.4360    1.4590   -0.8650 h1        1 PNA      0.089700
     27 H61        -2.1180    2.5290    1.9520 h1        1 PNA      0.049200
     28 H62        -2.8960    3.2940    0.4690 h1        1 PNA      0.049200
     29 H8          0.9730    0.1450    1.5770 ha        1 PNA      0.167500
     30 H9          3.4560    0.2560    1.8020 ha        1 PNA      0.173000
     31 H11         3.8930   -1.3950   -2.2020 ha        1 PNA      0.173000
     32 H12         1.3970   -1.5330   -2.4070 ha        1 PNA      0.167500
     33 HO2        -2.8330   -2.6230    1.5700 ho        1 PNA      0.416000
     34 HO3        -4.9950   -1.3050   -0.2250 ho        1 PNA      0.422000
     35 HO4        -4.8480    1.2840   -1.3280 ho        1 PNA      0.423000
     36 HO6        -0.8400    4.2080    1.0080 ho        1 PNA      0.404000
@<TRIPOS>BOND
     1    1    2 1   
     2    1   14 1   
     3    1   18 1   
     4    1   22 1   
     5    2    3 1   
     6    2   15 1   
     7    2   23 1   
     8    3    4 1   
     9    3   16 1   
    10    3   24 1   
    11    4    5 1   
    12    4   17 1   
    13    4   25 1   
    14    5    6 1   
    15    5   18 1   
    16    5   26 1   
    17    6   19 1   
    18    6   27 1   
    19    6   28 1   
    20    7    8 ar  
    21    7   12 ar  
    22    7   14 1   
    23    8    9 ar  
    24    8   29 1   
    25    9   10 ar  
    26    9   30 1   
    27   10   11 ar  
    28   10   13 1   
    29   11   12 ar  
    30   11   31 1   
    31   12   32 1   
    32   13   20 1   
    33   13   21 1   
    34   15   33 1   
    35   16   34 1   
    36   17   35 1   
    37   19   36 1   
@<TRIPOS>SUBSTRUCTURE
     1 PNA         1 TEMP              0 ****  ****    0 ROOT
