@<TRIPOS>MOLECULE
PNB
   40    38     1     0     0
SMALL
bcc


@<TRIPOS>ATOM
      1 N1          0.8800    2.1620   -1.9520 no        1 PNB      0.823400
      2 O4          1.9920    1.8780   -2.3220 o         1 PNB     -0.504700
      3 O5          0.6890    2.7410   -0.9150 o         1 PNB     -0.504700
      4 C1         -2.2560    1.4290   -5.1450 c2        1 PNB      0.052000
      5 C2         -2.3310    2.8440   -4.8660 c2        1 PNB     -0.464000
      6 C3         -1.7650    3.5480   -3.9090 c1        1 PNB      0.189000
      7 C4         -0.2860    1.7860   -2.7710 c2        1 PNB     -0.233000
      8 C5         -0.1710    0.9960   -3.8600 c2        1 PNB     -0.005000
      9 C6         -1.2730    0.6140   -4.7020 c2        1 PNB     -0.224000
     10 O1         -3.3830   -0.4600   -6.1620 os        1 PNB     -0.723000
     11 P1         -4.6710   -1.2340   -5.6460 p3        1 PNB      2.440000
     12 O2         -5.5130   -0.4510   -4.7710 o         1 PNB     -0.983000
     13 O3         -4.6790   -2.6130   -6.0760 o         1 PNB     -0.983000
     14 C8         -6.7420    0.5220   -7.9620 c3        1 PNB     -0.193000
     15 C9         -5.7270    1.1770   -8.8750 c3        1 PNB     -0.062000
     16 C10        -5.9250    2.6330   -8.9850 c2        1 PNB     -0.471000
     17 C11        -5.1920    3.4980   -8.2180 c2        1 PNB      0.235000
     18 O6         -4.3060    3.2980   -7.3310 o         1 PNB     -0.545000
     19 N2         -5.4660    4.9830   -8.4010 n4        1 PNB     -0.053000
     20 C12        -5.0400    5.5260   -9.7090 c3        1 PNB     -0.232000
     21 C13        -5.6860    6.9270   -9.9890 c2        1 PNB      0.331000
     22 O7         -5.2110    7.5650  -10.9560 o         1 PNB     -0.542000
     23 O8         -6.6250    7.2810   -9.2240 o         1 PNB     -0.542000
     24 H2         -3.1150    1.3510   -7.1070 h1        1 PNB      0.155500
     25 H3         -2.9760    3.4240   -5.5870 ha        1 PNB      0.259000
     26 H5         -1.2260    2.1660   -2.3260 h4        1 PNB      0.201000
     27 H6          0.8180    0.5860   -4.1550 ha        1 PNB      0.161000
     28 H71        -1.2410   -0.4330   -5.0570 ha        1 PNB      0.159000
     29 H72        -4.3400    1.3510   -5.7370 h1        1 PNB      0.155500
     30 H81        -6.3010   -0.3910   -7.4770 hc        1 PNB      0.051000
     31 H82        -7.0530    1.2200   -7.1470 hc        1 PNB      0.051000
     32 H91        -7.6520    0.2120   -8.5270 hc        1 PNB      0.051000
     33 H92        -5.7930    0.7120   -9.8950 hc        1 PNB      0.060500
     34 H101       -4.6930    0.9650   -8.4850 hc        1 PNB      0.060500
     35 H102       -6.6700    2.9810   -9.7060 ha        1 PNB      0.124000
     36 HN2        -4.9820    5.4960   -7.6620 hn        1 PNB      0.226000
     37 H121       -6.4700    5.1790   -8.3100 hn        1 PNB      0.226000
     38 H122       -3.9240    5.6140   -9.7270 hx        1 PNB      0.116000
     39 H22        -5.3650    4.8170  -10.5160 hx        1 PNB      0.116000
     40 C7         -3.3370    0.9520   -6.0690 c3        1 PNB      0.022000
@<TRIPOS>BOND
     1    1    2 2   
     2    1    3 2   
     3    1    7 1   
     4    4    5 1   
     5    4    9 1   
     6    4   40 1   
     7    5    6 1   
     8    5   25 1   
     9    7    8 1   
    10    7   26 1   
    11    8    9 1   
    12    8   27 1   
    13    9   28 1   
    14   10   11 1   
    15   10   40 1   
    16   11   12 1   
    17   11   13 1   
    18   14   15 1   
    19   14   30 1   
    20   14   31 1   
    21   14   32 1   
    22   15   16 1   
    23   15   33 1   
    24   15   34 1   
    25   16   17 1   
    26   16   35 1   
    27   17   18 1   
    28   17   19 1   
    29   19   20 1   
    30   19   36 1   
    31   19   37 1   
    32   20   21 1   
    33   20   38 1   
    34   20   39 1   
    35   21   22 1   
    36   21   23 1   
    37   24   40 1   
    38   29   40 1   
@<TRIPOS>SUBSTRUCTURE
     1 PNB         1 TEMP              0 ****  ****    0 ROOT
