@<TRIPOS>MOLECULE
PNB
   40    37     1     0     0
SMALL
bcc


@<TRIPOS>ATOM
      1 N1          1.0320    1.6440   -1.8930 no        1 PNB      0.814400
      2 O4          2.1720    1.5940   -2.2800 o         1 PNB     -0.504200
      3 O5          0.7680    1.8460   -0.7370 o         1 PNB     -0.504200
      4 C1         -1.8360    0.8700   -5.8120 c1        1 PNB     -0.091000
      5 C2         -4.4810    1.8390   -3.2350 c2        1 PNB     -0.527000
      6 C3         -3.3490    1.6790   -2.6170 c1        1 PNB      0.109000
      7 C4         -0.0790    1.4510   -2.8420 c2        1 PNB     -0.202000
      8 C5          0.1350    1.2310   -4.1560 c2        1 PNB      0.049000
      9 C6         -0.9260    1.0350   -5.0470 c1        1 PNB     -0.161000
     10 O1         -4.0150    0.0470   -6.0750 os        1 PNB     -0.719000
     11 P1         -4.5820   -1.2970   -6.7140 p3        1 PNB      2.471000
     12 O2         -5.8490   -1.6830   -6.1400 o         1 PNB     -0.989500
     13 O3         -3.6390   -1.9460   -7.5950 o         1 PNB     -0.989500
     14 C8         -5.8710    4.2250   -5.6800 c3        1 PNB     -0.204000
     15 C9         -6.1160    3.0480   -6.5960 c3        1 PNB     -0.064000
     16 C10        -6.0400    3.4310   -8.0180 c2        1 PNB     -0.459000
     17 C11        -5.3650    2.6590   -8.9210 c2        1 PNB      0.223000
     18 O6         -4.7100    1.5770   -8.7890 o         1 PNB     -0.561000
     19 N2         -5.3830    3.1110  -10.3730 ny        1 PNB     -0.051000
     20 C12        -4.6370    4.3610  -10.6360 c3        1 PNB     -0.232000
     21 C13        -5.0120    4.9730  -12.0300 c2        1 PNB      0.332000
     22 O7         -4.2660    5.8900  -12.4430 o         1 PNB     -0.542500
     23 O8         -6.0290    4.4960  -12.6040 o         1 PNB     -0.542500
     24 H2         -4.6190    1.5200   -4.2920 ha        1 PNB      0.211500
     25 H3         -5.3920    2.2920   -2.8160 ha        1 PNB      0.211500
     26 H5         -1.0780    1.5140   -2.3560 h4        1 PNB      0.230000
     27 H6          1.1560    1.1940   -4.5880 ha        1 PNB      0.170000
     28 H71        -3.3280    1.7290   -7.0490 h1        1 PNB      0.159000
     29 H72        -2.6290    0.1260   -7.6410 h1        1 PNB      0.159000
     30 H81        -5.8650    3.8890   -4.6140 hc        1 PNB      0.060333
     31 H82        -4.8870    4.7010   -5.9070 hc        1 PNB      0.060333
     32 H91        -6.6690    4.9960   -5.8070 hc        1 PNB      0.060333
     33 H92        -5.3690    2.2380   -6.3680 hc        1 PNB      0.060000
     34 H101       -7.1340    2.6210   -6.3750 hc        1 PNB      0.060000
     35 H102       -6.5540    4.3520   -8.3080 ha        1 PNB      0.123000
     36 HN2        -4.9840    2.3650  -10.9470 hn        1 PNB      0.227000
     37 H121       -6.3470    3.2680  -10.6900 hn        1 PNB      0.227000
     38 H122       -3.5380    4.1480  -10.6000 hx        1 PNB      0.115000
     39 H22        -4.8930    5.1080   -9.8390 hx        1 PNB      0.115000
     40 C7         -2.9390    0.7100   -6.7260 c3        1 PNB      0.099000
@<TRIPOS>BOND
     1    1    2 2   
     2    1    3 2   
     3    1    7 1   
     4    4    9 1   
     5    4   40 1   
     6    5    6 1   
     7    5   24 1   
     8    5   25 1   
     9    7    8 1   
    10    7   26 1   
    11    8    9 1   
    12    8   27 1   
    13   10   11 1   
    14   10   40 1   
    15   11   12 1   
    16   11   13 1   
    17   14   15 1   
    18   14   30 1   
    19   14   31 1   
    20   14   32 1   
    21   15   16 1   
    22   15   33 1   
    23   15   34 1   
    24   16   17 1   
    25   16   35 1   
    26   17   18 1   
    27   17   19 1   
    28   19   20 1   
    29   19   36 1   
    30   19   37 1   
    31   20   21 1   
    32   20   38 1   
    33   20   39 1   
    34   21   22 1   
    35   21   23 1   
    36   28   40 1   
    37   29   40 1   
@<TRIPOS>SUBSTRUCTURE
     1 PNB         1 TEMP              0 ****  ****    0 ROOT
