@<TRIPOS>MOLECULE
PNB
   39    39     1     0     0
SMALL
bcc


@<TRIPOS>ATOM
      1 N1          1.5170   -0.3720   -7.4940 no        1 PNB      0.317200
      2 O4          1.0270    0.0210   -8.5250 o         1 PNB     -0.244000
      3 O5          2.5670   -0.9650   -7.4990 o         1 PNB     -0.244000
      4 C1         -0.5000    0.3420   -3.7970 ca        1 PNB      0.014700
      5 C2          0.7240   -0.3430   -3.8150 ca        1 PNB     -0.145500
      6 C3          1.3880   -0.5810   -5.0110 ca        1 PNB     -0.074000
      7 C4          0.8220   -0.1250   -6.2160 ca        1 PNB     -0.215200
      8 C5         -0.4050    0.5650   -6.2140 ca        1 PNB     -0.074000
      9 C6         -1.0520    0.7910   -5.0070 ca        1 PNB     -0.145500
     10 O1         -0.5460    0.0910   -1.4210 os        1 PNB     -0.582200
     11 P1         -1.4340    0.4060   -0.0080 p5        1 PNB      1.345600
     12 O2         -1.4330    1.8840    0.0620 o         1 PNB     -0.859500
     13 O3         -2.6810   -0.3630   -0.2230 o         1 PNB     -0.859500
     14 C8         -0.3980   -0.3190    1.0950 c3        1 PNB     -0.344600
     15 C9         -0.7940    0.1270    2.4750 c3        1 PNB     -0.060400
     16 C10         0.1760   -0.3710    3.5230 c3        1 PNB     -0.140400
     17 C11        -0.2970   -0.1010    4.9440 c         1 PNB      0.638100
     18 O6         -1.5130    0.0340    5.2130 o         1 PNB     -0.654100
     19 N2          0.6740    0.0090    5.9110 n         1 PNB     -0.534900
     20 C12         0.3760    0.0320    7.3180 c3        1 PNB     -0.041000
     21 C13         1.5360   -0.4760    8.2170 c         1 PNB      0.904600
     22 O7          2.5960   -0.9120    7.6820 o         1 PNB     -0.849300
     23 O8          1.3410   -0.4210    9.4640 o         1 PNB     -0.849300
     24 H2          1.1420   -0.6880   -2.8530 ha        1 PNB      0.163500
     25 H3          2.3490   -1.1200   -5.0190 ha        1 PNB      0.150500
     26 H5         -0.8420    0.9190   -7.1600 ha        1 PNB      0.150500
     27 H6         -2.0120    1.3300   -4.9940 ha        1 PNB      0.163500
     28 H71        -2.2520    0.1270   -2.5660 h1        1 PNB      0.062700
     29 H72        -1.3550    1.7180   -2.3790 h1        1 PNB      0.062700
     30 H81         0.6630   -0.0360    0.8910 hc        1 PNB      0.068200
     31 H82        -0.4490   -1.4320    1.0220 hc        1 PNB      0.068200
     32 H91        -1.8270   -0.2480    2.7040 hc        1 PNB      0.067200
     33 H92        -0.8390    1.2500    2.4910 hc        1 PNB      0.067200
     34 H101        1.1810    0.0930    3.3440 hc        1 PNB      0.046700
     35 H102        0.2960   -1.4840    3.4240 hc        1 PNB      0.046700
     36 HN2         1.6050   -0.2790    5.6930 hn        1 PNB      0.318500
     37 H121       -0.5370   -0.5900    7.5320 h1        1 PNB      0.034700
     38 H122        0.1400    1.0910    7.6180 h1        1 PNB      0.034700
     39 C7         -1.2270    0.6030   -2.5180 c3        1 PNB      0.189700
@<TRIPOS>BOND
     1    1    2 1   
     2    1    3 1   
     3    1    7 1   
     4    4    5 ar  
     5    4    9 ar  
     6    4   39 1   
     7    5    6 ar  
     8    5   24 1   
     9    6    7 ar  
    10    6   25 1   
    11    7    8 ar  
    12    8    9 ar  
    13    8   26 1   
    14    9   27 1   
    15   10   11 1   
    16   10   39 1   
    17   11   12 1   
    18   11   13 1   
    19   11   14 1   
    20   14   15 1   
    21   14   30 1   
    22   14   31 1   
    23   15   16 1   
    24   15   32 1   
    25   15   33 1   
    26   16   17 1   
    27   16   34 1   
    28   16   35 1   
    29   17   18 2   
    30   17   19 1   
    31   19   20 1   
    32   19   36 1   
    33   20   21 1   
    34   20   37 1   
    35   20   38 1   
    36   21   22 1   
    37   21   23 1   
    38   28   39 1   
    39   29   39 1   
@<TRIPOS>SUBSTRUCTURE
     1 PNB         1 TEMP              0 ****  ****    0 ROOT
