@<TRIPOS>MOLECULE
PNC
   41    41     1     0     0
SMALL
bcc


@<TRIPOS>ATOM
      1 C1         -0.3240   -0.9310   -1.0500 ca        1 PNC     -0.136300
      2 C2          0.6910   -1.7910   -1.4840 ca        1 PNC     -0.110500
      3 C3          1.7890   -2.0460   -0.6650 ca        1 PNC     -0.070000
      4 C4          1.8600   -1.4300    0.5940 ca        1 PNC     -0.143200
      5 C5          0.8500   -0.5590    1.0330 ca        1 PNC     -0.070000
      6 C6         -0.2430   -0.3160    0.2040 ca        1 PNC     -0.110500
      7 C7         -1.4710   -0.6370   -1.9600 c3        1 PNC      0.167100
      8 C8         -4.5370   -2.5670   -3.2120 c3        1 PNC     -0.153400
      9 C9         -4.3500   -2.6270   -4.7210 c3        1 PNC     -0.071400
     10 C10        -4.6500   -4.0250   -5.2440 c3        1 PNC     -0.140400
     11 C11        -3.7430   -4.3820   -6.3910 c         1 PNC      0.551100
     12 C12        -1.3310   -4.3870   -5.7900 c3        1 PNC     -0.011200
     13 C13        -1.4270   -3.7330   -4.4010 c         1 PNC      0.898600
     14 C14        -3.7550   -1.4140   -2.6380 c         1 PNC      0.552100
     15 N1          3.0310   -1.7030    1.4800 no        1 PNC      0.310200
     16 N2         -2.5320   -5.2290   -6.0680 ny        1 PNC     -0.663800
     17 N3         -2.4570   -1.7660   -1.9690 ny        1 PNC     -0.681800
     18 O2         -4.0890   -0.2370   -2.6580 o         1 PNC     -0.423100
     19 O4          3.0750   -1.1650    2.5510 o         1 PNC     -0.183500
     20 O5          3.8800   -2.4550    1.0900 o         1 PNC     -0.183500
     21 O6         -3.8800   -4.0820   -7.5670 o         1 PNC     -0.409100
     22 O7         -2.1570   -4.2820   -3.5160 o         1 PNC     -0.820800
     23 O8         -0.8450   -2.6370   -4.2020 o         1 PNC     -0.820800
     24 H2          0.6250   -2.2590   -2.4850 ha        1 PNC      0.169000
     25 H3          2.5960   -2.7210   -1.0040 ha        1 PNC      0.187500
     26 H5          0.9240   -0.0710    2.0220 ha        1 PNC      0.187500
     27 H6         -1.0310    0.3770    0.5400 ha        1 PNC      0.169000
     28 H71        -2.0070    0.3050   -1.6460 hx        1 PNC      0.122700
     29 H72        -1.1010   -0.5210   -3.0240 hx        1 PNC      0.122700
     30 H81        -5.6200   -2.3960   -2.9620 hc        1 PNC      0.112700
     31 H82        -4.2140   -3.5380   -2.7410 hc        1 PNC      0.112700
     32 H91        -5.0280   -1.8820   -5.2180 hc        1 PNC      0.084700
     33 H92        -3.2930   -2.3370   -4.9770 hc        1 PNC      0.084700
     34 H101       -5.7050   -4.0720   -5.6370 hc        1 PNC      0.110700
     35 H102       -4.5540   -4.7810   -4.4160 hc        1 PNC      0.110700
     36 H121       -0.4170   -5.0450   -5.8160 hx        1 PNC      0.120700
     37 H122       -1.2400   -3.5950   -6.5850 hx        1 PNC      0.120700
     38 HN2        -2.7220   -5.7750   -5.2110 hn        1 PNC      0.467800
     39 HN3        -2.6580   -2.0540   -1.0070 hn        1 PNC      0.485300
     40 H22        -2.3330   -5.8590   -6.8520 hn        1 PNC      0.467800
     41 H32        -2.0200   -2.5830   -2.4650 hn        1 PNC      0.485300
@<TRIPOS>BOND
     1    1    2 ar  
     2    1    6 ar  
     3    1    7 1   
     4    2    3 ar  
     5    2   24 1   
     6    3    4 ar  
     7    3   25 1   
     8    4    5 ar  
     9    4   15 1   
    10    5    6 ar  
    11    5   26 1   
    12    6   27 1   
    13    7   17 1   
    14    7   28 1   
    15    7   29 1   
    16    8    9 1   
    17    8   14 1   
    18    8   30 1   
    19    8   31 1   
    20    9   10 1   
    21    9   32 1   
    22    9   33 1   
    23   10   11 1   
    24   10   34 1   
    25   10   35 1   
    26   11   16 1   
    27   11   21 2   
    28   12   13 1   
    29   12   16 1   
    30   12   36 1   
    31   12   37 1   
    32   13   22 1   
    33   13   23 1   
    34   14   17 1   
    35   14   18 2   
    36   15   19 1   
    37   15   20 1   
    38   16   38 1   
    39   16   40 1   
    40   17   39 1   
    41   17   41 1   
@<TRIPOS>SUBSTRUCTURE
     1 PNC         1 TEMP              0 ****  ****    0 ROOT
