@<TRIPOS>MOLECULE
PNC
   39    39     1     0     0
SMALL
bcc


@<TRIPOS>ATOM
      1 C1         -0.3540   -0.0640   -0.3900 ca        1 PNC     -0.066300
      2 C2          0.9020   -0.6390   -0.1630 ca        1 PNC     -0.130000
      3 C3          1.3500   -0.8680    1.1340 ca        1 PNC     -0.072000
      4 C4          0.5250   -0.5130    2.2150 ca        1 PNC     -0.179200
      5 C5         -0.7400    0.0570    1.9980 ca        1 PNC     -0.072000
      6 C6         -1.1710    0.2760    0.6920 ca        1 PNC     -0.130000
      7 C7         -0.7990    0.2180   -1.8020 c3        1 PNC      0.133300
      8 C8         -0.4480   -2.7800   -4.1810 c3        1 PNC     -0.150400
      9 C9         -1.9170   -2.9380   -4.4940 c3        1 PNC     -0.077400
     10 C10        -2.1420   -4.0520   -5.4940 c3        1 PNC     -0.159400
     11 C11        -3.6370   -4.2660   -5.7230 c         1 PNC      0.634100
     12 C12        -5.3250   -5.6230   -6.9030 c3        1 PNC     -0.061000
     13 C13        -5.3630   -7.0790   -7.4610 c         1 PNC      0.907600
     14 C14        -0.0870   -1.5570   -3.3630 c         1 PNC      0.663100
     15 N1          0.9960   -0.7420    3.6040 no        1 PNC      0.313200
     16 N2         -3.9860   -5.1200   -6.7310 n         1 PNC     -0.507900
     17 N3         -1.0610   -0.9450   -2.5970 n         1 PNC     -0.571900
     18 O2          1.0790   -1.1050   -3.3750 o         1 PNC     -0.638100
     19 O4          0.2850   -0.4280    4.5220 o         1 PNC     -0.216000
     20 O5          2.0800   -1.2320    3.7820 o         1 PNC     -0.216000
     21 O6         -4.4740   -3.6260   -5.0410 o         1 PNC     -0.664100
     22 O7         -4.2690   -7.6710   -7.6860 o         1 PNC     -0.834800
     23 O8         -6.5070   -7.5680   -7.6530 o         1 PNC     -0.834800
     24 H2          1.5360   -0.9070   -1.0280 ha        1 PNC      0.162500
     25 H3          2.3400   -1.3210    1.3130 ha        1 PNC      0.168000
     26 H5         -1.3840    0.3260    2.8530 ha        1 PNC      0.168000
     27 H6         -2.1630    0.7200    0.5190 ha        1 PNC      0.162500
     28 H71         0.0180    0.8200   -2.3030 h1        1 PNC      0.069700
     29 H72        -1.7380    0.8430   -1.7760 h1        1 PNC      0.069700
     30 H81         0.1430   -2.7180   -5.1350 hc        1 PNC      0.076700
     31 H82        -0.0760   -3.6760   -3.6140 hc        1 PNC      0.076700
     32 H91        -2.3370   -1.9860   -4.9110 hc        1 PNC      0.059700
     33 H92        -2.5000   -3.1770   -3.5630 hc        1 PNC      0.059700
     34 H101       -1.6400   -3.8030   -6.4650 hc        1 PNC      0.058700
     35 H102       -1.6980   -5.0080   -5.1130 hc        1 PNC      0.058700
     36 H121       -5.8820   -5.5980   -5.9270 h1        1 PNC      0.043200
     37 H122       -5.8670   -4.9540   -7.6270 h1        1 PNC      0.043200
     38 HN2        -3.2820   -5.7310   -7.1000 hn        1 PNC      0.325500
     39 HN3        -1.9560   -1.3660   -2.5180 hn        1 PNC      0.327500
@<TRIPOS>BOND
     1    1    2 ar  
     2    1    6 ar  
     3    1    7 1   
     4    2    3 ar  
     5    2   24 1   
     6    3    4 ar  
     7    3   25 1   
     8    4    5 ar  
     9    4   15 1   
    10    5    6 ar  
    11    5   26 1   
    12    6   27 1   
    13    7   17 1   
    14    7   28 1   
    15    7   29 1   
    16    8    9 1   
    17    8   14 1   
    18    8   30 1   
    19    8   31 1   
    20    9   10 1   
    21    9   32 1   
    22    9   33 1   
    23   10   11 1   
    24   10   34 1   
    25   10   35 1   
    26   11   16 1   
    27   11   21 2   
    28   12   13 1   
    29   12   16 1   
    30   12   36 1   
    31   12   37 1   
    32   13   22 1   
    33   13   23 1   
    34   14   17 1   
    35   14   18 2   
    36   15   19 1   
    37   15   20 1   
    38   16   38 1   
    39   17   39 1   
@<TRIPOS>SUBSTRUCTURE
     1 PNC         1 TEMP              0 ****  ****    0 ROOT
