@<TRIPOS>MOLECULE
PNC
   41    41     1     0     0
SMALL
bcc


@<TRIPOS>ATOM
      1 C1         -0.2100   -0.7310   -1.3720 ca        1 PNC     -0.129300
      2 C2          0.5250   -1.9220   -1.4090 ca        1 PNC     -0.119000
      3 C3          1.0480   -2.4600   -0.2370 ca        1 PNC     -0.064000
      4 C4          0.8310   -1.7920    0.9790 ca        1 PNC     -0.149200
      5 C5          0.1070   -0.5910    1.0240 ca        1 PNC     -0.064000
      6 C6         -0.4160   -0.0690   -0.1580 ca        1 PNC     -0.119000
      7 C7         -0.7300   -0.1350   -2.6410 c3        1 PNC      0.164100
      8 C8         -3.8000   -2.2910   -2.7030 c3        1 PNC     -0.150400
      9 C9         -4.1560   -2.9470   -4.0270 c3        1 PNC     -0.082400
     10 C10        -3.8870   -4.4440   -3.9750 c3        1 PNC     -0.151400
     11 C11        -3.8620   -5.0300   -5.3620 c         1 PNC      0.553100
     12 C12        -1.8180   -4.3220   -6.5820 c3        1 PNC     -0.011200
     13 C13        -1.3900   -3.2480   -5.5630 c         1 PNC      0.904600
     14 C14        -3.0800   -0.9780   -2.8860 c         1 PNC      0.546100
     15 N1          1.3800   -2.3700    2.2420 no        1 PNC      0.311200
     16 N2         -2.5120   -5.4540   -5.9000 n4        1 PNC     -0.662800
     17 N3         -1.6630   -1.0470   -3.3640 n4        1 PNC     -0.693800
     18 O2         -3.5550    0.1290   -2.6680 o         1 PNC     -0.423100
     19 O4          1.2110   -1.7710    3.2670 o         1 PNC     -0.181500
     20 O5          1.9620   -3.4170    2.1840 o         1 PNC     -0.181500
     21 O6         -4.8120   -5.2240   -6.1040 o         1 PNC     -0.409100
     22 O7         -1.0960   -3.6210   -4.3840 o         1 PNC     -0.816300
     23 O8         -1.4290   -2.0440   -5.9180 o         1 PNC     -0.816300
     24 H2          0.7100   -2.4400   -2.3670 ha        1 PNC      0.162000
     25 H3          1.6340   -3.3970   -0.2620 ha        1 PNC      0.189500
     26 H5         -0.0470   -0.0660    1.9850 ha        1 PNC      0.189500
     27 H6         -0.9820    0.8770   -0.1250 ha        1 PNC      0.162000
     28 H71         0.1390    0.0690   -3.3370 hx        1 PNC      0.118700
     29 H72        -1.2660    0.8390   -2.4430 hx        1 PNC      0.118700
     30 H81        -3.1630   -2.9670   -2.0690 hc        1 PNC      0.109200
     31 H82        -4.7390   -2.0710   -2.1210 hc        1 PNC      0.109200
     32 H91        -3.5650   -2.4860   -4.8660 hc        1 PNC      0.087200
     33 H92        -5.2420   -2.7690   -4.2560 hc        1 PNC      0.087200
     34 H101       -4.7120   -4.9660   -3.4130 hc        1 PNC      0.114700
     35 H102       -2.9150   -4.6380   -3.4390 hc        1 PNC      0.114700
     36 H121       -2.5080   -3.8720   -7.3490 hx        1 PNC      0.122200
     37 H122       -0.8990   -4.7210   -7.0960 hx        1 PNC      0.122200
     38 HN2        -2.6320   -6.2290   -6.5610 hn        1 PNC      0.466800
     39 HN3        -1.3150   -2.0310   -3.3000 hn        1 PNC      0.502800
     40 H22        -1.9150   -5.7480   -5.1120 hn        1 PNC      0.466800
     41 H32        -1.6470   -0.8120   -4.3830 hn        1 PNC      0.502800
@<TRIPOS>BOND
     1    1    2 ar  
     2    1    6 ar  
     3    1    7 1   
     4    2    3 ar  
     5    2   24 1   
     6    3    4 ar  
     7    3   25 1   
     8    4    5 ar  
     9    4   15 1   
    10    5    6 ar  
    11    5   26 1   
    12    6   27 1   
    13    7   17 1   
    14    7   28 1   
    15    7   29 1   
    16    8    9 1   
    17    8   14 1   
    18    8   30 1   
    19    8   31 1   
    20    9   10 1   
    21    9   32 1   
    22    9   33 1   
    23   10   11 1   
    24   10   34 1   
    25   10   35 1   
    26   11   16 1   
    27   11   21 2   
    28   12   13 1   
    29   12   16 1   
    30   12   36 1   
    31   12   37 1   
    32   13   22 1   
    33   13   23 1   
    34   14   17 1   
    35   14   18 2   
    36   15   19 1   
    37   15   20 1   
    38   16   38 1   
    39   16   40 1   
    40   17   39 1   
    41   17   41 1   
@<TRIPOS>SUBSTRUCTURE
     1 PNC         1 TEMP              0 ****  ****    0 ROOT
