@<TRIPOS>MOLECULE
PNC
   39    39     1     0     0
SMALL
bcc


@<TRIPOS>ATOM
      1 C1         -1.0200    0.1140   -3.3410 ca        1 PNC     -0.066300
      2 C2         -0.1290   -0.8600   -3.8090 ca        1 PNC     -0.130000
      3 C3          0.6910   -0.5990   -4.9030 ca        1 PNC     -0.072000
      4 C4          0.6120    0.6550   -5.5330 ca        1 PNC     -0.179200
      5 C5         -0.2720    1.6410   -5.0660 ca        1 PNC     -0.072000
      6 C6         -1.0820    1.3610   -3.9690 ca        1 PNC     -0.130000
      7 C7         -1.9310   -0.2070   -2.1840 c3        1 PNC      0.133300
      8 C8         -0.1240   -1.6920    0.8660 c3        1 PNC     -0.150400
      9 C9         -0.4470   -0.5750    1.8310 c3        1 PNC     -0.077400
     10 C10         0.0960   -0.8770    3.2110 c3        1 PNC     -0.159400
     11 C11        -0.1490    0.3030    4.1480 c         1 PNC      0.634100
     12 C12         0.2020    1.1790    6.4280 c3        1 PNC     -0.061000
     13 C13         1.2670    0.9380    7.5400 c         1 PNC      0.907600
     14 C14        -0.8050   -1.5990   -0.4840 c         1 PNC      0.663100
     15 N1          1.4730    0.9410   -6.7080 no        1 PNC      0.313200
     16 N2          0.1320    0.1040    5.4710 n         1 PNC     -0.507900
     17 N3         -1.2710   -0.3740   -0.9230 n         1 PNC     -0.571900
     18 O2         -0.9440   -2.6160   -1.1980 o         1 PNC     -0.638100
     19 O4          1.3930    2.0140   -7.2450 o         1 PNC     -0.216000
     20 O5          2.2290    0.0920   -7.1010 o         1 PNC     -0.216000
     21 O6         -0.6420    1.3670    3.7010 o         1 PNC     -0.664100
     22 O7          1.9580   -0.1210    7.4990 o         1 PNC     -0.834800
     23 O8          1.3630    1.8340    8.4190 o         1 PNC     -0.834800
     24 H2         -0.0860   -1.8410   -3.3010 ha        1 PNC      0.162500
     25 H3          1.3920   -1.3660   -5.2720 ha        1 PNC      0.168000
     26 H5         -0.3220    2.6250   -5.5620 ha        1 PNC      0.168000
     27 H6         -1.7750    2.1330   -3.5990 ha        1 PNC      0.162500
     28 H71        -2.4760   -1.1660   -2.4350 h1        1 PNC      0.069700
     29 H72        -2.6930    0.6180   -2.0740 h1        1 PNC      0.069700
     30 H81         0.9820   -1.7280    0.6740 hc        1 PNC      0.076700
     31 H82        -0.4200   -2.6800    1.3100 hc        1 PNC      0.076700
     32 H91        -1.5560   -0.4230    1.9030 hc        1 PNC      0.059700
     33 H92        -0.0020    0.3960    1.4810 hc        1 PNC      0.059700
     34 H101        1.2000   -1.0690    3.1580 hc        1 PNC      0.058700
     35 H102       -0.3930   -1.7980    3.6220 hc        1 PNC      0.058700
     36 H121       -0.8040    1.2850    6.9200 h1        1 PNC      0.043200
     37 H122        0.4360    2.1500    5.9110 h1        1 PNC      0.043200
     38 HN2         0.6920   -0.6880    5.7230 hn        1 PNC      0.325500
     39 HN3        -1.0720    0.4420   -0.3950 hn        1 PNC      0.327500
@<TRIPOS>BOND
     1    1    2 ar  
     2    1    6 ar  
     3    1    7 1   
     4    2    3 ar  
     5    2   24 1   
     6    3    4 ar  
     7    3   25 1   
     8    4    5 ar  
     9    4   15 1   
    10    5    6 ar  
    11    5   26 1   
    12    6   27 1   
    13    7   17 1   
    14    7   28 1   
    15    7   29 1   
    16    8    9 1   
    17    8   14 1   
    18    8   30 1   
    19    8   31 1   
    20    9   10 1   
    21    9   32 1   
    22    9   33 1   
    23   10   11 1   
    24   10   34 1   
    25   10   35 1   
    26   11   16 1   
    27   11   21 2   
    28   12   13 1   
    29   12   16 1   
    30   12   36 1   
    31   12   37 1   
    32   13   22 1   
    33   13   23 1   
    34   14   17 1   
    35   14   18 2   
    36   15   19 1   
    37   15   20 1   
    38   16   38 1   
    39   17   39 1   
@<TRIPOS>SUBSTRUCTURE
     1 PNC         1 TEMP              0 ****  ****    0 ROOT
