@<TRIPOS>MOLECULE
PND
   19    19     1     0     0
SMALL
bcc


@<TRIPOS>ATOM
      1 N1          0.2120   -0.4340   -0.2030 nz        1 PND     -0.623400
      2 C1          1.9170    0.3060    1.3150 ca        1 PND     -0.021400
      3 N2          1.1470    0.5730    0.1220 nu        1 PND     -0.439400
      4 C2          3.2790   -0.0470    1.2380 ca        1 PND     -0.107000
      5 C3          4.0290   -0.1860    2.4020 ca        1 PND     -0.057500
      6 C4          3.4120    0.0140    3.6470 ca        1 PND     -0.128200
      7 N4          4.2160   -0.1450    4.9020 no        1 PND      0.312200
      8 O3          5.3730   -0.4340    4.7980 o         1 PND     -0.164000
      9 O4          3.6620    0.0190    5.9510 o         1 PND     -0.164000
     10 C5          2.0570    0.3650    3.7340 ca        1 PND     -0.057500
     11 C6          1.3080    0.5090    2.5690 ca        1 PND     -0.107000
     12 HN11        0.6180   -1.3450   -0.4690 hn        1 PND      0.467467
     13 HN12       -0.3970   -0.5740    0.6220 hn        1 PND      0.467467
     14 HN2         1.7800    0.7060   -0.6670 hn        1 PND      0.424800
     15 H2          3.7790   -0.1950    0.2660 ha        1 PND      0.163000
     16 H3          5.1030   -0.4510    2.3470 ha        1 PND      0.203000
     17 H5          1.5860    0.5330    4.7230 ha        1 PND      0.203000
     18 H6          0.2520    0.8150    2.6480 ha        1 PND      0.163000
     19 H13        -0.3660   -0.0730   -0.9810 hn        1 PND      0.467467
@<TRIPOS>BOND
     1    1    3 1   
     2    1   12 1   
     3    1   13 1   
     4    1   19 1   
     5    2    3 1   
     6    2    4 ar  
     7    2   11 ar  
     8    3   14 1   
     9    4    5 ar  
    10    4   15 1   
    11    5    6 ar  
    12    5   16 1   
    13    6    7 1   
    14    6   10 ar  
    15    7    8 1   
    16    7    9 1   
    17   10   11 ar  
    18   10   17 1   
    19   11   18 1   
@<TRIPOS>SUBSTRUCTURE
     1 PND         1 TEMP              0 ****  ****    0 ROOT
