@<TRIPOS>MOLECULE
PND
   19    19     1     0     0
SMALL
bcc


@<TRIPOS>ATOM
      1 N1          0.2080   -0.4490   -0.1970 n4        1 PND     -0.623400
      2 C1          1.9130    0.3030    1.3150 ca        1 PND     -0.021400
      3 N2          1.1390    0.5640    0.1250 nh        1 PND     -0.439400
      4 C2          3.2770   -0.0420    1.2350 ca        1 PND     -0.107000
      5 C3          4.0310   -0.1750    2.3980 ca        1 PND     -0.057500
      6 C4          3.4160    0.0230    3.6440 ca        1 PND     -0.128200
      7 N4          4.2240   -0.1300    4.8970 no        1 PND      0.312200
      8 O3          5.3830   -0.4110    4.7900 o         1 PND     -0.164000
      9 O4          3.6710    0.0320    5.9470 o         1 PND     -0.164000
     10 C5          2.0590    0.3660    3.7340 ca        1 PND     -0.057500
     11 C6          1.3070    0.5040    2.5710 ca        1 PND     -0.107000
     12 HN11       -0.3980   -0.5920    0.6300 hn        1 PND      0.467467
     13 HN12       -0.3740   -0.0930   -0.9740 hn        1 PND      0.467467
     14 HN2         1.7680    0.6990   -0.6670 hn        1 PND      0.424800
     15 H2          3.7750   -0.1880    0.2620 ha        1 PND      0.163000
     16 H3          5.1060   -0.4340    2.3400 ha        1 PND      0.203000
     17 H5          1.5900    0.5330    4.7240 ha        1 PND      0.203000
     18 H6          0.2480    0.8040    2.6520 ha        1 PND      0.163000
     19 H13         0.6200   -1.3580   -0.4620 hn        1 PND      0.467467
@<TRIPOS>BOND
     1    1    3 1   
     2    1   12 1   
     3    1   13 1   
     4    1   19 1   
     5    2    3 1   
     6    2    4 ar  
     7    2   11 ar  
     8    3   14 1   
     9    4    5 ar  
    10    4   15 1   
    11    5    6 ar  
    12    5   16 1   
    13    6    7 1   
    14    6   10 ar  
    15    7    8 1   
    16    7    9 1   
    17   10   11 ar  
    18   10   17 1   
    19   11   18 1   
@<TRIPOS>SUBSTRUCTURE
     1 PND         1 TEMP              0 ****  ****    0 ROOT
