@<TRIPOS>MOLECULE
PND
   18    18     1     0     0
SMALL
bcc


@<TRIPOS>ATOM
      1 N1          0.1390   -0.2100   -0.3500 n3        1 PND     -0.629600
      2 C1          2.0780    0.0110    1.1070 ca        1 PND      0.145600
      3 N2          1.4560    0.0830   -0.1630 nh        1 PND     -0.498400
      4 C2          3.4860   -0.1340    1.1810 ca        1 PND     -0.197000
      5 C3          4.1400   -0.0960    2.4010 ca        1 PND     -0.028500
      6 C4          3.4000    0.0770    3.5840 ca        1 PND     -0.220200
      7 N4          4.0960    0.1110    4.8910 no        1 PND      0.320200
      8 O3          5.2920   -0.0110    4.9180 o         1 PND     -0.213500
      9 O4          3.4480    0.2570    5.8940 o         1 PND     -0.213500
     10 C5          2.0040    0.2170    3.5320 ca        1 PND     -0.028500
     11 C6          1.3510    0.1810    2.3080 ca        1 PND     -0.197000
     12 HN11       -0.1930   -0.9200    0.2940 hn        1 PND      0.350800
     13 HN12       -0.3980    0.6310   -0.1670 hn        1 PND      0.350800
     14 HN2         2.0010   -0.3780   -0.8800 hn        1 PND      0.424800
     15 H2          4.0780   -0.2700    0.2620 ha        1 PND      0.146500
     16 H3          5.2380   -0.2040    2.4470 ha        1 PND      0.171500
     17 H5          1.4260    0.3540    4.4640 ha        1 PND      0.171500
     18 H6          0.2580    0.3060    2.2970 ha        1 PND      0.146500
@<TRIPOS>BOND
     1    1    3 1   
     2    1   12 1   
     3    1   13 1   
     4    2    3 1   
     5    2    4 ar  
     6    2   11 ar  
     7    3   14 1   
     8    4    5 ar  
     9    4   15 1   
    10    5    6 ar  
    11    5   16 1   
    12    6    7 1   
    13    6   10 ar  
    14    7    8 1   
    15    7    9 1   
    16   10   11 ar  
    17   10   17 1   
    18   11   18 1   
@<TRIPOS>SUBSTRUCTURE
     1 PND         1 TEMP              0 ****  ****    0 ROOT
