@<TRIPOS>MOLECULE
PND
   18    18     1     0     0
SMALL
bcc


@<TRIPOS>ATOM
      1 N1          4.0770    0.4260    0.0320 n3        1 PND     -0.629600
      2 C1          1.7670   -0.3310   -0.1080 ca        1 PND      0.145600
      3 N2          3.1600   -0.5410   -0.2510 nh        1 PND     -0.498400
      4 C2          0.9110   -1.4510    0.0390 ca        1 PND     -0.197000
      5 C3         -0.4650   -1.2930    0.0700 ca        1 PND     -0.028500
      6 C4         -1.0210   -0.0060   -0.0350 ca        1 PND     -0.220200
      7 N4         -2.4920    0.1660    0.0050 no        1 PND      0.320200
      8 O3         -3.1900   -0.8060    0.1270 o         1 PND     -0.213500
      9 O4         -2.9520    1.2730   -0.0830 o         1 PND     -0.213500
     10 C5         -0.1900    1.1160   -0.1750 ca        1 PND     -0.028500
     11 C6          1.1880    0.9550   -0.2090 ca        1 PND     -0.197000
     12 HN11        4.1950    0.9990   -0.7960 hn        1 PND      0.350800
     13 HN12        3.7700    1.0410    0.7780 hn        1 PND      0.350800
     14 HN2         3.4590   -1.4110    0.1670 hn        1 PND      0.424800
     15 H2          1.3340   -2.4650    0.1220 ha        1 PND      0.146500
     16 H3         -1.1230   -2.1730    0.1790 ha        1 PND      0.171500
     17 H5         -0.6320    2.1250   -0.2590 ha        1 PND      0.171500
     18 H6          1.8140    1.8520   -0.3330 ha        1 PND      0.146500
@<TRIPOS>BOND
     1    1    3 1   
     2    1   12 1   
     3    1   13 1   
     4    2    3 1   
     5    2    4 ar  
     6    2   11 ar  
     7    3   14 1   
     8    4    5 ar  
     9    4   15 1   
    10    5    6 ar  
    11    5   16 1   
    12    6    7 1   
    13    6   10 ar  
    14    7    8 1   
    15    7    9 1   
    16   10   11 ar  
    17   10   17 1   
    18   11   18 1   
@<TRIPOS>SUBSTRUCTURE
     1 PND         1 TEMP              0 ****  ****    0 ROOT
