@<TRIPOS>MOLECULE
PNE
   39    39     1     0     0
SMALL
bcc


@<TRIPOS>ATOM
      1 P1         -3.2180   -2.7830    3.9880 p5        1 PNE      1.366600
      2 O1         -4.3810   -3.6600    4.9490 os        1 PNE     -0.476500
      3 O2         -3.8480   -2.7910    2.6580 o         1 PNE     -0.832500
      4 O3         -3.0340   -1.5730    4.8060 o         1 PNE     -0.832500
      5 C8         -1.9810   -3.8950    4.1370 c3        1 PNE     -0.356600
      6 C9         -0.7060   -3.2370    3.6840 c3        1 PNE     -0.061400
      7 C10         0.4910   -4.1370    3.8930 c3        1 PNE     -0.141400
      8 C11         1.7650   -3.5640    3.2840 c         1 PNE      0.644100
      9 N2          2.9500   -3.9930    3.8220 n         1 PNE     -0.537900
     10 O6          1.7190   -2.7440    2.3370 o         1 PNE     -0.658100
     11 C12         4.2480   -3.6960    3.2560 c3        1 PNE     -0.029300
     12 C1L         4.8050   -2.3470    3.7030 c3        1 PNE     -0.083100
     13 C13         5.3100   -4.7980    3.6010 c         1 PNE      0.909600
     14 O7          5.0390   -5.6670    4.4780 o         1 PNE     -0.844300
     15 O8          6.3980   -4.7450    2.9630 o         1 PNE     -0.844300
     16 C1         -5.5990   -3.2450    5.2410 ca        1 PNE      0.343100
     17 C2         -5.8470   -2.2550    6.2340 ca        1 PNE     -0.227500
     18 C6         -6.7150   -3.8880    4.6360 ca        1 PNE     -0.227500
     19 C4         -8.2300   -2.6110    6.0170 ca        1 PNE     -0.278200
     20 C5         -8.0040   -3.5770    5.0130 ca        1 PNE     -0.038000
     21 C3         -7.1370   -1.9430    6.6110 ca        1 PNE     -0.038000
     22 N1         -9.5970   -2.2990    6.4380 no        1 PNE      0.327200
     23 O4         -9.7900   -1.4730    7.2990 o         1 PNE     -0.265500
     24 O5        -10.5310   -2.8730    5.9280 o         1 PNE     -0.265500
     25 HC81       -1.8760   -4.2440    5.1940 hc        1 PNE      0.076700
     26 HC82       -2.1800   -4.8080    3.5240 hc        1 PNE      0.076700
     27 HC91       -0.7920   -2.9680    2.5970 hc        1 PNE      0.066700
     28 HC92       -0.5730   -2.2780    4.2540 hc        1 PNE      0.066700
     29 H101        0.6250   -4.3230    4.9910 hc        1 PNE      0.048700
     30 H102        0.3070   -5.1290    3.4010 hc        1 PNE      0.048700
     31 HN2         2.9520   -4.7250    4.4980 hn        1 PNE      0.324500
     32 H12         4.1450   -3.6700    2.1310 h1        1 PNE      0.050700
     33 H1L1        5.8160   -2.2240    3.2460 hc        1 PNE      0.025700
     34 H1L2        4.1430   -1.5130    3.3680 hc        1 PNE      0.025700
     35 H1L3        4.9060   -2.3020    4.8130 hc        1 PNE      0.025700
     36 HC2        -4.9880   -1.7210    6.6730 ha        1 PNE      0.164000
     37 HC6        -6.5220   -4.6280    3.8460 ha        1 PNE      0.164000
     38 HC5        -8.8610   -4.0790    4.5360 ha        1 PNE      0.141500
     39 HC3        -7.3190   -1.1740    7.3790 ha        1 PNE      0.141500
@<TRIPOS>BOND
     1    1    2 1   
     2    1    3 1   
     3    1    4 1   
     4    1    5 1   
     5    2   16 1   
     6    5    6 1   
     7    5   25 1   
     8    5   26 1   
     9    6    7 1   
    10    6   27 1   
    11    6   28 1   
    12    7    8 1   
    13    7   29 1   
    14    7   30 1   
    15    8    9 1   
    16    8   10 2   
    17    9   11 1   
    18    9   31 1   
    19   11   12 1   
    20   11   13 1   
    21   11   32 1   
    22   12   33 1   
    23   12   34 1   
    24   12   35 1   
    25   13   14 1   
    26   13   15 1   
    27   16   17 ar  
    28   16   18 ar  
    29   17   21 ar  
    30   17   36 1   
    31   18   20 ar  
    32   18   37 1   
    33   19   20 ar  
    34   19   21 ar  
    35   19   22 1   
    36   20   38 1   
    37   21   39 1   
    38   22   23 1   
    39   22   24 1   
@<TRIPOS>SUBSTRUCTURE
     1 PNE         1 TEMP              0 ****  ****    0 ROOT
