@<TRIPOS>MOLECULE
PNE
   40    40     1     0     0
SMALL
bcc


@<TRIPOS>ATOM
      1 P1          0.3230   -0.3210   -2.0550 p5        1 PNE      1.400600
      2 O1          0.6560   -0.1390   -0.4010 os        1 PNE     -0.504500
      3 O2          0.2840    1.0460   -2.5840 o         1 PNE     -0.859000
      4 O3          1.2620   -1.3760   -2.5160 o         1 PNE     -0.859000
      5 C8         -1.2130   -1.0080   -1.9420 c3        1 PNE     -0.356600
      6 C9         -1.1740   -2.3530   -1.2710 c3        1 PNE     -0.039400
      7 C10        -0.9610   -3.5370   -2.2090 c3        1 PNE     -0.139400
      8 C11         0.4520   -4.0550   -2.1060 c         1 PNE      0.586100
      9 N2          1.3100   -4.0320   -3.3170 ny        1 PNE     -0.656800
     10 O6          0.9510   -4.5150   -1.0800 o         1 PNE     -0.491100
     11 C12         0.6810   -4.6710   -4.5150 c3        1 PNE     -0.044500
     12 C1L         0.4790   -3.6950   -5.6560 c3        1 PNE     -0.099100
     13 C13         1.5610   -5.8960   -5.0300 c         1 PNE      0.929600
     14 O7          1.0470   -6.5580   -5.9560 o         1 PNE     -0.782300
     15 O8          2.6600   -6.0810   -4.4470 o         1 PNE     -0.782300
     16 C1          1.7520    0.4700    0.0700 ca        1 PNE      0.285100
     17 C2          2.8540   -0.3100    0.4960 ca        1 PNE     -0.198500
     18 C6          1.7780    1.8710    0.2690 ca        1 PNE     -0.198500
     19 C4          3.9530    1.6820    1.3020 ca        1 PNE     -0.239200
     20 C5          2.8690    2.4710    0.8740 ca        1 PNE     -0.045500
     21 C3          3.9450    0.2890    1.1030 ca        1 PNE     -0.045500
     22 N1          5.1060    2.3200    1.9650 no        1 PNE      0.321200
     23 O4          6.0330    1.6420    2.3300 o         1 PNE     -0.240500
     24 O5          5.1050    3.5140    2.1390 o         1 PNE     -0.240500
     25 HC81       -1.6770   -1.0810   -2.9560 hc        1 PNE      0.082700
     26 HC82       -1.8810   -0.3320   -1.3500 hc        1 PNE      0.082700
     27 HC91       -2.1430   -2.5310   -0.7310 hc        1 PNE      0.057700
     28 HC92       -0.3620   -2.3350   -0.4910 hc        1 PNE      0.057700
     29 H101       -1.6300   -4.3870   -1.9030 hc        1 PNE      0.076700
     30 H102       -1.2220   -3.2580   -3.2630 hc        1 PNE      0.076700
     31 HN2         2.1940   -4.5510   -3.1270 hn        1 PNE      0.497800
     32 H12        -0.3110   -5.1070   -4.2090 hx        1 PNE      0.069700
     33 H1L1       -0.2570   -2.8980   -5.3930 hc        1 PNE      0.053367
     34 H1L2        0.0970   -4.2800   -6.5300 hc        1 PNE      0.053367
     35 H1L3        1.4410   -3.2110   -5.9520 hc        1 PNE      0.053367
     36 HC2         2.8340   -1.3970    0.3290 ha        1 PNE      0.162500
     37 HC6         0.9320    2.4790   -0.0870 ha        1 PNE      0.162500
     38 HC5         2.8900    3.5640    1.0220 ha        1 PNE      0.155500
     39 HC3         4.8030   -0.3210    1.4300 ha        1 PNE      0.155500
     40 H22         1.5520   -3.0380   -3.5100 hn        1 PNE      0.497800
@<TRIPOS>BOND
     1    1    2 1   
     2    1    3 1   
     3    1    4 1   
     4    1    5 1   
     5    2   16 1   
     6    5    6 1   
     7    5   25 1   
     8    5   26 1   
     9    6    7 1   
    10    6   27 1   
    11    6   28 1   
    12    7    8 1   
    13    7   29 1   
    14    7   30 1   
    15    8    9 1   
    16    8   10 2   
    17    9   11 1   
    18    9   31 1   
    19    9   40 1   
    20   11   12 1   
    21   11   13 1   
    22   11   32 1   
    23   12   33 1   
    24   12   34 1   
    25   12   35 1   
    26   13   14 1   
    27   13   15 1   
    28   16   17 ar  
    29   16   18 ar  
    30   17   21 ar  
    31   17   36 1   
    32   18   20 ar  
    33   18   37 1   
    34   19   20 ar  
    35   19   21 ar  
    36   19   22 1   
    37   20   38 1   
    38   21   39 1   
    39   22   23 1   
    40   22   24 1   
@<TRIPOS>SUBSTRUCTURE
     1 PNE         1 TEMP              0 ****  ****    0 ROOT
