@<TRIPOS>MOLECULE
PNE
   39    39     1     0     0
SMALL
bcc


@<TRIPOS>ATOM
      1 P1          1.3430    0.0970   -1.5550 p5        1 PNE      1.366600
      2 O1          1.6950    0.4520    0.1170 os        1 PNE     -0.476500
      3 O2          0.3470    1.1280   -1.8870 o         1 PNE     -0.832500
      4 O3          2.7000    0.0480   -2.1240 o         1 PNE     -0.832500
      5 C8          0.6680   -1.4070   -1.2860 c3        1 PNE     -0.356600
      6 C9          0.5760   -2.1210   -2.6070 c3        1 PNE     -0.061400
      7 C10         0.0810   -3.5400   -2.4420 c3        1 PNE     -0.141400
      8 C11        -0.1850   -4.2240   -3.7770 c         1 PNE      0.644100
      9 N2         -0.1350   -5.5930   -3.7870 n         1 PNE     -0.537900
     10 O6         -0.4390   -3.5570   -4.8070 o         1 PNE     -0.658100
     11 C12        -0.5360   -6.4080   -4.9130 c3        1 PNE     -0.029300
     12 C1L         0.5730   -6.5950   -5.9450 c3        1 PNE     -0.083100
     13 C13        -1.0300   -7.8290   -4.4690 c         1 PNE      0.909600
     14 O7         -0.8300   -8.2120   -3.2810 o         1 PNE     -0.844300
     15 O8         -1.6130   -8.5180   -5.3510 o         1 PNE     -0.844300
     16 C1          2.2990    1.5400    0.5550 ca        1 PNE      0.343100
     17 C2          3.7060    1.7260    0.4430 ca        1 PNE     -0.227500
     18 C6          1.5440    2.5100    1.2730 ca        1 PNE     -0.227500
     19 C4          3.5600    3.7470    1.7640 ca        1 PNE     -0.278200
     20 C5          2.1610    3.5930    1.8650 ca        1 PNE     -0.038000
     21 C3          4.3220    2.8100    1.0340 ca        1 PNE     -0.038000
     22 N1          4.2190    4.8820    2.4130 no        1 PNE      0.327200
     23 O4          5.4180    5.0140    2.3290 o         1 PNE     -0.265500
     24 O5          3.5640    5.6830    3.0390 o         1 PNE     -0.265500
     25 HC81       -0.3470   -1.3200   -0.8260 hc        1 PNE      0.076700
     26 HC82        1.2850   -2.0050   -0.5710 hc        1 PNE      0.076700
     27 HC91       -0.1150   -1.5550   -3.2880 hc        1 PNE      0.066700
     28 HC92        1.5910   -2.1190   -3.0890 hc        1 PNE      0.066700
     29 H101       -0.8870   -3.5370   -1.8730 hc        1 PNE      0.048700
     30 H102        0.8260   -4.1220   -1.8390 hc        1 PNE      0.048700
     31 HN2        -0.0380   -6.0930   -2.9290 hn        1 PNE      0.324500
     32 H12        -1.4020   -5.8970   -5.4280 h1        1 PNE      0.050700
     33 H1L1        0.8750   -5.6150   -6.3860 hc        1 PNE      0.025700
     34 H1L2        0.1830   -7.2610   -6.7520 hc        1 PNE      0.025700
     35 H1L3        1.4700   -7.0750   -5.4880 hc        1 PNE      0.025700
     36 HC2         4.2880    1.0020   -0.1510 ha        1 PNE      0.164000
     37 HC6         0.4540    2.3820    1.3300 ha        1 PNE      0.164000
     38 HC5         1.5670    4.3400    2.4160 ha        1 PNE      0.141500
     39 HC3         5.4120    2.9470    0.9400 ha        1 PNE      0.141500
@<TRIPOS>BOND
     1    1    2 1   
     2    1    3 1   
     3    1    4 1   
     4    1    5 1   
     5    2   16 1   
     6    5    6 1   
     7    5   25 1   
     8    5   26 1   
     9    6    7 1   
    10    6   27 1   
    11    6   28 1   
    12    7    8 1   
    13    7   29 1   
    14    7   30 1   
    15    8    9 1   
    16    8   10 2   
    17    9   11 1   
    18    9   31 1   
    19   11   12 1   
    20   11   13 1   
    21   11   32 1   
    22   12   33 1   
    23   12   34 1   
    24   12   35 1   
    25   13   14 1   
    26   13   15 1   
    27   16   17 ar  
    28   16   18 ar  
    29   17   21 ar  
    30   17   36 1   
    31   18   20 ar  
    32   18   37 1   
    33   19   20 ar  
    34   19   21 ar  
    35   19   22 1   
    36   20   38 1   
    37   21   39 1   
    38   22   23 1   
    39   22   24 1   
@<TRIPOS>SUBSTRUCTURE
     1 PNE         1 TEMP              0 ****  ****    0 ROOT
