@<TRIPOS>MOLECULE
PNE
   40    40     1     0     0
SMALL
bcc


@<TRIPOS>ATOM
      1 P1         -0.1890   -0.3130   -1.5750 p5        1 PNE      1.398600
      2 O1          0.7540   -0.3680   -0.1610 os        1 PNE     -0.502500
      3 O2         -0.6370    1.0810   -1.6650 o         1 PNE     -0.860500
      4 O3          0.6500   -0.9930   -2.5950 o         1 PNE     -0.860500
      5 C8         -1.4230   -1.3600   -1.1090 c3        1 PNE     -0.367600
      6 C9         -0.9140   -2.7690   -0.9650 c3        1 PNE     -0.040400
      7 C10        -1.3810   -3.7280   -2.0440 c3        1 PNE     -0.168400
      8 C11        -0.9100   -3.3680   -3.4260 c         1 PNE      0.597100
      9 N2          0.5610   -3.4310   -3.6680 n4        1 PNE     -0.632800
     10 O6         -1.6310   -3.0540   -4.3700 o         1 PNE     -0.502100
     11 C12         0.9330   -4.5040   -4.6420 c3        1 PNE     -0.042500
     12 C1L         2.2970   -4.2570   -5.2530 c3        1 PNE     -0.100100
     13 C13         0.9260   -5.9300   -3.9440 c         1 PNE      0.926600
     14 O7          1.1090   -6.8980   -4.7100 o         1 PNE     -0.794300
     15 O8          0.7280   -5.9490   -2.7000 o         1 PNE     -0.794300
     16 C1          1.8330    0.3970    0.0400 ca        1 PNE      0.291100
     17 C2          3.1210   -0.1610   -0.1410 ca        1 PNE     -0.201000
     18 C6          1.7160    1.7130    0.5490 ca        1 PNE     -0.201000
     19 C4          4.1230    1.8740    0.6870 ca        1 PNE     -0.241200
     20 C5          2.8480    2.4450    0.8640 ca        1 PNE     -0.044000
     21 C3          4.2550    0.5690    0.1750 ca        1 PNE     -0.044000
     22 N1          5.3270    2.6470    1.0370 no        1 PNE      0.321200
     23 O4          6.4180    2.1570    0.8760 o         1 PNE     -0.242000
     24 O5          5.2100    3.7610    1.4860 o         1 PNE     -0.242000
     25 HC81       -1.8590   -1.0220   -0.1360 hc        1 PNE      0.086700
     26 HC82       -2.2610   -1.3150   -1.8480 hc        1 PNE      0.086700
     27 HC91       -1.2600   -3.2070    0.0130 hc        1 PNE      0.057200
     28 HC92        0.2110   -2.7520   -0.9270 hc        1 PNE      0.057200
     29 H101       -2.5030   -3.7570   -2.0710 hc        1 PNE      0.107700
     30 H102       -0.9960   -4.7680   -1.8160 hc        1 PNE      0.107700
     31 HN2         0.8860   -2.4960   -3.9760 hn        1 PNE      0.482300
     32 H12         0.1490   -4.5140   -5.4520 hx        1 PNE      0.089700
     33 H1L1        3.0890   -4.1890   -4.4680 hc        1 PNE      0.052700
     34 H1L2        2.5280   -5.1330   -5.9100 hc        1 PNE      0.052700
     35 H1L3        2.3140   -3.3230   -5.8650 hc        1 PNE      0.052700
     36 HC2         3.2080   -1.1800   -0.5440 ha        1 PNE      0.161000
     37 HC6         0.7150    2.1570    0.6650 ha        1 PNE      0.161000
     38 HC5         2.7540    3.4720    1.2550 ha        1 PNE      0.154000
     39 HC3         5.2560    0.1310    0.0300 ha        1 PNE      0.154000
     40 H22         1.0220   -3.6470   -2.7720 hn        1 PNE      0.482300
@<TRIPOS>BOND
     1    1    2 1   
     2    1    3 1   
     3    1    4 1   
     4    1    5 1   
     5    2   16 1   
     6    5    6 1   
     7    5   25 1   
     8    5   26 1   
     9    6    7 1   
    10    6   27 1   
    11    6   28 1   
    12    7    8 1   
    13    7   29 1   
    14    7   30 1   
    15    8    9 1   
    16    8   10 2   
    17    9   11 1   
    18    9   31 1   
    19    9   40 1   
    20   11   12 1   
    21   11   13 1   
    22   11   32 1   
    23   12   33 1   
    24   12   34 1   
    25   12   35 1   
    26   13   14 1   
    27   13   15 1   
    28   16   17 ar  
    29   16   18 ar  
    30   17   21 ar  
    31   17   36 1   
    32   18   20 ar  
    33   18   37 1   
    34   19   20 ar  
    35   19   21 ar  
    36   19   22 1   
    37   20   38 1   
    38   21   39 1   
    39   22   23 1   
    40   22   24 1   
@<TRIPOS>SUBSTRUCTURE
     1 PNE         1 TEMP              0 ****  ****    0 ROOT
