@<TRIPOS>MOLECULE
PNF
   49    49     1     0     0
SMALL
bcc


@<TRIPOS>ATOM
      1 C1         -0.8010   -1.3250   -1.3340 ca        1 PNF      0.297100
      2 C2          0.2160   -1.2540   -2.3180 ca        1 PNF     -0.204500
      3 C3          1.3750   -0.5370   -2.0800 ca        1 PNF     -0.044000
      4 C4          1.5440    0.1320   -0.8520 ca        1 PNF     -0.247200
      5 C5          0.5470    0.0600    0.1410 ca        1 PNF     -0.044000
      6 C6         -0.6120   -0.6570   -0.1000 ca        1 PNF     -0.204500
      7 P1         -2.3050   -3.5470   -1.2330 p5        1 PNF      1.354600
      8 O1         -1.9630   -1.9170   -1.6170 os        1 PNF     -0.495500
      9 O2         -1.4280   -4.3300   -2.1250 o         1 PNF     -0.833500
     10 O3         -2.2660   -3.5940    0.2360 o         1 PNF     -0.833500
     11 C8         -3.9060   -3.5770   -1.7970 c3        1 PNF     -0.345600
     12 C9         -3.9560   -4.5990   -2.8900 c3        1 PNF     -0.061400
     13 C10        -5.3470   -4.8020   -3.4540 c3        1 PNF     -0.156400
     14 C11        -5.3830   -6.0280   -4.3240 c         1 PNF      0.558100
     15 N2         -4.6800   -5.9510   -5.6310 ny        1 PNF     -0.705800
     16 O6         -5.9450   -7.0860   -4.0510 o         1 PNF     -0.480100
     17 C12        -3.3090   -6.5350   -5.5770 c3        1 PNF      0.122800
     18 C13        -2.4650   -6.1720   -6.7940 c3        1 PNF     -0.107400
     19 C14        -2.7760   -7.0080   -8.0230 c3        1 PNF     -0.089400
     20 C15        -2.7120   -6.1870   -9.3020 c3        1 PNF     -0.057400
     21 C16        -4.0480   -5.5940   -9.7150 c3        1 PNF     -0.171400
     22 C17        -4.8990   -5.2730   -8.5020 c         1 PNF      0.902600
     23 O7         -5.8000   -6.1010   -8.1390 o         1 PNF     -0.864300
     24 O8         -4.6620   -4.2430   -7.7950 o         1 PNF     -0.864300
     25 N1          2.7690    0.9080   -0.6040 no        1 PNF      0.322200
     26 O4          2.9070    1.4860    0.4470 o         1 PNF     -0.246000
     27 O5          3.6230    0.9650   -1.4550 o         1 PNF     -0.246000
     28 H21         0.0750   -1.7920   -3.2680 ha        1 PNF      0.162000
     29 H31         2.1660   -0.4870   -2.8470 ha        1 PNF      0.151000
     30 H51         0.6920    0.5740    1.1050 ha        1 PNF      0.151000
     31 H61        -1.3910   -0.7370    0.6740 ha        1 PNF      0.162000
     32 H81        -4.2200   -2.5740   -2.1770 hc        1 PNF      0.086700
     33 H82        -4.6060   -3.8350   -0.9660 hc        1 PNF      0.086700
     34 H91        -3.2450   -4.2720   -3.6980 hc        1 PNF      0.068700
     35 H92        -3.5610   -5.5700   -2.4820 hc        1 PNF      0.068700
     36 H101       -5.6680   -3.9010   -4.0400 hc        1 PNF      0.092700
     37 H102       -6.0840   -4.9550   -2.6190 hc        1 PNF      0.092700
     38 HN21       -4.6270   -4.9600   -5.9710 hn        1 PNF      0.507800
     39 H121       -2.7960   -6.1450   -4.6480 hx        1 PNF      0.091200
     40 H122       -3.4190   -7.6520   -5.4900 hx        1 PNF      0.091200
     41 H131       -2.5990   -5.0780   -7.0340 hc        1 PNF      0.084700
     42 H132       -1.3920   -6.3170   -6.4990 hc        1 PNF      0.084700
     43 H141       -2.0360   -7.8490   -8.0870 hc        1 PNF      0.046700
     44 H142       -3.7950   -7.4730   -7.9380 hc        1 PNF      0.046700
     45 H151       -1.9620   -5.3620   -9.1780 hc        1 PNF      0.032700
     46 H152       -2.3410   -6.8440  -10.1330 hc        1 PNF      0.032700
     47 H161       -3.8780   -4.6620  -10.3090 hc        1 PNF      0.046700
     48 H162       -4.6040   -6.3250  -10.3570 hc        1 PNF      0.046700
     49 H22        -5.2430   -6.4470   -6.3720 hn        1 PNF      0.507800
@<TRIPOS>BOND
     1    1    2 ar  
     2    1    6 ar  
     3    1    8 1   
     4    2    3 ar  
     5    2   28 1   
     6    3    4 ar  
     7    3   29 1   
     8    4    5 ar  
     9    4   25 1   
    10    5    6 ar  
    11    5   30 1   
    12    6   31 1   
    13    7    8 1   
    14    7    9 1   
    15    7   10 1   
    16    7   11 1   
    17   11   12 1   
    18   11   32 1   
    19   11   33 1   
    20   12   13 1   
    21   12   34 1   
    22   12   35 1   
    23   13   14 1   
    24   13   36 1   
    25   13   37 1   
    26   14   15 1   
    27   14   16 2   
    28   15   17 1   
    29   15   38 1   
    30   15   49 1   
    31   17   18 1   
    32   17   39 1   
    33   17   40 1   
    34   18   19 1   
    35   18   41 1   
    36   18   42 1   
    37   19   20 1   
    38   19   43 1   
    39   19   44 1   
    40   20   21 1   
    41   20   45 1   
    42   20   46 1   
    43   21   22 1   
    44   21   47 1   
    45   21   48 1   
    46   22   23 1   
    47   22   24 1   
    48   25   26 1   
    49   25   27 1   
@<TRIPOS>SUBSTRUCTURE
     1 PNF         1 TEMP              0 ****  ****    0 ROOT
