@<TRIPOS>MOLECULE
PNF
   48    48     1     0     0
SMALL
bcc


@<TRIPOS>ATOM
      1 C1          0.5950   -0.0270   -4.6110 ca        1 PNF      0.323100
      2 C2          1.1840    1.2420   -4.8550 ca        1 PNF     -0.216000
      3 C3          1.2030    1.7770   -6.1290 ca        1 PNF     -0.041500
      4 C4          0.6370    1.0570   -7.2010 ca        1 PNF     -0.264200
      5 C5          0.0250   -0.1920   -6.9720 ca        1 PNF     -0.041500
      6 C6          0.0070   -0.7260   -5.6980 ca        1 PNF     -0.216000
      7 P1         -0.5080   -0.4670   -2.1830 p5        1 PNF      1.358600
      8 O1          0.6980   -0.5930   -3.4160 os        1 PNF     -0.484500
      9 O2         -0.4340    0.9490   -1.7860 o         1 PNF     -0.831500
     10 O3         -1.6810   -1.0960   -2.8120 o         1 PNF     -0.831500
     11 C8          0.2390   -1.4820   -1.0740 c3        1 PNF     -0.349600
     12 C9         -0.3710   -1.2030    0.2710 c3        1 PNF     -0.065400
     13 C10         0.2840   -2.0200    1.3610 c3        1 PNF     -0.145400
     14 C11        -0.4030   -1.8760    2.7080 c         1 PNF      0.657100
     15 N2         -0.4000   -0.6340    3.3020 n         1 PNF     -0.567900
     16 O6         -0.9470   -2.8610    3.2540 o         1 PNF     -0.639100
     17 C12        -0.9160   -0.3890    4.6210 c3        1 PNF      0.085000
     18 C13         0.1260    0.0960    5.6320 c3        1 PNF     -0.100400
     19 C14        -0.5300    0.3510    6.9720 c3        1 PNF     -0.077400
     20 C15         0.4770    0.7940    8.0140 c3        1 PNF     -0.064400
     21 C16        -0.1710    1.0100    9.3610 c3        1 PNF     -0.191400
     22 C17         0.8150    1.5940   10.3850 c         1 PNF      0.907600
     23 O7          1.5630    2.5530   10.0340 o         1 PNF     -0.857300
     24 O8          0.8150    1.1000   11.5500 o         1 PNF     -0.857300
     25 N1          0.6810    1.6120   -8.5590 no        1 PNF      0.325200
     26 O4          0.1990    0.9920   -9.4770 o         1 PNF     -0.258000
     27 O5          1.2070    2.6810   -8.7560 o         1 PNF     -0.258000
     28 H21         1.6040    1.7990   -4.0040 ha        1 PNF      0.163000
     29 H31         1.6590    2.7640   -6.3110 ha        1 PNF      0.145500
     30 H51        -0.4370   -0.7390   -7.8100 ha        1 PNF      0.145500
     31 H61        -0.4880   -1.6890   -5.4980 ha        1 PNF      0.163000
     32 H81         1.3420   -1.3060   -1.0430 hc        1 PNF      0.078200
     33 H82         0.0980   -2.5550   -1.3500 hc        1 PNF      0.078200
     34 H91        -1.4680   -1.4380    0.2210 hc        1 PNF      0.062200
     35 H92        -0.2730   -0.1020    0.4800 hc        1 PNF      0.062200
     36 H101        1.3610   -1.7250    1.4630 hc        1 PNF      0.061200
     37 H102        0.2520   -3.1070    1.0860 hc        1 PNF      0.061200
     38 HN21        0.0760    0.1100    2.8520 hn        1 PNF      0.311500
     39 H121       -1.3870   -1.3380    5.0070 h1        1 PNF      0.053700
     40 H122       -1.7270    0.3930    4.5400 h1        1 PNF      0.053700
     41 H131        0.6120    1.0380    5.2670 hc        1 PNF      0.040700
     42 H132        0.9330   -0.6730    5.7490 hc        1 PNF      0.040700
     43 H141       -1.0430   -0.5840    7.3220 hc        1 PNF      0.028200
     44 H142       -1.3210    1.1380    6.8590 hc        1 PNF      0.028200
     45 H151        0.9720    1.7490    7.6940 hc        1 PNF      0.043200
     46 H152        1.2830    0.0210    8.1080 hc        1 PNF      0.043200
     47 H161       -0.5800    0.0450    9.7520 hc        1 PNF      0.018700
     48 H162       -1.0240    1.7290    9.2610 hc        1 PNF      0.018700
@<TRIPOS>BOND
     1    1    2 ar  
     2    1    6 ar  
     3    1    8 1   
     4    2    3 ar  
     5    2   28 1   
     6    3    4 ar  
     7    3   29 1   
     8    4    5 ar  
     9    4   25 1   
    10    5    6 ar  
    11    5   30 1   
    12    6   31 1   
    13    7    8 1   
    14    7    9 1   
    15    7   10 1   
    16    7   11 1   
    17   11   12 1   
    18   11   32 1   
    19   11   33 1   
    20   12   13 1   
    21   12   34 1   
    22   12   35 1   
    23   13   14 1   
    24   13   36 1   
    25   13   37 1   
    26   14   15 1   
    27   14   16 2   
    28   15   17 1   
    29   15   38 1   
    30   17   18 1   
    31   17   39 1   
    32   17   40 1   
    33   18   19 1   
    34   18   41 1   
    35   18   42 1   
    36   19   20 1   
    37   19   43 1   
    38   19   44 1   
    39   20   21 1   
    40   20   45 1   
    41   20   46 1   
    42   21   22 1   
    43   21   47 1   
    44   21   48 1   
    45   22   23 1   
    46   22   24 1   
    47   25   26 1   
    48   25   27 1   
@<TRIPOS>SUBSTRUCTURE
     1 PNF         1 TEMP              0 ****  ****    0 ROOT
