@<TRIPOS>MOLECULE
PNF
   48    48     1     0     0
SMALL
bcc


@<TRIPOS>ATOM
      1 C1         -0.1430   -0.6070   -0.2080 ca        1 PNF      0.323100
      2 C2          0.8970    0.0430   -0.9250 ca        1 PNF     -0.216000
      3 C3          1.8970    0.7200   -0.2560 ca        1 PNF     -0.041500
      4 C4          1.8880    0.7740    1.1530 ca        1 PNF     -0.264200
      5 C5          0.8780    0.1120    1.8810 ca        1 PNF     -0.041500
      6 C6         -0.1220   -0.5650    1.2110 ca        1 PNF     -0.216000
      7 P1         -1.2620   -2.8060   -1.3110 p5        1 PNF      1.358600
      8 O1         -1.1700   -1.1400   -0.8560 os        1 PNF     -0.484500
      9 O2         -0.2310   -2.9250   -2.3560 o         1 PNF     -0.831500
     10 O3         -1.2180   -3.4990   -0.0130 o         1 PNF     -0.831500
     11 C8         -2.8140   -2.7480   -1.9490 c3        1 PNF     -0.349600
     12 C9         -2.9830   -3.9580   -2.8250 c3        1 PNF     -0.065400
     13 C10        -4.3310   -3.9680   -3.5090 c3        1 PNF     -0.145400
     14 C11        -4.5980   -5.2460   -4.2840 c         1 PNF      0.657100
     15 N2         -3.7810   -5.5310   -5.3550 n         1 PNF     -0.567900
     16 O6         -5.5340   -6.0080   -3.9550 o         1 PNF     -0.639100
     17 C12        -3.9940   -6.6470   -6.2360 c3        1 PNF      0.085000
     18 C13        -4.2910   -6.2640   -7.6870 c3        1 PNF     -0.100400
     19 C14        -4.4660   -7.5110   -8.5280 c3        1 PNF     -0.077400
     20 C15        -4.8030   -7.1760   -9.9670 c3        1 PNF     -0.064400
     21 C16        -5.0170   -8.4200  -10.7950 c3        1 PNF     -0.191400
     22 C17        -5.2190   -8.0900  -12.2830 c         1 PNF      0.907600
     23 O7         -4.4450   -7.2540  -12.8330 o         1 PNF     -0.857300
     24 O8         -6.1440   -8.6960  -12.9000 o         1 PNF     -0.857300
     25 N1          2.9350    1.5170    1.8650 no        1 PNF      0.325200
     26 O4          2.9240    1.5650    3.0720 o         1 PNF     -0.258000
     27 O5          3.8000    2.0850    1.2400 o         1 PNF     -0.258000
     28 H21         0.8990   -0.0250   -2.0230 ha        1 PNF      0.163000
     29 H31         2.7030    1.2200   -0.8180 ha        1 PNF      0.145500
     30 H51         0.8900    0.1380    2.9830 ha        1 PNF      0.145500
     31 H61        -0.9040   -1.1070    1.7660 ha        1 PNF      0.163000
     32 H81        -3.5830   -2.7440   -1.1390 hc        1 PNF      0.078200
     33 H82        -2.9730   -1.8150   -2.5430 hc        1 PNF      0.078200
     34 H91        -2.8680   -4.8780   -2.1900 hc        1 PNF      0.061700
     35 H92        -2.1500   -3.9650   -3.5800 hc        1 PNF      0.061700
     36 H101       -5.1430   -3.8700   -2.7400 hc        1 PNF      0.061200
     37 H102       -4.4120   -3.0910   -4.2040 hc        1 PNF      0.061200
     38 HN21       -3.0760   -4.8800   -5.6050 hn        1 PNF      0.311500
     39 H121       -3.0660   -7.2890   -6.2180 h1        1 PNF      0.053700
     40 H122       -4.8500   -7.2630   -5.8360 h1        1 PNF      0.053700
     41 H131       -5.2230   -5.6440   -7.7370 hc        1 PNF      0.040700
     42 H132       -3.4550   -5.6460   -8.1050 hc        1 PNF      0.040700
     43 H141       -5.2830   -8.1450   -8.0910 hc        1 PNF      0.028200
     44 H142       -3.5250   -8.1200   -8.4960 hc        1 PNF      0.028200
     45 H151       -3.9770   -6.5720  -10.4280 hc        1 PNF      0.043200
     46 H152       -5.7290   -6.5430   -9.9970 hc        1 PNF      0.043200
     47 H161       -4.1240   -9.0900  -10.7120 hc        1 PNF      0.018700
     48 H162       -5.9060   -8.9860  -10.4190 hc        1 PNF      0.018700
@<TRIPOS>BOND
     1    1    2 ar  
     2    1    6 ar  
     3    1    8 1   
     4    2    3 ar  
     5    2   28 1   
     6    3    4 ar  
     7    3   29 1   
     8    4    5 ar  
     9    4   25 1   
    10    5    6 ar  
    11    5   30 1   
    12    6   31 1   
    13    7    8 1   
    14    7    9 1   
    15    7   10 1   
    16    7   11 1   
    17   11   12 1   
    18   11   32 1   
    19   11   33 1   
    20   12   13 1   
    21   12   34 1   
    22   12   35 1   
    23   13   14 1   
    24   13   36 1   
    25   13   37 1   
    26   14   15 1   
    27   14   16 2   
    28   15   17 1   
    29   15   38 1   
    30   17   18 1   
    31   17   39 1   
    32   17   40 1   
    33   18   19 1   
    34   18   41 1   
    35   18   42 1   
    36   19   20 1   
    37   19   43 1   
    38   19   44 1   
    39   20   21 1   
    40   20   45 1   
    41   20   46 1   
    42   21   22 1   
    43   21   47 1   
    44   21   48 1   
    45   22   23 1   
    46   22   24 1   
    47   25   26 1   
    48   25   27 1   
@<TRIPOS>SUBSTRUCTURE
     1 PNF         1 TEMP              0 ****  ****    0 ROOT
