@<TRIPOS>MOLECULE
PNF
   49    49     1     0     0
SMALL
bcc


@<TRIPOS>ATOM
      1 C1         -0.6960   -1.3130   -1.4020 ca        1 PNF      0.297100
      2 C2          0.2870   -0.6210   -0.6530 ca        1 PNF     -0.204000
      3 C3         -0.0580    0.0560    0.5030 ca        1 PNF     -0.044000
      4 C4         -1.3990    0.0650    0.9350 ca        1 PNF     -0.247200
      5 C5         -2.3860   -0.6280    0.2070 ca        1 PNF     -0.044000
      6 C6         -2.0380   -1.3050   -0.9480 ca        1 PNF     -0.204000
      7 P1          0.1710   -3.4720   -2.7420 p5        1 PNF      1.354600
      8 O1         -0.3920   -1.8660   -2.5770 os        1 PNF     -0.495500
      9 O2          1.4590   -3.4850   -2.0330 o         1 PNF     -0.833500
     10 O3         -0.9930   -4.3090   -2.3910 o         1 PNF     -0.833500
     11 C8          0.4060   -3.4540   -4.4230 c3        1 PNF     -0.345600
     12 C9         -0.4980   -4.5020   -4.9930 c3        1 PNF     -0.061400
     13 C10        -0.3520   -4.6670   -6.4910 c3        1 PNF     -0.156400
     14 C11        -1.0560   -5.9130   -6.9510 c         1 PNF      0.558100
     15 N2         -2.5420   -5.8980   -6.9280 n4        1 PNF     -0.705800
     16 O6         -0.5120   -6.9410   -7.3470 o         1 PNF     -0.480100
     17 C12        -3.1000   -6.5330   -5.6990 c3        1 PNF      0.122800
     18 C13        -4.5830   -6.2350   -5.5040 c3        1 PNF     -0.107400
     19 C14        -5.4960   -7.0910   -6.3640 c3        1 PNF     -0.089400
     20 C15        -6.6940   -6.3090   -6.8790 c3        1 PNF     -0.057400
     21 C16        -6.4700   -5.6780   -8.2430 c3        1 PNF     -0.171400
     22 C17        -5.0160   -5.2920   -8.4320 c         1 PNF      0.902600
     23 O7         -4.2450   -6.0750   -9.0810 o         1 PNF     -0.864300
     24 O8         -4.5410   -4.2520   -7.8740 o         1 PNF     -0.864300
     25 N1         -1.7700    0.8000    2.1550 no        1 PNF      0.322200
     26 O4         -2.9190    0.8020    2.5250 o         1 PNF     -0.246000
     27 O5         -0.9240    1.3980    2.7730 o         1 PNF     -0.246000
     28 H21         1.3340   -0.6510   -0.9920 ha        1 PNF      0.162000
     29 H31         0.7110    0.5890    1.0860 ha        1 PNF      0.151000
     30 H51        -3.4310   -0.6280    0.5590 ha        1 PNF      0.151000
     31 H61        -2.7950   -1.8610   -1.5210 ha        1 PNF      0.162000
     32 H81         1.4750   -3.6620   -4.6680 hc        1 PNF      0.086700
     33 H82         0.1700   -2.4500   -4.8540 hc        1 PNF      0.086700
     34 H91        -1.5560   -4.2250   -4.7260 hc        1 PNF      0.068700
     35 H92        -0.2770   -5.4760   -4.4750 hc        1 PNF      0.068700
     36 H101       -0.7620   -3.7690   -7.0260 hc        1 PNF      0.092700
     37 H102        0.7330   -4.7680   -6.7650 hc        1 PNF      0.092700
     38 HN21       -2.9090   -4.9200   -7.0160 hn        1 PNF      0.507800
     39 H121       -2.9260   -7.6420   -5.7810 hx        1 PNF      0.091200
     40 H122       -2.5280   -6.1380   -4.8080 hx        1 PNF      0.091200
     41 H131       -4.8090   -6.4130   -4.4190 hc        1 PNF      0.084700
     42 H132       -4.7800   -5.1440   -5.7100 hc        1 PNF      0.084700
     43 H141       -4.9320   -7.5150   -7.2390 hc        1 PNF      0.046700
     44 H142       -5.8570   -7.9620   -5.7550 hc        1 PNF      0.046700
     45 H151       -6.9620   -5.5090   -6.1400 hc        1 PNF      0.032700
     46 H152       -7.5740   -7.0010   -6.9470 hc        1 PNF      0.032700
     47 H161       -6.7530   -6.4040   -9.0470 hc        1 PNF      0.046700
     48 H162       -7.1140   -4.7690   -8.3460 hc        1 PNF      0.046700
     49 H22        -2.9200   -6.3920   -7.7800 hn        1 PNF      0.507800
@<TRIPOS>BOND
     1    1    2 ar  
     2    1    6 ar  
     3    1    8 1   
     4    2    3 ar  
     5    2   28 1   
     6    3    4 ar  
     7    3   29 1   
     8    4    5 ar  
     9    4   25 1   
    10    5    6 ar  
    11    5   30 1   
    12    6   31 1   
    13    7    8 1   
    14    7    9 1   
    15    7   10 1   
    16    7   11 1   
    17   11   12 1   
    18   11   32 1   
    19   11   33 1   
    20   12   13 1   
    21   12   34 1   
    22   12   35 1   
    23   13   14 1   
    24   13   36 1   
    25   13   37 1   
    26   14   15 1   
    27   14   16 2   
    28   15   17 1   
    29   15   38 1   
    30   15   49 1   
    31   17   18 1   
    32   17   39 1   
    33   17   40 1   
    34   18   19 1   
    35   18   41 1   
    36   18   42 1   
    37   19   20 1   
    38   19   43 1   
    39   19   44 1   
    40   20   21 1   
    41   20   45 1   
    42   20   46 1   
    43   21   22 1   
    44   21   47 1   
    45   21   48 1   
    46   22   23 1   
    47   22   24 1   
    48   25   26 1   
    49   25   27 1   
@<TRIPOS>SUBSTRUCTURE
     1 PNF         1 TEMP              0 ****  ****    0 ROOT
