@<TRIPOS>MOLECULE
PNG
   36    37     1     0     0
SMALL
bcc


@<TRIPOS>ATOM
      1 C1         -1.2140   -0.6860    0.8460 c3        1 PNG      0.304900
      2 C2         -2.5770   -1.3380    0.5390 c3        1 PNG      0.092100
      3 C3         -3.3690   -0.4970   -0.4710 c3        1 PNG      0.073100
      4 C4         -3.4210    0.9680   -0.0090 c3        1 PNG      0.125100
      5 C5         -1.9840    1.4850    0.1670 c3        1 PNG      0.141100
      6 C6         -1.9800    2.9110    0.7210 c3        1 PNG      0.135400
      7 C7          0.9410   -0.7470   -0.2080 ca        1 PNG      0.170100
      8 C8          1.5880   -0.0860    0.8460 ca        1 PNG     -0.179500
      9 C9          2.9770   -0.0380    0.8730 ca        1 PNG     -0.038500
     10 C10         3.7120   -0.6480   -0.1570 ca        1 PNG     -0.208200
     11 C11         3.0620   -1.2990   -1.2210 ca        1 PNG     -0.038500
     12 C12         1.6760   -1.3520   -1.2460 ca        1 PNG     -0.179500
     13 N1          5.1950   -0.6010   -0.1250 no        1 PNG      0.318200
     14 O1         -0.4310   -0.8230   -0.3420 os        1 PNG     -0.371900
     15 O2         -2.4240   -2.6610    0.0750 oh        1 PNG     -0.586800
     16 O3         -4.7120   -0.9410   -0.5590 oh        1 PNG     -0.603800
     17 O4         -4.0460    1.7810   -0.9850 oh        1 PNG     -0.592800
     18 O5         -1.2960    0.6830    1.1380 os        1 PNG     -0.422600
     19 O6         -0.7370    3.4890    0.3580 oh        1 PNG     -0.596800
     20 O7          5.7420   -0.0510    0.7940 o         1 PNG     -0.211500
     21 O8          5.8130   -1.1160   -1.0190 o         1 PNG     -0.211500
     22 H1         -0.7140   -1.1580    1.7370 h2        1 PNG      0.103700
     23 H2         -3.1560   -1.4350    1.5010 h1        1 PNG      0.106700
     24 H3         -2.8840   -0.5620   -1.4860 h1        1 PNG      0.065700
     25 H4         -3.9870    1.0360    0.9620 h1        1 PNG      0.058700
     26 H5         -1.4280    1.4420   -0.8100 h1        1 PNG      0.092700
     27 H61        -2.0900    2.8970    1.8380 h1        1 PNG      0.048200
     28 H62        -2.8280    3.4810    0.2540 h1        1 PNG      0.048200
     29 H8          1.0020    0.4190    1.6310 ha        1 PNG      0.166500
     30 H9          3.4980    0.4830    1.6960 ha        1 PNG      0.173500
     31 H11         3.6510   -1.7660   -2.0290 ha        1 PNG      0.173500
     32 H12         1.1470   -1.8520   -2.0700 ha        1 PNG      0.166500
     33 HO2        -1.8430   -2.6350   -0.6990 ho        1 PNG      0.420000
     34 HO3        -4.6800   -1.8990   -0.6900 ho        1 PNG      0.425000
     35 HO4        -4.8970    1.3660   -1.1810 ho        1 PNG      0.427000
     36 HO6        -0.7490    4.3940    0.6930 ho        1 PNG      0.405000
@<TRIPOS>BOND
     1    1    2 1   
     2    1   14 1   
     3    1   18 1   
     4    1   22 1   
     5    2    3 1   
     6    2   15 1   
     7    2   23 1   
     8    3    4 1   
     9    3   16 1   
    10    3   24 1   
    11    4    5 1   
    12    4   17 1   
    13    4   25 1   
    14    5    6 1   
    15    5   18 1   
    16    5   26 1   
    17    6   19 1   
    18    6   27 1   
    19    6   28 1   
    20    7    8 ar  
    21    7   12 ar  
    22    7   14 1   
    23    8    9 ar  
    24    8   29 1   
    25    9   10 ar  
    26    9   30 1   
    27   10   11 ar  
    28   10   13 1   
    29   11   12 ar  
    30   11   31 1   
    31   12   32 1   
    32   13   20 1   
    33   13   21 1   
    34   15   33 1   
    35   16   34 1   
    36   17   35 1   
    37   19   36 1   
@<TRIPOS>SUBSTRUCTURE
     1 PNG         1 TEMP              0 ****  ****    0 ROOT
