@<TRIPOS>MOLECULE
PNH
   16    15     1     0     0
SMALL
bcc


@<TRIPOS>ATOM
      1 C1          0.0070    0.0000    0.0430 c3        1 PNH     -0.093100
      2 C3          2.1060    0.0000    1.3890 c3        1 PNH     -0.182400
      3 C4          3.6080   -0.0000    1.3820 c         1 PNH      0.563100
      4 O6          4.2780    0.0000    0.3450 o         1 PNH     -0.530100
      5 C5          4.2420   -0.0000    2.7370 c3        1 PNH     -0.205100
      6 C2          1.5120    0.0000   -0.0020 c3        1 PNH     -0.076400
      7 H1         -0.3740   -0.9050    0.5750 hc        1 PNH      0.033367
      8 H1A        -0.4090    0.0000   -0.9930 hc        1 PNH      0.033367
      9 H1B        -0.3740    0.9050    0.5750 hc        1 PNH      0.033367
     10 H3          1.7560    0.9040    1.9550 hc        1 PNH      0.063700
     11 H3A         1.7560   -0.9040    1.9550 hc        1 PNH      0.063700
     12 H5          3.9210    0.9070    3.3040 hc        1 PNH      0.063033
     13 H5A         3.9210   -0.9070    3.3040 hc        1 PNH      0.063033
     14 H5B         5.3560   -0.0000    2.6550 hc        1 PNH      0.063033
     15 H2          1.8810    0.9000   -0.5610 hc        1 PNH      0.053700
     16 H2A         1.8810   -0.9000   -0.5610 hc        1 PNH      0.053700
@<TRIPOS>BOND
     1    1    6 1   
     2    1    7 1   
     3    1    8 1   
     4    1    9 1   
     5    2    3 1   
     6    2    6 1   
     7    2   10 1   
     8    2   11 1   
     9    3    4 2   
    10    3    5 1   
    11    5   12 1   
    12    5   13 1   
    13    5   14 1   
    14    6   15 1   
    15    6   16 1   
@<TRIPOS>SUBSTRUCTURE
     1 PNH         1 TEMP              0 ****  ****    0 ROOT
