@<TRIPOS>MOLECULE
PNH
   16    15     1     0     0
SMALL
bcc


@<TRIPOS>ATOM
      1 C1          2.7440   -0.3070   -0.0000 c3        1 PNH     -0.093100
      2 C3          0.2630   -0.5710   -0.0000 c3        1 PNH     -0.181400
      3 C4         -1.0770    0.1070    0.0000 c         1 PNH      0.565100
      4 O6         -1.2100    1.3350    0.0000 o         1 PNH     -0.534100
      5 C5         -2.2570   -0.8120    0.0000 c3        1 PNH     -0.205100
      6 C2          1.4170    0.4070   -0.0000 c3        1 PNH     -0.076400
      7 H1          2.8450   -0.9540    0.9050 hc        1 PNH      0.033367
      8 H1A         2.8450   -0.9540   -0.9050 hc        1 PNH      0.033367
      9 H1B         3.5790    0.4330   -0.0000 hc        1 PNH      0.033367
     10 H3          0.3230   -1.2340    0.9040 hc        1 PNH      0.064700
     11 H3A         0.3230   -1.2340   -0.9050 hc        1 PNH      0.064700
     12 H5         -1.9430   -1.8830    0.0000 hc        1 PNH      0.063033
     13 H5A        -2.8840   -0.6180    0.9050 hc        1 PNH      0.063033
     14 H5B        -2.8840   -0.6180   -0.9050 hc        1 PNH      0.063033
     15 H2          1.3380    1.0720    0.9000 hc        1 PNH      0.053700
     16 H2A         1.3380    1.0720   -0.9000 hc        1 PNH      0.053700
@<TRIPOS>BOND
     1    1    6 1   
     2    1    7 1   
     3    1    8 1   
     4    1    9 1   
     5    2    3 1   
     6    2    6 1   
     7    2   10 1   
     8    2   11 1   
     9    3    4 2   
    10    3    5 1   
    11    5   12 1   
    12    5   13 1   
    13    5   14 1   
    14    6   15 1   
    15    6   16 1   
@<TRIPOS>SUBSTRUCTURE
     1 PNH         1 TEMP              0 ****  ****    0 ROOT
