@<TRIPOS>MOLECULE
PNK
   42    43     1     0     0
SMALL
bcc


@<TRIPOS>ATOM
      1 C1          0.1030   -1.3680   -0.2090 c3        1 PNK     -0.038300
      2 C2          0.0290   -2.8540    0.3170 c         1 PNK      0.925600
      3 C3         -4.9870    0.7560    1.1180 ca        1 PNK     -0.122000
      4 C4          1.4290   -0.7010    0.2340 c3        1 PNK      0.299600
      5 C5          2.8350    1.2300   -0.1010 c3        1 PNK      0.052500
      6 C6          3.7710    0.1420   -0.7050 c3        1 PNK      0.055100
      7 C7         -6.3120    0.5450    0.7390 ca        1 PNK     -0.140500
      8 C8         -6.6660    0.5560   -0.6090 ca        1 PNK     -0.152000
      9 C9          3.4530    1.8740    1.1880 c         1 PNK      0.931600
     10 C10        -5.6870    0.7750   -1.5790 ca        1 PNK     -0.140500
     11 C11        -4.3630    0.9890   -1.2050 ca        1 PNK     -0.122000
     12 C12         4.1320    0.4850   -2.1330 c3        1 PNK     -0.074100
     13 N1          1.4750    0.7350    0.0840 n3        1 PNK     -0.776200
     14 O1          3.9770    3.0160    1.0150 o         1 PNK     -0.845300
     15 O2          3.4290    1.2750    2.2930 o         1 PNK     -0.845300
     16 O3          0.0910   -3.7680   -0.5450 o         1 PNK     -0.830800
     17 O4         -0.1520   -3.0300    1.5530 o         1 PNK     -0.830800
     18 O5         -1.3090    0.8540   -1.4280 o         1 PNK     -0.674100
     19 C16        -4.0020    0.9860    0.1500 ca        1 PNK     -0.048300
     20 C15        -2.5990    1.2590    0.5570 c3        1 PNK     -0.124100
     21 N2         -1.0600   -0.6620    0.2980 n         1 PNK     -0.490900
     22 S1          2.8360   -1.4060   -0.7360 ss        1 PNK     -0.468200
     23 C13         5.0200   -0.0520    0.1180 c3        1 PNK     -0.074100
     24 H1          0.0530   -1.3770   -1.3350 h1        1 PNK      0.076700
     25 H4          1.6420   -0.9560    1.3080 h2        1 PNK      0.116700
     26 H5          2.7840    2.0860   -0.8430 h1        1 PNK      0.039700
     27 H8         -7.7090    0.3850   -0.9070 ha        1 PNK      0.109000
     28 H10        -5.9590    0.7720   -2.6440 ha        1 PNK      0.114500
     29 H11        -3.5740    1.1430   -1.9630 ha        1 PNK      0.151000
     30 H12         4.7230    1.4340   -2.1620 hc        1 PNK      0.031867
     31 H12A        4.7480   -0.3290   -2.5870 hc        1 PNK      0.031867
     32 H12B        3.2110    0.6190   -2.7500 hc        1 PNK      0.031867
     33 HN1         0.9190    1.0110   -0.7110 hn        1 PNK      0.348800
     34 H15        -2.3710    2.3450    0.3740 hc        1 PNK      0.069200
     35 H15A       -2.4660    1.0690    1.6550 hc        1 PNK      0.069200
     36 HN2        -1.2670   -0.8710    1.2510 hn        1 PNK      0.322500
     37 H13         4.7460   -0.3670    1.1570 hc        1 PNK      0.031867
     38 H13A        5.6770   -0.8280   -0.3430 hc        1 PNK      0.031867
     39 H13B        5.5850    0.9110    0.1860 hc        1 PNK      0.031867
     40 C14        -1.5810    0.4630   -0.2660 c         1 PNK      0.660100
     41 H3         -4.7120    0.7340    2.1830 ha        1 PNK      0.151000
     42 H7         -7.0770    0.3600    1.5060 ha        1 PNK      0.114500
@<TRIPOS>BOND
     1    1    2 1   
     2    1    4 1   
     3    1   21 1   
     4    1   24 1   
     5    2   16 1   
     6    2   17 1   
     7    3    7 ar  
     8    3   19 ar  
     9    3   41 1   
    10    4   13 1   
    11    4   22 1   
    12    4   25 1   
    13    5    6 1   
    14    5    9 1   
    15    5   13 1   
    16    5   26 1   
    17    6   12 1   
    18    6   22 1   
    19    6   23 1   
    20    7    8 ar  
    21    7   42 1   
    22    8   10 ar  
    23    8   27 1   
    24    9   14 1   
    25    9   15 1   
    26   10   11 ar  
    27   10   28 1   
    28   11   19 ar  
    29   11   29 1   
    30   12   30 1   
    31   12   31 1   
    32   12   32 1   
    33   13   33 1   
    34   18   40 2   
    35   19   20 1   
    36   20   34 1   
    37   20   35 1   
    38   20   40 1   
    39   21   36 1   
    40   21   40 1   
    41   23   37 1   
    42   23   38 1   
    43   23   39 1   
@<TRIPOS>SUBSTRUCTURE
     1 PNK         1 TEMP              0 ****  ****    0 ROOT
