@<TRIPOS>MOLECULE
PNK
   43    43     1     0     0
SMALL
bcc


@<TRIPOS>ATOM
      1 C1         -0.3030   -2.1130    1.8680 c3        1 PNK     -0.318700
      2 C2         -0.9730   -1.5300    0.5740 c         1 PNK      0.938600
      3 C3          3.2770    2.6550   -2.7510 ca        1 PNK     -0.118500
      4 C4          1.0330   -1.5540    2.1290 c2        1 PNK      0.358200
      5 C5          3.2420   -0.8460    1.6760 c3        1 PNK     -0.169000
      6 C6          3.0970   -0.3650    3.1370 c3        1 PNK      0.076100
      7 C7          3.0770    4.0120   -2.9980 ca        1 PNK     -0.143000
      8 C8          2.9640    4.4800   -4.3070 ca        1 PNK     -0.144000
      9 C9          3.9280    0.2330    0.7430 c         1 PNK      0.947600
     10 C10         3.0500    3.5860   -5.3740 ca        1 PNK     -0.143000
     11 C11         3.2500    2.2280   -5.1330 ca        1 PNK     -0.118500
     12 C12         4.2480   -0.8510    3.9770 c3        1 PNK     -0.096100
     13 N1          1.9530   -1.3330    1.1980 nh        1 PNK     -0.220100
     14 O1          5.0350    0.6530    1.1510 o         1 PNK     -0.794800
     15 O2          3.3450    0.5300   -0.3280 o         1 PNK     -0.794800
     16 O3         -2.1850   -1.2410    0.6670 o         1 PNK     -0.794800
     17 O4         -0.2430   -1.4380   -0.4510 o         1 PNK     -0.794800
     18 O5          2.0610   -1.2720   -4.5270 o         1 PNK     -0.677100
     19 C16         3.3660    1.7540   -3.8210 ca        1 PNK     -0.065300
     20 C15         3.6040    0.3110   -3.5550 c3        1 PNK     -0.122100
     21 N2          1.4400   -0.3290   -2.5400 n         1 PNK     -0.640000
     22 S1          1.5210   -1.1450    3.7160 ss        1 PNK     -0.233300
     23 C13         2.9280    1.1290    3.2500 c3        1 PNK     -0.096100
     24 H1         -0.2190   -3.2170    1.6850 hc        1 PNK      0.087200
     25 H4         -0.9790   -1.9370    2.7410 hc        1 PNK      0.087200
     26 H5          1.7220   -1.3100    0.2040 hn        1 PNK      0.384700
     27 H10         3.3080    1.5200   -5.9730 ha        1 PNK      0.159500
     28 H11         2.9550    3.9500   -6.4060 ha        1 PNK      0.118500
     29 H12         4.2860   -1.9660    4.0060 hc        1 PNK      0.059367
     30 H12A        5.2000   -0.4680    3.5240 hc        1 PNK      0.059367
     31 H12B        4.1640   -0.4650    5.0220 hc        1 PNK      0.059367
     32 HN1         3.9440   -1.7340    1.6490 h1        1 PNK      0.084700
     33 H15         4.2800   -0.1190   -4.3410 hc        1 PNK      0.082200
     34 H15A        4.0980    0.1850   -2.5500 hc        1 PNK      0.082200
     35 HN2         1.7080    0.2040   -1.7440 hn        1 PNK      0.336500
     36 H13         2.1080    1.4860    2.5800 hc        1 PNK      0.059367
     37 H13A        2.6920    1.4170    4.3030 hc        1 PNK      0.059367
     38 H13B        3.8800    1.6320    2.9340 hc        1 PNK      0.059367
     39 C14         2.3080   -0.4920   -3.5750 c         1 PNK      0.657100
     40 H3          3.3640    2.2750   -1.7150 ha        1 PNK      0.159500
     41 H7          3.0050    4.7140   -2.1550 ha        1 PNK      0.118500
     42 H22         0.6260   -0.8950   -2.4620 hn        1 PNK      0.336500
     43 H8          2.8050    5.5510   -4.4980 ha        1 PNK      0.113000
@<TRIPOS>BOND
     1    1    2 1   
     2    1    4 1   
     3    1   24 1   
     4    1   25 1   
     5    2   16 1   
     6    2   17 1   
     7    3    7 ar  
     8    3   19 ar  
     9    3   40 1   
    10    4   13 2   
    11    4   22 1   
    12    5    6 1   
    13    5    9 1   
    14    5   13 1   
    15    5   32 1   
    16    6   12 1   
    17    6   22 1   
    18    6   23 1   
    19    7    8 ar  
    20    7   41 1   
    21    8   10 ar  
    22    8   43 1   
    23    9   14 1   
    24    9   15 1   
    25   10   11 ar  
    26   10   28 1   
    27   11   19 ar  
    28   11   27 1   
    29   12   29 1   
    30   12   30 1   
    31   12   31 1   
    32   13   26 1   
    33   18   39 2   
    34   19   20 1   
    35   20   33 1   
    36   20   34 1   
    37   20   39 1   
    38   21   35 1   
    39   21   39 1   
    40   21   42 1   
    41   23   36 1   
    42   23   37 1   
    43   23   38 1   
@<TRIPOS>SUBSTRUCTURE
     1 PNK         1 TEMP              0 ****  ****    0 ROOT
