@<TRIPOS>MOLECULE
PNK
   43    43     1     0     0
SMALL
bcc


@<TRIPOS>ATOM
      1 C1          2.2420    1.2920   -0.0770 c3        1 PNK     -0.084300
      2 C2          2.5530    0.3680    1.1580 c         1 PNK      0.900600
      3 C3          0.9990    1.4850   -5.1250 ca        1 PNK     -0.116500
      4 C4          1.9040    2.6960    0.4990 c3        1 PNK      0.314600
      5 C5          4.1600   -2.8840    5.1860 cc        1 PNK     -0.146100
      6 C6          3.5710   -2.1310    4.2710 c2        1 PNK      0.063600
      7 C7          0.9090    1.5520   -6.5140 ca        1 PNK     -0.137000
      8 C8          2.0580    1.4580   -7.2990 ca        1 PNK     -0.143000
      9 C9          4.8720   -3.8830    5.8650 c         1 PNK      0.749800
     10 C10         3.3000    1.2910   -6.6880 ca        1 PNK     -0.137000
     11 C11         3.3930    1.2220   -5.3000 ca        1 PNK     -0.116500
     12 C12         3.5760   -2.4920    2.8350 c3        1 PNK     -0.092900
     13 N1          2.9310    3.2640    1.3300 n8        1 PNK     -0.880800
     14 O1          5.5100   -4.8660    6.1660 o         1 PNK     -0.545500
     15 O2          4.3590   -2.8330    6.6200 os        1 PNK     -0.394200
     16 O3          3.6750    0.5420    1.7140 o         1 PNK     -0.825800
     17 O4          1.6920   -0.4690    1.5340 o         1 PNK     -0.825800
     18 O5          0.4340   -0.1260   -2.8480 o         1 PNK     -0.641100
     19 C16         2.2430    1.3220   -4.5040 ca        1 PNK     -0.050300
     20 C15         2.3880    1.3120   -3.0260 c3        1 PNK     -0.132100
     21 N2          1.1900    0.7580   -0.9050 ns        1 PNK     -0.533900
     22 S1          1.5560    3.8930   -0.8520 sh        1 PNK     -0.474900
     23 C13         2.8690   -0.8720    4.6150 c3        1 PNK     -0.092900
     24 H1          3.2020    1.3750   -0.6640 h1        1 PNK      0.060700
     25 H4          0.9580    2.6210    1.1020 h2        1 PNK      0.076700
     26 H5          3.0140    2.7160    2.1730 hn        1 PNK      0.365800
     27 H10         4.3760    1.0860   -4.8240 ha        1 PNK      0.139500
     28 H11         4.2080    1.2110   -7.3020 ha        1 PNK      0.121500
     29 H12         4.0740   -1.6640    2.2560 hc        1 PNK      0.075033
     30 H12A        2.5200   -2.5330    2.4570 hc        1 PNK      0.075033
     31 H12B        4.0900   -3.4610    2.6390 hc        1 PNK      0.075033
     32 HN1         3.8170    3.2230    0.8590 hn        1 PNK      0.365800
     33 H15         3.3650    0.8300   -2.7460 hc        1 PNK      0.090700
     34 H15A        2.4190    2.3850   -2.6610 hc        1 PNK      0.090700
     35 HN2         0.5830    0.1220   -0.4200 hn        1 PNK      0.333500
     36 H13         3.2290   -0.4520    5.5840 hc        1 PNK      0.075033
     37 H13A        1.7700   -1.0710    4.6890 hc        1 PNK      0.075033
     38 H13B        3.0220   -0.1250    3.7850 hc        1 PNK      0.075033
     39 C14         1.2900    0.5820   -2.2720 c         1 PNK      0.650100
     40 H3          0.0880    1.5300   -4.5080 ha        1 PNK      0.139500
     41 H7         -0.0740    1.6740   -6.9910 ha        1 PNK      0.121500
     42 H22         0.4310    3.3500   -1.2860 hs        1 PNK      0.218800
     43 H8          1.9840    1.5120   -8.3940 ha        1 PNK      0.118000
@<TRIPOS>BOND
     1    1    2 1   
     2    1    4 1   
     3    1   21 1   
     4    1   24 1   
     5    2   16 1   
     6    2   17 1   
     7    3    7 ar  
     8    3   19 ar  
     9    3   40 1   
    10    4   13 1   
    11    4   22 1   
    12    4   25 1   
    13    5    6 2   
    14    5    9 1   
    15    5   15 1   
    16    6   12 1   
    17    6   23 1   
    18    7    8 ar  
    19    7   41 1   
    20    8   10 ar  
    21    8   43 1   
    22    9   14 2   
    23    9   15 1   
    24   10   11 ar  
    25   10   28 1   
    26   11   19 ar  
    27   11   27 1   
    28   12   29 1   
    29   12   30 1   
    30   12   31 1   
    31   13   26 1   
    32   13   32 1   
    33   18   39 2   
    34   19   20 1   
    35   20   33 1   
    36   20   34 1   
    37   20   39 1   
    38   21   35 1   
    39   21   39 1   
    40   22   42 1   
    41   23   36 1   
    42   23   37 1   
    43   23   38 1   
@<TRIPOS>SUBSTRUCTURE
     1 PNK         1 TEMP              0 ****  ****    0 ROOT
