@<TRIPOS>MOLECULE
PNK
   43    43     1     0     0
SMALL
bcc


@<TRIPOS>ATOM
      1 C1          4.5010    0.4890    0.8090 c3        1 PNK     -0.032800
      2 C2          3.5460    0.3460   -0.4140 c         1 PNK      0.886600
      3 C3          1.5000    2.9330   -5.2680 ca        1 PNK     -0.123500
      4 C4          3.8340   -0.1040    2.0280 c2        1 PNK      0.226200
      5 C5          3.5680   -0.6490    4.3160 c3        1 PNK     -0.150000
      6 C6          2.2930   -1.2440    3.6820 c3        1 PNK     -0.124900
      7 C7          1.1120    3.4910   -6.4840 ca        1 PNK     -0.138000
      8 C8          0.9710    2.6830   -7.6120 ca        1 PNK     -0.147000
      9 C9          3.2930    0.2910    5.5630 c         1 PNK      0.934600
     10 C10         1.2160    1.3140   -7.5160 ca        1 PNK     -0.138000
     11 C11         1.6070    0.7530   -6.3010 ca        1 PNK     -0.123500
     12 C12         2.1850   -2.7170    3.9870 c3        1 PNK     -0.074600
     13 N1          4.3370    0.0140    3.2610 nh        1 PNK     -0.246100
     14 O1          2.8350   -0.2930    6.5730 o         1 PNK     -0.796300
     15 O2          3.5980    1.5040    5.4510 o         1 PNK     -0.796300
     16 O3          2.6010   -0.5020   -0.3120 o         1 PNK     -0.789300
     17 O4          3.7680    1.0410   -1.4330 o         1 PNK     -0.789300
     18 O5          0.9760   -1.0750   -4.1520 o         1 PNK     -0.583100
     19 C16         1.7530    1.5580   -5.1630 ca        1 PNK     -0.054300
     20 C15         2.2080    0.9970   -3.8670 c3        1 PNK     -0.170100
     21 N2          5.0190    1.8270    1.0330 n3        1 PNK     -0.889800
     22 S1          2.4490   -1.0160    1.8720 ss        1 PNK      0.222700
     23 C13         1.0480   -0.5210    4.1370 c3        1 PNK     -0.074600
     24 H1          1.8280   -0.5410   -2.3530 h4        1 PNK      0.068200
     25 H4          5.3940   -0.1710    0.5730 h1        1 PNK      0.091700
     26 H5          4.9870    0.7280    3.5280 hn        1 PNK      0.336700
     27 H10         1.7790   -0.3320   -6.2200 ha        1 PNK      0.141000
     28 H11         1.0990    0.6710   -8.4000 ha        1 PNK      0.119500
     29 H12         3.0680   -3.2750    3.5900 hc        1 PNK      0.045367
     30 H12A        1.2580   -3.1420    3.5310 hc        1 PNK      0.045367
     31 H12B        2.1380   -2.8680    5.0950 hc        1 PNK      0.045367
     32 HN1         4.2230   -1.4830    4.7080 h1        1 PNK      0.076700
     33 H15         3.3270    0.8430   -3.8940 hc        1 PNK      0.099200
     34 H15A        2.0360    1.7360   -3.0330 hc        1 PNK      0.099200
     35 HN2         5.3740    2.1670    0.1550 hn        1 PNK      0.361300
     36 H13         1.1620    0.5820    3.9950 hc        1 PNK      0.045367
     37 H13A        0.8780   -0.7080    5.2280 hc        1 PNK      0.045367
     38 H13B        0.1600   -0.8770    3.5610 hc        1 PNK      0.045367
     39 C14         1.6150   -0.3060   -3.4270 c         1 PNK      0.566900
     40 H3          1.6100    3.5740   -4.3800 ha        1 PNK      0.141000
     41 H7          0.9170    4.5700   -6.5530 ha        1 PNK      0.119500
     42 H22         4.2760    2.4360    1.3210 hn        1 PNK      0.361300
     43 H8          0.6640    3.1230   -8.5710 ha        1 PNK      0.116000
@<TRIPOS>BOND
     1    1    2 1   
     2    1    4 1   
     3    1   21 1   
     4    1   25 1   
     5    2   16 1   
     6    2   17 1   
     7    3    7 ar  
     8    3   19 ar  
     9    3   40 1   
    10    4   13 2   
    11    4   22 1   
    12    5    6 1   
    13    5    9 1   
    14    5   13 1   
    15    5   32 1   
    16    6   12 1   
    17    6   22 1   
    18    6   23 1   
    19    7    8 ar  
    20    7   41 1   
    21    8   10 ar  
    22    8   43 1   
    23    9   14 1   
    24    9   15 1   
    25   10   11 ar  
    26   10   28 1   
    27   11   19 ar  
    28   11   27 1   
    29   12   29 1   
    30   12   30 1   
    31   12   31 1   
    32   13   26 1   
    33   18   39 2   
    34   19   20 1   
    35   20   33 1   
    36   20   34 1   
    37   20   39 1   
    38   21   35 1   
    39   21   42 1   
    40   23   36 1   
    41   23   37 1   
    42   23   38 1   
    43   24   39 1   
@<TRIPOS>SUBSTRUCTURE
     1 PNK         1 TEMP              0 ****  ****    0 ROOT
