@<TRIPOS>MOLECULE
PNL
   10     9     1     0     0
SMALL
bcc


@<TRIPOS>ATOM
      1 C1          0.0370   -0.0420    0.0370 c         1 PNL      0.564900
      2 O1          1.2000   -0.4310   -0.0670 o         1 PNL     -0.528100
      3 C2         -0.6530    0.1230    1.3560 c3        1 PNL     -0.204400
      4 C3         -1.7100    1.1950    1.3080 c3        1 PNL     -0.092100
      5 H1         -0.5780    0.2010   -0.8590 h4        1 PNL     -0.006800
      6 H21        -1.1190   -0.8640    1.6230 hc        1 PNL      0.073200
      7 H22         0.1020    0.3580    2.1530 hc        1 PNL      0.073200
      8 H31        -2.4790    0.9620    0.5320 hc        1 PNL      0.040033
      9 H32        -1.2560    2.1870    1.0660 hc        1 PNL      0.040033
     10 H33        -2.2210    1.2750    2.2980 hc        1 PNL      0.040033
@<TRIPOS>BOND
     1    1    2 2   
     2    1    3 1   
     3    1    5 1   
     4    3    4 1   
     5    3    6 1   
     6    3    7 1   
     7    4    8 1   
     8    4    9 1   
     9    4   10 1   
@<TRIPOS>SUBSTRUCTURE
     1 PNL         1 TEMP              0 ****  ****    0 ROOT
