@<TRIPOS>MOLECULE
PNL
   10     9     1     0     0
SMALL
bcc


@<TRIPOS>ATOM
      1 C1         -0.1540   -0.3710   -0.6920 c         1 PNL      0.564900
      2 O1          0.2110   -0.0260   -1.8160 o         1 PNL     -0.528100
      3 C2          0.5840    0.0030    0.5570 c3        1 PNL     -0.204400
      4 C3         -0.3340    0.0930    1.7470 c3        1 PNL     -0.092100
      5 H1         -1.0610   -0.9990   -0.5420 h4        1 PNL     -0.006800
      6 H21         1.1190    0.9780    0.4040 hc        1 PNL      0.073200
      7 H22         1.3710   -0.7800    0.7360 hc        1 PNL      0.073200
      8 H31         0.2510    0.3490    2.6630 hc        1 PNL      0.040033
      9 H32        -1.1070    0.8840    1.5920 hc        1 PNL      0.040033
     10 H33        -0.8560   -0.8790    1.9220 hc        1 PNL      0.040033
@<TRIPOS>BOND
     1    1    2 2   
     2    1    3 1   
     3    1    5 1   
     4    3    4 1   
     5    3    6 1   
     6    3    7 1   
     7    4    8 1   
     8    4    9 1   
     9    4   10 1   
@<TRIPOS>SUBSTRUCTURE
     1 PNL         1 TEMP              0 ****  ****    0 ROOT
