@<TRIPOS>MOLECULE
PNL
   10     9     1     0     0
SMALL
bcc


@<TRIPOS>ATOM
      1 C1          0.0290   -0.0120    0.0130 c         1 PNL      0.564900
      2 O1          1.1670   -0.4700   -0.0990 o         1 PNL     -0.528100
      3 C2         -0.6930    0.0710    1.3230 c3        1 PNL     -0.204400
      4 C3         -1.6730    1.2130    1.3530 c3        1 PNL     -0.092100
      5 H1         -0.5360    0.3620   -0.8710 h4        1 PNL     -0.006800
      6 H21        -1.2320   -0.9040    1.4760 hc        1 PNL      0.073200
      7 H22         0.0490    0.1720    2.1590 hc        1 PNL      0.073200
      8 H31        -2.4290    1.1110    0.5370 hc        1 PNL      0.040033
      9 H32        -1.1470    2.1900    1.2240 hc        1 PNL      0.040033
     10 H33        -2.2110    1.2310    2.3320 hc        1 PNL      0.040033
@<TRIPOS>BOND
     1    1    2 2   
     2    1    3 1   
     3    1    5 1   
     4    3    4 1   
     5    3    6 1   
     6    3    7 1   
     7    4    8 1   
     8    4    9 1   
     9    4   10 1   
@<TRIPOS>SUBSTRUCTURE
     1 PNL         1 TEMP              0 ****  ****    0 ROOT
