@<TRIPOS>MOLECULE
PNM
   43    44     1     0     0
SMALL
bcc


@<TRIPOS>ATOM
      1 O8         -0.5230   -0.0130    0.9300 o         1 PNM     -0.527100
      2 C7          0.6170   -0.2380    0.5300 c         1 PNM      0.582900
      3 N4          1.9470   -2.6620    1.5490 n3        1 PNM     -0.821200
      4 C3          2.8770   -3.7120    1.9960 c3        1 PNM     -0.020500
      5 C11         3.4660   -4.5310    0.7680 c         1 PNM      0.915600
      6 O13         3.8840   -5.6820    1.0200 o         1 PNM     -0.799300
      7 O12         3.4220   -3.9530   -0.3510 o         1 PNM     -0.799300
      8 C2          3.9950   -3.1210    2.8730 c3        1 PNM      0.131100
      9 C10         5.3420   -3.7400    2.6070 c3        1 PNM     -0.094100
     10 C9          3.6470   -3.1780    4.3390 c3        1 PNM     -0.094100
     11 S1          4.0750   -1.3430    2.3910 ss        1 PNM     -0.414200
     12 C5          2.6940   -1.4550    1.2250 c3        1 PNM      0.245600
     13 C6          1.8260   -0.1890    1.4520 c3        1 PNM     -0.003500
     14 N14         1.4730   -0.0990    2.9080 n4        1 PNM     -0.685800
     15 C15         1.0090    1.2680    3.3260 c         1 PNM      0.547100
     16 O16         1.8120    2.1790    3.1870 o         1 PNM     -0.424100
     17 C17        -0.4000    1.3190    3.8590 c3        1 PNM     -0.100100
     18 C18        -0.7810    2.6820    4.3130 ca        1 PNM     -0.118300
     19 C19        -1.4440    3.5510    3.4390 ca        1 PNM     -0.103500
     20 C20        -1.8300    4.8180    3.8750 ca        1 PNM     -0.123500
     21 C21        -1.5590    5.2210    5.1830 ca        1 PNM     -0.103000
     22 C22        -0.9020    4.3550    6.0570 ca        1 PNM     -0.123500
     23 C23        -0.5140    3.0880    5.6260 ca        1 PNM     -0.103500
     24 HC7         0.8690   -0.4920   -0.5220 h4        1 PNM      0.070200
     25 H4          1.4970   -3.0030    0.7100 hn        1 PNM      0.395800
     26 HC3         2.2690   -4.4340    2.6110 h1        1 PNM      0.089700
     27 H101        5.6560   -3.5600    1.5490 hc        1 PNM      0.054700
     28 H102        5.2740   -4.8510    2.7500 hc        1 PNM      0.054700
     29 H103        6.1110   -3.3200    3.2990 hc        1 PNM      0.054700
     30 HC91        4.4090   -2.6360    4.9500 hc        1 PNM      0.054700
     31 HC92        2.6430   -2.7260    4.5300 hc        1 PNM      0.054700
     32 HC93        3.6210   -4.2450    4.6740 hc        1 PNM      0.054700
     33 HC5         3.0930   -1.4420    0.1710 h2        1 PNM      0.136700
     34 HC6         2.4440    0.7240    1.1890 hx        1 PNM      0.136700
     35 H14         2.3610   -0.3770    3.4190 hn        1 PNM      0.479800
     36 H171       -0.4940    0.5910    4.7130 hc        1 PNM      0.109200
     37 H172       -1.0910    0.9750    3.0320 hc        1 PNM      0.109200
     38 H19        -1.6650    3.2360    2.4080 ha        1 PNM      0.135500
     39 H20        -2.3500    5.4990    3.1840 ha        1 PNM      0.144500
     40 H21        -1.8630    6.2220    5.5250 ha        1 PNM      0.144000
     41 H22        -0.6890    4.6710    7.0900 ha        1 PNM      0.144500
     42 H23         0.0000    2.4070    6.3210 ha        1 PNM      0.135500
     43 H142        0.7450   -0.7950    3.1050 hn        1 PNM      0.479800
@<TRIPOS>BOND
     1    1    2 2   
     2    2   13 1   
     3    2   24 1   
     4    3    4 1   
     5    3   12 1   
     6    3   25 1   
     7    4    5 1   
     8    4    8 1   
     9    4   26 1   
    10    5    6 1   
    11    5    7 1   
    12    8    9 1   
    13    8   10 1   
    14    8   11 1   
    15    9   27 1   
    16    9   28 1   
    17    9   29 1   
    18   10   30 1   
    19   10   31 1   
    20   10   32 1   
    21   11   12 1   
    22   12   13 1   
    23   12   33 1   
    24   13   14 1   
    25   13   34 1   
    26   14   15 1   
    27   14   35 1   
    28   14   43 1   
    29   15   16 2   
    30   15   17 1   
    31   17   18 1   
    32   17   36 1   
    33   17   37 1   
    34   18   19 ar  
    35   18   23 ar  
    36   19   20 ar  
    37   19   38 1   
    38   20   21 ar  
    39   20   39 1   
    40   21   22 ar  
    41   21   40 1   
    42   22   23 ar  
    43   22   41 1   
    44   23   42 1   
@<TRIPOS>SUBSTRUCTURE
     1 PNM         1 TEMP              0 ****  ****    0 ROOT
