@<TRIPOS>MOLECULE
PNM
   43    44     1     0     0
SMALL
bcc


@<TRIPOS>ATOM
      1 O8         -0.4850    0.0220    0.9010 o         1 PNM     -0.527100
      2 C7          0.6600   -0.2040    0.5170 c         1 PNM      0.582900
      3 N4          1.9610   -2.6490    1.5250 n3        1 PNM     -0.821200
      4 C3          2.8780   -3.7100    1.9720 c3        1 PNM     -0.020500
      5 C11         3.4830   -4.5140    0.7420 c         1 PNM      0.915600
      6 O13         3.8910   -5.6710    0.9850 o         1 PNM     -0.799300
      7 O12         3.4600   -3.9200   -0.3690 o         1 PNM     -0.799300
      8 C2          3.9850   -3.1370    2.8750 c3        1 PNM      0.131100
      9 C10         5.3320   -3.7590    2.6230 c3        1 PNM     -0.094100
     10 C9          3.6120   -3.2110    4.3350 c3        1 PNM     -0.094100
     11 S1          4.0820   -1.3530    2.4200 ss        1 PNM     -0.414200
     12 C5          2.7190   -1.4420    1.2290 c3        1 PNM      0.245600
     13 C6          1.8550   -0.1730    1.4590 c3        1 PNM     -0.003500
     14 N14         1.4780   -0.1010    2.9100 n4        1 PNM     -0.685800
     15 C15         1.0150    1.2630    3.3390 c         1 PNM      0.547100
     16 O16         1.8250    2.1710    3.2260 o         1 PNM     -0.424100
     17 C17        -0.4030    1.3150    3.8490 c3        1 PNM     -0.100100
     18 C18        -0.7860    2.6740    4.3110 ca        1 PNM     -0.118300
     19 C19        -1.4300    3.5560    3.4360 ca        1 PNM     -0.103500
     20 C20        -1.8180    4.8200    3.8790 ca        1 PNM     -0.123500
     21 C21        -1.5660    5.2080    5.1950 ca        1 PNM     -0.103000
     22 C22        -0.9270    4.3290    6.0710 ca        1 PNM     -0.123500
     23 C23        -0.5380    3.0650    5.6330 ca        1 PNM     -0.103500
     24 HC7         0.9280   -0.4450   -0.5340 h4        1 PNM      0.070200
     25 H4          1.5220   -2.9760    0.6730 hn        1 PNM      0.395800
     26 HC3         2.2560   -4.4370    2.5660 h1        1 PNM      0.089700
     27 H101        5.6650   -3.5660    1.5720 hc        1 PNM      0.054700
     28 H102        5.2560   -4.8710    2.7490 hc        1 PNM      0.054700
     29 H103        6.0920   -3.3530    3.3330 hc        1 PNM      0.054700
     30 HC91        3.5760   -4.2830    4.6540 hc        1 PNM      0.054700
     31 HC92        4.3670   -2.6820    4.9650 hc        1 PNM      0.054700
     32 HC93        2.6080   -2.7570    4.5160 hc        1 PNM      0.054700
     33 HC5         3.1360   -1.4160    0.1820 h2        1 PNM      0.136700
     34 HC6         2.4820    0.7390    1.2180 hx        1 PNM      0.136700
     35 H14         0.7440   -0.7960    3.0850 hn        1 PNM      0.479800
     36 H171       -0.5140    0.5780    4.6930 hc        1 PNM      0.109200
     37 H172       -1.0820    0.9830    3.0070 hc        1 PNM      0.109200
     38 H19        -1.6360    3.2520    2.3980 ha        1 PNM      0.135500
     39 H20        -2.3240    5.5100    3.1880 ha        1 PNM      0.144500
     40 H21        -1.8710    6.2060    5.5430 ha        1 PNM      0.144000
     41 H22        -0.7290    4.6330    7.1100 ha        1 PNM      0.144500
     42 H23        -0.0370    2.3750    6.3290 ha        1 PNM      0.135500
     43 H142        2.3560   -0.3910    3.4320 hn        1 PNM      0.479800
@<TRIPOS>BOND
     1    1    2 2   
     2    2   13 1   
     3    2   24 1   
     4    3    4 1   
     5    3   12 1   
     6    3   25 1   
     7    4    5 1   
     8    4    8 1   
     9    4   26 1   
    10    5    6 1   
    11    5    7 1   
    12    8    9 1   
    13    8   10 1   
    14    8   11 1   
    15    9   27 1   
    16    9   28 1   
    17    9   29 1   
    18   10   30 1   
    19   10   31 1   
    20   10   32 1   
    21   11   12 1   
    22   12   13 1   
    23   12   33 1   
    24   13   14 1   
    25   13   34 1   
    26   14   15 1   
    27   14   35 1   
    28   14   43 1   
    29   15   16 2   
    30   15   17 1   
    31   17   18 1   
    32   17   36 1   
    33   17   37 1   
    34   18   19 ar  
    35   18   23 ar  
    36   19   20 ar  
    37   19   38 1   
    38   20   21 ar  
    39   20   39 1   
    40   21   22 ar  
    41   21   40 1   
    42   22   23 ar  
    43   22   41 1   
    44   23   42 1   
@<TRIPOS>SUBSTRUCTURE
     1 PNM         1 TEMP              0 ****  ****    0 ROOT
