@<TRIPOS>MOLECULE
PNM
   43    44     1     0     0
SMALL
bcc


@<TRIPOS>ATOM
      1 O8         -0.5060    0.0130    0.9170 o         1 PNM     -0.527100
      2 C7          0.6350   -0.2200    0.5250 c         1 PNM      0.582900
      3 N4          1.9380   -2.6590    1.5430 n7        1 PNM     -0.821200
      4 C3          2.8560   -3.7190    1.9900 c3        1 PNM     -0.020500
      5 C11         3.4480   -4.5360    0.7630 c         1 PNM      0.915600
      6 O13         3.8550   -5.6920    1.0120 o         1 PNM     -0.799300
      7 O12         3.4170   -3.9520   -0.3530 o         1 PNM     -0.799300
      8 C2          3.9730   -3.1410    2.8780 c3        1 PNM      0.131100
      9 C10         5.3160   -3.7690    2.6200 c3        1 PNM     -0.094100
     10 C9          3.6130   -3.2010    4.3420 c3        1 PNM     -0.094100
     11 S1          4.0710   -1.3610    2.4060 ss        1 PNM     -0.414200
     12 C5          2.6970   -1.4570    1.2290 c3        1 PNM      0.245600
     13 C6          1.8380   -0.1840    1.4560 c3        1 PNM     -0.003500
     14 N14         1.4750   -0.0980    2.9090 ny        1 PNM     -0.685800
     15 C15         1.0200    1.2710    3.3300 c         1 PNM      0.547100
     16 O16         1.8320    2.1750    3.2020 o         1 PNM     -0.424100
     17 C17        -0.3930    1.3310    3.8530 c3        1 PNM     -0.100100
     18 C18        -0.7670    2.6960    4.3090 ca        1 PNM     -0.118300
     19 C19        -1.4160    3.5730    3.4330 ca        1 PNM     -0.103500
     20 C20        -1.7960    4.8410    3.8700 ca        1 PNM     -0.123500
     21 C21        -1.5300    5.2380    5.1810 ca        1 PNM     -0.103000
     22 C22        -0.8870    4.3640    6.0570 ca        1 PNM     -0.123500
     23 C23        -0.5060    3.0950    5.6250 ca        1 PNM     -0.103500
     24 HC7         0.8930   -0.4710   -0.5270 h4        1 PNM      0.070200
     25 H4          1.4910   -2.9930    0.6980 hn        1 PNM      0.395800
     26 HC3         2.2380   -4.4390    2.5980 h1        1 PNM      0.089700
     27 H101        5.6400   -3.5870    1.5650 hc        1 PNM      0.054700
     28 H102        6.0840   -3.3590    3.3190 hc        1 PNM      0.054700
     29 H103        5.2380   -4.8800    2.7570 hc        1 PNM      0.054700
     30 HC91        3.5770   -4.2700    4.6720 hc        1 PNM      0.054700
     31 HC92        4.3760   -2.6690    4.9610 hc        1 PNM      0.054700
     32 HC93        2.6120   -2.7430    4.5280 hc        1 PNM      0.054700
     33 HC5         3.1040   -1.4420    0.1790 h2        1 PNM      0.136700
     34 HC6         2.4660    0.7240    1.2010 hx        1 PNM      0.136700
     35 H14         0.7400   -0.7890    3.0980 hn        1 PNM      0.479800
     36 H171       -0.4990    0.6010    4.7040 hc        1 PNM      0.109200
     37 H172       -1.0810    0.9960    3.0200 hc        1 PNM      0.109200
     38 H19        -1.6330    3.2630    2.3990 ha        1 PNM      0.135500
     39 H20        -2.3060    5.5280    3.1780 ha        1 PNM      0.144500
     40 H21        -1.8300    6.2400    5.5240 ha        1 PNM      0.144000
     41 H22        -0.6790    4.6750    7.0920 ha        1 PNM      0.144500
     42 H23        -0.0020    2.4090    6.3210 ha        1 PNM      0.135500
     43 H142        2.3570   -0.3860    3.4260 hn        1 PNM      0.479800
@<TRIPOS>BOND
     1    1    2 2   
     2    2   13 1   
     3    2   24 1   
     4    3    4 1   
     5    3   12 1   
     6    3   25 1   
     7    4    5 1   
     8    4    8 1   
     9    4   26 1   
    10    5    6 1   
    11    5    7 1   
    12    8    9 1   
    13    8   10 1   
    14    8   11 1   
    15    9   27 1   
    16    9   28 1   
    17    9   29 1   
    18   10   30 1   
    19   10   31 1   
    20   10   32 1   
    21   11   12 1   
    22   12   13 1   
    23   12   33 1   
    24   13   14 1   
    25   13   34 1   
    26   14   15 1   
    27   14   35 1   
    28   14   43 1   
    29   15   16 2   
    30   15   17 1   
    31   17   18 1   
    32   17   36 1   
    33   17   37 1   
    34   18   19 ar  
    35   18   23 ar  
    36   19   20 ar  
    37   19   38 1   
    38   20   21 ar  
    39   20   39 1   
    40   21   22 ar  
    41   21   40 1   
    42   22   23 ar  
    43   22   41 1   
    44   23   42 1   
@<TRIPOS>SUBSTRUCTURE
     1 PNM         1 TEMP              0 ****  ****    0 ROOT
