@<TRIPOS>MOLECULE
PNM
   42    43     1     0     0
SMALL
bcc


@<TRIPOS>ATOM
      1 O8         -2.4280   -3.0650   -1.1060 o         1 PNM     -0.527100
      2 C7         -1.9060   -2.9490    0.0010 c         1 PNM      0.559900
      3 N4         -1.2900   -0.0570    1.1910 n3        1 PNM     -0.791200
      4 C3         -0.2540    0.9640    1.2090 c3        1 PNM      0.015500
      5 C11        -0.8110    2.4160    1.4360 c         1 PNM      0.932600
      6 O13        -0.1950    3.3310    0.8270 o         1 PNM     -0.824300
      7 O12        -1.8040    2.5620    2.1950 o         1 PNM     -0.824300
      8 C2          0.8490    0.6490    2.2510 c3        1 PNM      0.082100
      9 C10         0.5260    1.2280    3.6060 c3        1 PNM     -0.081100
     10 C9          2.1940    1.1270    1.7650 c3        1 PNM     -0.081100
     11 S1          0.8470   -1.1690    2.3740 ss        1 PNM     -0.475200
     12 C5         -0.7530   -1.3570    1.5180 c3        1 PNM      0.288600
     13 C6         -0.5570   -2.2970    0.2870 c3        1 PNM      0.009700
     14 N14         0.0360   -1.6600   -0.8530 n         1 PNM     -0.527900
     15 C15         1.0650   -2.2160   -1.5710 c         1 PNM      0.669100
     16 O16         1.5110   -3.3580   -1.3110 o         1 PNM     -0.650100
     17 C17         1.6840   -1.4250   -2.7180 c3        1 PNM     -0.099100
     18 C18         1.0900   -0.0890   -2.9790 ca        1 PNM     -0.107300
     19 C19         1.2500    0.9450   -2.0470 ca        1 PNM     -0.132500
     20 C20         0.6220    2.1750   -2.2340 ca        1 PNM     -0.123500
     21 C21        -0.1160    2.4030   -3.3970 ca        1 PNM     -0.128000
     22 C22        -0.2370    1.3960   -4.3550 ca        1 PNM     -0.123500
     23 C23         0.3520    0.1500   -4.1440 ca        1 PNM     -0.132500
     24 HC7        -2.4000   -3.3580    0.9140 h4        1 PNM     -0.018800
     25 H4         -2.0340    0.2070    1.8170 hn        1 PNM      0.395800
     26 HC3         0.2240    0.9680    0.1870 h1        1 PNM      0.061700
     27 H101        1.2300    0.8400    4.3800 hc        1 PNM      0.045033
     28 H102        0.6050    2.3440    3.5630 hc        1 PNM      0.045033
     29 H103       -0.5230    0.9760    3.8980 hc        1 PNM      0.045033
     30 HC91        2.9510    1.0760    2.5840 hc        1 PNM      0.045033
     31 HC92        2.5530    0.5050    0.9100 hc        1 PNM      0.045033
     32 HC93        2.0950    2.1900    1.4230 hc        1 PNM      0.045033
     33 HC5        -1.4240   -1.9050    2.2360 h2        1 PNM      0.057700
     34 HC6         0.1320   -3.1370    0.6210 h1        1 PNM      0.107700
     35 H14        -0.3310   -0.7730   -1.1190 hn        1 PNM      0.346500
     36 H171        2.7740   -1.3110   -2.4670 hc        1 PNM      0.072700
     37 H172        1.6100   -2.0750   -3.6310 hc        1 PNM      0.072700
     38 H19         1.8560    0.7730   -1.1430 ha        1 PNM      0.133000
     39 H20         0.6670    2.9400   -1.4340 ha        1 PNM      0.154500
     40 H21        -0.6160    3.3710   -3.5460 ha        1 PNM      0.131000
     41 H22        -0.8160    1.5770   -5.2720 ha        1 PNM      0.154500
     42 H23         0.2230   -0.6510   -4.8870 ha        1 PNM      0.133000
@<TRIPOS>BOND
     1    1    2 2   
     2    2   13 1   
     3    2   24 1   
     4    3    4 1   
     5    3   12 1   
     6    3   25 1   
     7    4    5 1   
     8    4    8 1   
     9    4   26 1   
    10    5    6 1   
    11    5    7 1   
    12    8    9 1   
    13    8   10 1   
    14    8   11 1   
    15    9   27 1   
    16    9   28 1   
    17    9   29 1   
    18   10   30 1   
    19   10   31 1   
    20   10   32 1   
    21   11   12 1   
    22   12   13 1   
    23   12   33 1   
    24   13   14 1   
    25   13   34 1   
    26   14   15 1   
    27   14   35 1   
    28   15   16 2   
    29   15   17 1   
    30   17   18 1   
    31   17   36 1   
    32   17   37 1   
    33   18   19 ar  
    34   18   23 ar  
    35   19   20 ar  
    36   19   38 1   
    37   20   21 ar  
    38   20   39 1   
    39   21   22 ar  
    40   21   40 1   
    41   22   23 ar  
    42   22   41 1   
    43   23   42 1   
@<TRIPOS>SUBSTRUCTURE
     1 PNM         1 TEMP              0 ****  ****    0 ROOT
