@<TRIPOS>MOLECULE
PNN
   40    42     1     0     0
SMALL
bcc


@<TRIPOS>ATOM
      1 O8         -1.6820    2.5540    1.9580 o         1 PNN     -0.570500
      2 C7         -1.5240    1.3870    1.6230 c         1 PNN      0.650500
      3 N4         -1.0710    0.2100    2.2930 n         1 PNN     -0.338800
      4 C3          0.1860    0.1220    3.0060 c3        1 PNN     -0.080300
      5 C11         0.1080   -0.8240    4.2770 c         1 PNN      0.941600
      6 O13         0.6990   -0.3670    5.2910 o         1 PNN     -0.811300
      7 O12        -0.4820   -1.9270    4.1920 o         1 PNN     -0.811300
      8 C2          1.3250   -0.3430    2.0530 c3        1 PNN      0.089100
      9 C10         2.1750   -1.4270    2.6640 c3        1 PNN     -0.088600
     10 C9          2.1740    0.8270    1.6160 c3        1 PNN     -0.088600
     11 S1          0.5240   -1.0380    0.5510 ss        1 PNN     -0.433200
     12 C5         -1.1390   -0.6200    1.0730 cy        1 PNN      0.132800
     13 C6         -1.8390    0.5740    0.3130 cy        1 PNN     -0.016300
     14 N14        -1.2200    1.0360   -0.8790 n         1 PNN     -0.534900
     15 C15        -1.9360    1.3750   -2.0070 c         1 PNN      0.664100
     16 O16        -3.1830    1.3730   -2.0380 o         1 PNN     -0.619100
     17 C17        -1.1410    1.8370   -3.2230 c3        1 PNN     -0.112100
     18 C18        -0.1160    0.8540   -3.6600 ca        1 PNN     -0.087300
     19 C19        -0.4470   -0.1410   -4.5880 ca        1 PNN     -0.121000
     20 C20         0.5160   -1.0550   -5.0100 ca        1 PNN     -0.126000
     21 C21         1.8160   -0.9850   -4.5110 ca        1 PNN     -0.128000
     22 C22         2.1520    0.0050   -3.5870 ca        1 PNN     -0.126000
     23 C23         1.1910    0.9220   -3.1640 ca        1 PNN     -0.121000
     24 HC3         0.4380    1.1490    3.4040 h1        1 PNN      0.080700
     25 H101        3.0180   -1.6950    1.9830 hc        1 PNN      0.045700
     26 H102        2.5890   -1.0690    3.6420 hc        1 PNN      0.045700
     27 H103        1.5550   -2.3370    2.8670 hc        1 PNN      0.045700
     28 HC91        2.9290    0.5060    0.8580 hc        1 PNN      0.045700
     29 HC92        1.5410    1.6330    1.1720 hc        1 PNN      0.045700
     30 HC93        2.7170    1.2480    2.4990 hc        1 PNN      0.045700
     31 HC5        -1.7590   -1.5340    1.1960 h2        1 PNN      0.121700
     32 HC6        -2.9390    0.4200    0.1620 h1        1 PNN      0.111700
     33 H14        -0.2350    0.8750   -0.9540 hn        1 PNN      0.335500
     34 H171       -1.8800    2.0200   -4.0490 hc        1 PNN      0.075700
     35 H172       -0.6580    2.8200   -2.9710 hc        1 PNN      0.075700
     36 H19        -1.4740   -0.2030   -4.9780 ha        1 PNN      0.135500
     37 H20         0.2460   -1.8390   -5.7340 ha        1 PNN      0.130000
     38 H21         2.5730   -1.7120   -4.8380 ha        1 PNN      0.128000
     39 H22         3.1730    0.0570   -3.1820 ha        1 PNN      0.130000
     40 H23         1.4600    1.6980   -2.4310 ha        1 PNN      0.135500
@<TRIPOS>BOND
     1    1    2 2   
     2    2    3 1   
     3    2   13 1   
     4    3    4 1   
     5    3   12 1   
     6    4    5 1   
     7    4    8 1   
     8    4   24 1   
     9    5    6 1   
    10    5    7 1   
    11    8    9 1   
    12    8   10 1   
    13    8   11 1   
    14    9   25 1   
    15    9   26 1   
    16    9   27 1   
    17   10   28 1   
    18   10   29 1   
    19   10   30 1   
    20   11   12 1   
    21   12   13 1   
    22   12   31 1   
    23   13   14 1   
    24   13   32 1   
    25   14   15 1   
    26   14   33 1   
    27   15   16 2   
    28   15   17 1   
    29   17   18 1   
    30   17   34 1   
    31   17   35 1   
    32   18   19 ar  
    33   18   23 ar  
    34   19   20 ar  
    35   19   36 1   
    36   20   21 ar  
    37   20   37 1   
    38   21   22 ar  
    39   21   38 1   
    40   22   23 ar  
    41   22   39 1   
    42   23   40 1   
@<TRIPOS>SUBSTRUCTURE
     1 PNN         1 TEMP              0 ****  ****    0 ROOT
