@<TRIPOS>MOLECULE
PNN
   41    43     1     0     0
SMALL
bcc


@<TRIPOS>ATOM
      1 O8          0.3560   -0.8910   -0.8830 o         1 PNN     -0.528500
      2 C7          1.4920   -0.6430   -0.5180 c         1 PNN      0.666500
      3 N4          2.1930   -0.3380    0.6750 n         1 PNN     -0.281800
      4 C3          1.8600    0.7530    1.5650 c3        1 PNN     -0.132300
      5 C11         2.4030    0.4720    3.0600 c         1 PNN      0.958600
      6 O13         1.5840    0.8110    3.9410 o         1 PNN     -0.771800
      7 O12         3.5500   -0.0070    3.1730 o         1 PNN     -0.771800
      8 C2          2.4500    2.0880    1.0360 c3        1 PNN      0.113100
      9 C10         2.9980    2.9470    2.1430 c3        1 PNN     -0.100600
     10 C9          1.4590    2.8380    0.1840 c3        1 PNN     -0.100600
     11 S1          3.8820    1.6090   -0.0570 ss        1 PNN     -0.415200
     12 C5          3.4930   -0.1450   -0.0100 cy        1 PNN      0.147800
     13 C6          2.8430   -0.6550   -1.3500 cy        1 PNN     -0.076500
     14 N14         2.8650    0.3190   -2.4520 ny        1 PNN     -0.674800
     15 C15         3.7640   -0.0090   -3.6000 c         1 PNN      0.541100
     16 O16         4.3910   -1.0600   -3.5790 o         1 PNN     -0.430100
     17 C17         3.8300    1.0220   -4.6990 c3        1 PNN     -0.105100
     18 C18         2.7330    2.0220   -4.6710 ca        1 PNN     -0.160300
     19 C19         2.9880    3.3370   -4.2680 ca        1 PNN     -0.124500
     20 C20         1.9620    4.2820   -4.2790 ca        1 PNN     -0.117000
     21 C21         0.6800    3.9200   -4.6920 ca        1 PNN     -0.100000
     22 C22         0.4230    2.6100   -5.1010 ca        1 PNN     -0.117000
     23 C23         1.4450    1.6630   -5.0930 ca        1 PNN     -0.124500
     24 HC3         0.7410    0.8380    1.6480 h1        1 PNN      0.104700
     25 H101        3.3020    3.9480    1.7540 hc        1 PNN      0.058033
     26 H102        3.8790    2.4490    2.6250 hc        1 PNN      0.058033
     27 H103        2.2120    3.0760    2.9330 hc        1 PNN      0.058033
     28 HC91        1.0440    2.1820   -0.6200 hc        1 PNN      0.058033
     29 HC92        0.6090    3.1850    0.8250 hc        1 PNN      0.058033
     30 HC93        1.9300    3.7340   -0.2870 hc        1 PNN      0.058033
     31 HC5         4.3140   -0.7580    0.4250 h2        1 PNN      0.169700
     32 HC6         3.1900   -1.6660   -1.6790 hx        1 PNN      0.149700
     33 H14         3.1770    1.2550   -2.0140 hn        1 PNN      0.478800
     34 H171        3.8210    0.4600   -5.6770 hc        1 PNN      0.117200
     35 H172        4.8350    1.5250   -4.6110 hc        1 PNN      0.117200
     36 H19         4.0000    3.6340   -3.9500 ha        1 PNN      0.142000
     37 H20         2.1680    5.3170   -3.9630 ha        1 PNN      0.153000
     38 H21        -0.1290    4.6680   -4.7010 ha        1 PNN      0.153000
     39 H22        -0.5870    2.3240   -5.4340 ha        1 PNN      0.153000
     40 H23         1.2440    0.6380   -5.4410 ha        1 PNN      0.142000
     41 H142        1.9120    0.4360   -2.8220 hn        1 PNN      0.478800
@<TRIPOS>BOND
     1    1    2 2   
     2    2    3 1   
     3    2   13 1   
     4    3    4 1   
     5    3   12 1   
     6    4    5 1   
     7    4    8 1   
     8    4   24 1   
     9    5    6 1   
    10    5    7 1   
    11    8    9 1   
    12    8   10 1   
    13    8   11 1   
    14    9   25 1   
    15    9   26 1   
    16    9   27 1   
    17   10   28 1   
    18   10   29 1   
    19   10   30 1   
    20   11   12 1   
    21   12   13 1   
    22   12   31 1   
    23   13   14 1   
    24   13   32 1   
    25   14   15 1   
    26   14   33 1   
    27   14   41 1   
    28   15   16 2   
    29   15   17 1   
    30   17   18 1   
    31   17   34 1   
    32   17   35 1   
    33   18   19 ar  
    34   18   23 ar  
    35   19   20 ar  
    36   19   36 1   
    37   20   21 ar  
    38   20   37 1   
    39   21   22 ar  
    40   21   38 1   
    41   22   23 ar  
    42   22   39 1   
    43   23   40 1   
@<TRIPOS>SUBSTRUCTURE
     1 PNN         1 TEMP              0 ****  ****    0 ROOT
