@<TRIPOS>MOLECULE
PNN
   41    43     1     0     0
SMALL
bcc


@<TRIPOS>ATOM
      1 O8          0.6120   -1.5150   -0.2030 o         1 PNN     -0.524500
      2 C7          1.6890   -0.9480   -0.1370 c         1 PNN      0.671500
      3 N4          2.5180   -0.3210    0.8220 n         1 PNN     -0.284800
      4 C3          2.1230    0.7440    1.7160 c3        1 PNN     -0.131300
      5 C11         3.0930    0.7910    3.0100 c         1 PNN      0.958600
      6 O13         2.4730    1.0140    4.0700 o         1 PNN     -0.772300
      7 O12         4.3160    0.6340    2.8120 o         1 PNN     -0.772300
      8 C2          2.1630    2.1130    0.9870 c3        1 PNN      0.128100
      9 C10         2.7150    3.2090    1.8560 c3        1 PNN     -0.101100
     10 C9          0.8220    2.4780    0.4060 c3        1 PNN     -0.101100
     11 S1          3.3440    1.8800   -0.4440 ss        1 PNN     -0.467200
     12 C5          3.5270    0.1120   -0.1730 cy        1 PNN      0.154800
     13 C6          2.7990   -0.7560   -1.2590 cy        1 PNN     -0.078500
     14 N14         2.3340   -0.0330   -2.4580 n4        1 PNN     -0.666800
     15 C15         3.2330   -0.2350   -3.6480 c         1 PNN      0.550100
     16 O16         3.3540   -1.3770   -4.0670 o         1 PNN     -0.433100
     17 C17         3.8920    1.0040   -4.1950 c3        1 PNN     -0.099100
     18 C18         2.9050    2.0680   -4.5160 ca        1 PNN     -0.154300
     19 C19         2.6760    3.1130   -3.6120 ca        1 PNN     -0.119500
     20 C20         1.7820    4.1320   -3.9390 ca        1 PNN     -0.122000
     21 C21         1.1160    4.1150   -5.1650 ca        1 PNN     -0.101000
     22 C22         1.3470    3.0770   -6.0690 ca        1 PNN     -0.122000
     23 C23         2.2420    2.0570   -5.7490 ca        1 PNN     -0.119500
     24 HC3         1.0850    0.5460    2.1020 h1        1 PNN      0.106700
     25 H101        2.1530    3.2270    2.8270 hc        1 PNN      0.058367
     26 H102        2.6170    4.2000    1.3520 hc        1 PNN      0.058367
     27 H103        3.7920    3.0150    2.0950 hc        1 PNN      0.058367
     28 HC91        0.8950    3.3920   -0.2310 hc        1 PNN      0.058367
     29 HC92        0.1040    2.6880    1.2390 hc        1 PNN      0.058367
     30 HC93        0.4090    1.6410   -0.2090 hc        1 PNN      0.058367
     31 HC5         4.5650   -0.1760    0.1080 h2        1 PNN      0.169700
     32 HC6         3.3320   -1.6980   -1.5420 hx        1 PNN      0.142700
     33 H14         2.2980    0.9960   -2.2090 hn        1 PNN      0.476800
     34 H171        4.6430    1.3700   -3.4370 hc        1 PNN      0.117200
     35 H172        4.4580    0.6980   -5.1200 hc        1 PNN      0.117200
     36 H19         3.2090    3.1390   -2.6440 ha        1 PNN      0.151000
     37 H20         1.6100    4.9550   -3.2280 ha        1 PNN      0.150000
     38 H21         0.4140    4.9230   -5.4210 ha        1 PNN      0.149000
     39 H22         0.8290    3.0660   -7.0400 ha        1 PNN      0.150000
     40 H23         2.4340    1.2500   -6.4730 ha        1 PNN      0.151000
     41 H142        1.3910   -0.3680   -2.6860 hn        1 PNN      0.476800
@<TRIPOS>BOND
     1    1    2 2   
     2    2    3 1   
     3    2   13 1   
     4    3    4 1   
     5    3   12 1   
     6    4    5 1   
     7    4    8 1   
     8    4   24 1   
     9    5    6 1   
    10    5    7 1   
    11    8    9 1   
    12    8   10 1   
    13    8   11 1   
    14    9   25 1   
    15    9   26 1   
    16    9   27 1   
    17   10   28 1   
    18   10   29 1   
    19   10   30 1   
    20   11   12 1   
    21   12   13 1   
    22   12   31 1   
    23   13   14 1   
    24   13   32 1   
    25   14   15 1   
    26   14   33 1   
    27   14   41 1   
    28   15   16 2   
    29   15   17 1   
    30   17   18 1   
    31   17   34 1   
    32   17   35 1   
    33   18   19 ar  
    34   18   23 ar  
    35   19   20 ar  
    36   19   36 1   
    37   20   21 ar  
    38   20   37 1   
    39   21   22 ar  
    40   21   38 1   
    41   22   23 ar  
    42   22   39 1   
    43   23   40 1   
@<TRIPOS>SUBSTRUCTURE
     1 PNN         1 TEMP              0 ****  ****    0 ROOT
