@<TRIPOS>MOLECULE
PNN
   41    43     1     0     0
SMALL
bcc


@<TRIPOS>ATOM
      1 O8          0.2570   -0.7780   -0.7850 o         1 PNN     -0.528500
      2 C7          1.4050   -0.5660   -0.4360 c         1 PNN      0.666500
      3 N4          2.1270   -0.2510    0.7430 n         1 PNN     -0.281800
      4 C3          1.8460    0.8840    1.5950 c3        1 PNN     -0.132300
      5 C11         2.3870    0.6320    3.0960 c         1 PNN      0.958600
      6 O13         1.5890    1.0360    3.9690 o         1 PNN     -0.771800
      7 O12         3.5140    0.1090    3.2200 o         1 PNN     -0.771800
      8 C2          2.4870    2.1740    1.0170 c3        1 PNN      0.113100
      9 C10         3.0790    3.0460    2.0900 c3        1 PNN     -0.100600
     10 C9          1.5230    2.9350    0.1450 c3        1 PNN     -0.100600
     11 S1          3.8900    1.5970   -0.0670 ss        1 PNN     -0.415200
     12 C5          3.4280   -0.1370    0.0440 cy        1 PNN      0.147800
     13 C6          2.7480   -0.6650   -1.2740 cy        1 PNN     -0.076500
     14 N14         2.8030    0.2700   -2.4100 n4        1 PNN     -0.674800
     15 C15         3.6800   -0.1360   -3.5510 c         1 PNN      0.541100
     16 O16         4.2620   -1.2120   -3.4960 o         1 PNN     -0.430100
     17 C17         3.7820    0.8520   -4.6840 c3        1 PNN     -0.105100
     18 C18         2.7290    1.8990   -4.6850 ca        1 PNN     -0.160300
     19 C19         3.0440    3.2150   -4.3280 ca        1 PNN     -0.124500
     20 C20         2.0600    4.2030   -4.3650 ca        1 PNN     -0.117000
     21 C21         0.7610    3.8840   -4.7590 ca        1 PNN     -0.100000
     22 C22         0.4440    2.5720   -5.1210 ca        1 PNN     -0.117000
     23 C23         1.4240    1.5830   -5.0870 ca        1 PNN     -0.124500
     24 HC3         0.7320    1.0190    1.6810 h1        1 PNN      0.104700
     25 H101        2.3050    3.2360    2.8800 hc        1 PNN      0.058033
     26 H102        3.4220    4.0190    1.6650 hc        1 PNN      0.058033
     27 H103        3.9420    2.5290    2.5840 hc        1 PNN      0.058033
     28 HC91        0.6930    3.3400    0.7770 hc        1 PNN      0.058033
     29 HC92        2.0280    3.7940   -0.3600 hc        1 PNN      0.058033
     30 HC93        1.0760    2.2690   -0.6340 hc        1 PNN      0.058033
     31 HC5         4.2250   -0.7680    0.4960 h2        1 PNN      0.169700
     32 HC6         3.0500   -1.7000   -1.5690 hx        1 PNN      0.149700
     33 H14         3.1580    1.2060   -2.0060 hn        1 PNN      0.478800
     34 H171        3.7420    0.2580   -5.6420 hc        1 PNN      0.117200
     35 H172        4.8090    1.3140   -4.6210 hc        1 PNN      0.117200
     36 H19         4.0700    3.4780   -4.0270 ha        1 PNN      0.142000
     37 H20         2.3130    5.2380   -4.0860 ha        1 PNN      0.153000
     38 H21        -0.0150    4.6650   -4.7890 ha        1 PNN      0.153000
     39 H22        -0.5790    2.3200   -5.4400 ha        1 PNN      0.153000
     40 H23         1.1770    0.5560   -5.3980 ha        1 PNN      0.142000
     41 H142        1.8540    0.4140   -2.7790 hn        1 PNN      0.478800
@<TRIPOS>BOND
     1    1    2 2   
     2    2    3 1   
     3    2   13 1   
     4    3    4 1   
     5    3   12 1   
     6    4    5 1   
     7    4    8 1   
     8    4   24 1   
     9    5    6 1   
    10    5    7 1   
    11    8    9 1   
    12    8   10 1   
    13    8   11 1   
    14    9   25 1   
    15    9   26 1   
    16    9   27 1   
    17   10   28 1   
    18   10   29 1   
    19   10   30 1   
    20   11   12 1   
    21   12   13 1   
    22   12   31 1   
    23   13   14 1   
    24   13   32 1   
    25   14   15 1   
    26   14   33 1   
    27   14   41 1   
    28   15   16 2   
    29   15   17 1   
    30   17   18 1   
    31   17   34 1   
    32   17   35 1   
    33   18   19 ar  
    34   18   23 ar  
    35   19   20 ar  
    36   19   36 1   
    37   20   21 ar  
    38   20   37 1   
    39   21   22 ar  
    40   21   38 1   
    41   22   23 ar  
    42   22   39 1   
    43   23   40 1   
@<TRIPOS>SUBSTRUCTURE
     1 PNN         1 TEMP              0 ****  ****    0 ROOT
