@<TRIPOS>MOLECULE
PNO
   11    10     1     0     0
SMALL
bcc


@<TRIPOS>ATOM
      1 N1         -1.5330   -0.4250    0.1240 n3        1 PNO     -1.108900
      2 P1          0.1190   -0.4250    0.1240 p5        1 PNO      1.574200
      3 O1          0.6460   -0.4250    1.6140 oh        1 PNO     -0.805400
      4 O2          0.6130   -1.6340   -0.5740 o         1 PNO     -0.874300
      5 C1          0.7240    1.0570   -0.7320 c3        1 PNO     -0.441300
      6 HN1        -1.9890   -0.9150   -0.4960 hn        1 PNO      0.434300
      7 HN2        -1.9890    0.0440    0.7590 hn        1 PNO      0.434300
      8 HO1         0.9100   -1.2440    1.8350 ho        1 PNO      0.472000
      9 H1          0.4250    1.8540   -0.2540 hc        1 PNO      0.105033
     10 H2          1.7000    1.0420   -0.7590 hc        1 PNO      0.105033
     11 H3          0.3740    1.0730   -1.6430 hc        1 PNO      0.105033
@<TRIPOS>BOND
     1    1    2 1   
     2    1    6 1   
     3    1    7 1   
     4    2    3 1   
     5    2    4 2   
     6    2    5 1   
     7    3    8 1   
     8    5    9 1   
     9    5   10 1   
    10    5   11 1   
@<TRIPOS>SUBSTRUCTURE
     1 PNO         1 TEMP              0 ****  ****    0 ROOT
