@<TRIPOS>MOLECULE
PNO
   11    10     1     0     0
SMALL
bcc


@<TRIPOS>ATOM
      1 N1         -1.1540   -0.6380   -0.8980 n3        1 PNO     -1.108900
      2 P1          0.0360   -0.1270   -0.0010 p5        1 PNO      1.574200
      3 O1          1.2860   -1.1460   -0.2040 oh        1 PNO     -0.805400
      4 O2          0.5700    1.1940   -0.3500 o         1 PNO     -0.874300
      5 C1         -0.3670   -0.3820    1.5770 c3        1 PNO     -0.441300
      6 HN1        -1.6020   -1.5090   -0.8000 hn        1 PNO      0.434300
      7 HN2        -1.4710   -0.1370   -1.6880 hn        1 PNO      0.434300
      8 HO1         2.0600   -0.7540   -0.5990 ho        1 PNO      0.472000
      9 H1          0.1880    0.3260    2.2430 hc        1 PNO      0.105033
     10 H2         -1.4490   -0.2360    1.8110 hc        1 PNO      0.105033
     11 H3         -0.1020   -1.4090    1.9310 hc        1 PNO      0.105033
@<TRIPOS>BOND
     1    1    2 1   
     2    1    6 1   
     3    1    7 1   
     4    2    3 1   
     5    2    4 2   
     6    2    5 1   
     7    3    8 1   
     8    5    9 1   
     9    5   10 1   
    10    5   11 1   
@<TRIPOS>SUBSTRUCTURE
     1 PNO         1 TEMP              0 ****  ****    0 ROOT
