@<TRIPOS>MOLECULE
PNP
   21    21     1     0     0
SMALL
bcc


@<TRIPOS>ATOM
      1 C1         -0.0480   -0.4310    0.4970 ca        1 PNP      0.317100
      2 C2          1.1730   -0.5040   -0.2230 ca        1 PNP     -0.214000
      3 C3          1.1870   -0.3950   -1.6000 ca        1 PNP     -0.042000
      4 C4         -0.0230   -0.2170   -2.3020 ca        1 PNP     -0.261200
      5 C5         -1.2420   -0.1190   -1.6010 ca        1 PNP     -0.042000
      6 C6         -1.2540   -0.2280   -0.2230 ca        1 PNP     -0.214000
      7 CM         -0.0460   -0.4110    4.3480 c3        1 PNP     -0.381300
      8 N          -0.0120   -0.1270   -3.7680 no        1 PNP      0.324200
      9 O1N        -1.0500    0.0240   -4.3670 o         1 PNP     -0.254000
     10 O2N         1.0330   -0.2120   -4.3670 o         1 PNP     -0.254000
     11 P           0.0660    0.5740    2.9990 p5        1 PNP      1.357600
     12 O1P        -0.0750   -0.6640    1.8040 os        1 PNP     -0.487500
     13 O2P        -1.1540    1.3760    2.8020 o         1 PNP     -0.837500
     14 O3P         1.4350    1.0820    2.8030 o         1 PNP     -0.837500
     15 H2          2.1110   -0.6230    0.3410 ha        1 PNP      0.162000
     16 H3          2.1390   -0.4490   -2.1530 ha        1 PNP      0.147000
     17 H5         -2.1820    0.0420   -2.1540 ha        1 PNP      0.147000
     18 H6         -2.1950   -0.1340    0.3400 ha        1 PNP      0.162000
     19 HM1        -0.9220   -0.1350    4.9780 hc        1 PNP      0.069700
     20 HM2        -0.1680   -1.4820    4.0670 hc        1 PNP      0.069700
     21 HM3         0.8680   -0.3380    4.9790 hc        1 PNP      0.069700
@<TRIPOS>BOND
     1    1    2 ar  
     2    1    6 ar  
     3    1   12 1   
     4    2    3 ar  
     5    2   15 1   
     6    3    4 ar  
     7    3   16 1   
     8    4    5 ar  
     9    4    8 1   
    10    5    6 ar  
    11    5   17 1   
    12    6   18 1   
    13    7   11 1   
    14    7   19 1   
    15    7   20 1   
    16    7   21 1   
    17    8    9 1   
    18    8   10 1   
    19   11   12 1   
    20   11   13 1   
    21   11   14 1   
@<TRIPOS>SUBSTRUCTURE
     1 PNP         1 TEMP              0 ****  ****    0 ROOT
