@<TRIPOS>MOLECULE
PNP
   21    18     1     0     0
SMALL
bcc


@<TRIPOS>ATOM
      1 C1         -0.1460    0.4270   -0.1160 c1        1 PNP      0.300600
      2 C2          1.2380    0.5020   -0.0800 c1        1 PNP     -0.070500
      3 C3          1.9010    0.5160    1.1370 c1        1 PNP     -0.070500
      4 C4          1.1800    0.4550    2.3190 c1        1 PNP     -0.270300
      5 C5         -0.2040    0.3800    2.2840 c1        1 PNP      0.015500
      6 C6         -0.8670    0.3660    1.0660 c1        1 PNP     -0.156500
      7 CM         -1.9930   -0.5770   -3.6360 c3        1 PNP     -0.381300
      8 N           1.8580    0.4660    3.5660 no        1 PNP      0.333300
      9 O1N         1.2210    0.5120    4.6090 o         1 PNP     -0.254000
     10 O2N         3.2220    0.4120    3.6010 o         1 PNP     -0.254000
     11 P          -0.9520   -0.8700   -2.1780 p5        1 PNP      1.357600
     12 O1P        -0.8200    0.4670   -1.3470 os        1 PNP     -0.471000
     13 O2P        -1.5830   -1.9380   -1.3160 o         1 PNP     -0.837500
     14 O3P         0.4180   -1.3260   -2.6210 o         1 PNP     -0.837500
     15 H2          1.7460    0.5450   -0.9130 ha        1 PNP      0.097000
     16 H3          2.8730    0.5880    1.1620 ha        1 PNP      0.097000
     17 H5         -0.7120    0.3360    3.1160 ha        1 PNP      0.089500
     18 H6         -1.8410    0.3130    1.0420 ha        1 PNP      0.104500
     19 HM1        -2.9040   -0.8860   -3.4540 hc        1 PNP      0.069700
     20 HM2        -2.0070    0.3820   -3.8390 hc        1 PNP      0.069700
     21 HM3        -1.6280   -1.0680   -4.4020 hc        1 PNP      0.069700
@<TRIPOS>BOND
     1    1    6 3   
     2    1   12 1   
     3    2    3 3   
     4    2   15 1   
     5    3   16 1   
     6    4    5 3   
     7    4    8 1   
     8    5   17 1   
     9    6   18 1   
    10    7   11 1   
    11    7   19 1   
    12    7   20 1   
    13    7   21 1   
    14    8    9 1   
    15    8   10 1   
    16   11   12 1   
    17   11   13 1   
    18   11   14 1   
@<TRIPOS>SUBSTRUCTURE
     1 PNP         1 TEMP              0 ****  ****    0 ROOT
