@<TRIPOS>MOLECULE
PNP
   21    21     1     0     0
SMALL
bcc


@<TRIPOS>ATOM
      1 C1          0.0480   -0.3660    0.0460 ca        1 PNP      0.317100
      2 C2          1.4670   -0.3210    0.0560 ca        1 PNP     -0.214000
      3 C3          2.1550   -0.0820    1.2300 ca        1 PNP     -0.042000
      4 C4          1.4450    0.1230    2.4310 ca        1 PNP     -0.261200
      5 C5          0.0370    0.0580    2.4420 ca        1 PNP     -0.042000
      6 C6         -0.6500   -0.1810    1.2670 ca        1 PNP     -0.214000
      7 CM         -1.8500   -1.3480   -3.1590 c3        1 PNP     -0.381300
      8 N           2.1750    0.4020    3.6750 no        1 PNP      0.324200
      9 O1N         1.5650    0.5790    4.7020 o         1 PNP     -0.254000
     10 O2N         3.3810    0.4600    3.6620 o         1 PNP     -0.254000
     11 P          -1.1130   -1.9690   -1.7890 p5        1 PNP      1.357600
     12 O1P        -0.6140   -0.4670   -1.1010 os        1 PNP     -0.487500
     13 O2P        -2.0970   -2.4780   -0.8190 o         1 PNP     -0.837500
     14 O3P         0.1610   -2.6370   -2.1080 o         1 PNP     -0.837500
     15 H2          2.0070   -0.5040   -0.8850 ha        1 PNP      0.162000
     16 H3          3.2570   -0.0510    1.2330 ha        1 PNP      0.147000
     17 H5         -0.5110    0.1980    3.3890 ha        1 PNP      0.147000
     18 H6         -1.7480   -0.2560    1.2630 ha        1 PNP      0.162000
     19 HM1        -1.7870   -0.2360   -3.1910 hc        1 PNP      0.069700
     20 HM2        -2.9300   -1.6170   -3.1930 hc        1 PNP      0.069700
     21 HM3        -1.3690   -1.7320   -4.0860 hc        1 PNP      0.069700
@<TRIPOS>BOND
     1    1    2 ar  
     2    1    6 ar  
     3    1   12 1   
     4    2    3 ar  
     5    2   15 1   
     6    3    4 ar  
     7    3   16 1   
     8    4    5 ar  
     9    4    8 1   
    10    5    6 ar  
    11    5   17 1   
    12    6   18 1   
    13    7   11 1   
    14    7   19 1   
    15    7   20 1   
    16    7   21 1   
    17    8    9 1   
    18    8   10 1   
    19   11   12 1   
    20   11   13 1   
    21   11   14 1   
@<TRIPOS>SUBSTRUCTURE
     1 PNP         1 TEMP              0 ****  ****    0 ROOT
