@<TRIPOS>MOLECULE
PNP
   21    21     1     0     0
SMALL
bcc


@<TRIPOS>ATOM
      1 C1          0.0230   -0.3650    0.0620 ca        1 PNP      0.317100
      2 C2          1.4280   -0.1680    0.0800 ca        1 PNP     -0.214000
      3 C3          2.0920    0.0620    1.2700 ca        1 PNP     -0.042000
      4 C4          1.3690    0.1070    2.4790 ca        1 PNP     -0.261200
      5 C5         -0.0240   -0.1110    2.4820 ca        1 PNP     -0.042000
      6 C6         -0.6860   -0.3400    1.2910 ca        1 PNP     -0.214000
      7 CM         -1.7730   -1.3220   -3.2080 c3        1 PNP     -0.381300
      8 N           2.0710    0.3760    3.7410 no        1 PNP      0.324200
      9 O1N         1.4500    0.4160    4.7760 o         1 PNP     -0.254000
     10 O2N         3.2640    0.5640    3.7360 o         1 PNP     -0.254000
     11 P          -0.9620   -1.9530   -1.8850 p5        1 PNP      1.357600
     12 O1P        -0.6300   -0.4570   -1.0900 os        1 PNP     -0.487500
     13 O2P        -1.8770   -2.6370   -0.9560 o         1 PNP     -0.837500
     14 O3P         0.3770   -2.4490   -2.2480 o         1 PNP     -0.837500
     15 H2          1.9800   -0.2260   -0.8700 ha        1 PNP      0.162000
     16 H3          3.1840    0.2110    1.2770 ha        1 PNP      0.147000
     17 H5         -0.5790   -0.0960    3.4340 ha        1 PNP      0.147000
     18 H6         -1.7700   -0.5320    1.2790 ha        1 PNP      0.162000
     19 HM1        -1.8380   -0.2110   -3.1590 hc        1 PNP      0.069700
     20 HM2        -1.2560   -1.5800   -4.1600 hc        1 PNP      0.069700
     21 HM3        -2.8140   -1.7110   -3.2660 hc        1 PNP      0.069700
@<TRIPOS>BOND
     1    1    2 ar  
     2    1    6 ar  
     3    1   12 1   
     4    2    3 ar  
     5    2   15 1   
     6    3    4 ar  
     7    3   16 1   
     8    4    5 ar  
     9    4    8 1   
    10    5    6 ar  
    11    5   17 1   
    12    6   18 1   
    13    7   11 1   
    14    7   19 1   
    15    7   20 1   
    16    7   21 1   
    17    8    9 1   
    18    8   10 1   
    19   11   12 1   
    20   11   13 1   
    21   11   14 1   
@<TRIPOS>SUBSTRUCTURE
     1 PNP         1 TEMP              0 ****  ****    0 ROOT
