@<TRIPOS>MOLECULE
PNP
   21    21     1     0     0
SMALL
bcc


@<TRIPOS>ATOM
      1 C1          0.0540   -0.3670    0.0430 ca        1 PNP      0.317100
      2 C2          1.4730   -0.3480    0.0680 ca        1 PNP     -0.214000
      3 C3          2.1540   -0.1100    1.2470 ca        1 PNP     -0.042000
      4 C4          1.4350    0.1230    2.4370 ca        1 PNP     -0.261200
      5 C5          0.0260    0.0850    2.4340 ca        1 PNP     -0.042000
      6 C6         -0.6540   -0.1540    1.2540 ca        1 PNP     -0.214000
      7 CM         -1.8290   -1.3470   -3.1710 c3        1 PNP     -0.381300
      8 N           2.1570    0.4010    3.6850 no        1 PNP      0.324200
      9 O1N         1.5400    0.6020    4.7040 o         1 PNP     -0.254000
     10 O2N         3.3640    0.4350    3.6850 o         1 PNP     -0.254000
     11 P          -1.1150   -1.9680   -1.7890 p5        1 PNP      1.357600
     12 O1P        -0.5980   -0.4670   -1.1090 os        1 PNP     -0.487500
     13 O2P        -2.1160   -2.4520   -0.8240 o         1 PNP     -0.837500
     14 O3P         0.1510   -2.6590   -2.0890 o         1 PNP     -0.837500
     15 H2          2.0190   -0.5530   -0.8660 ha        1 PNP      0.162000
     16 H3          3.2560   -0.1010    1.2600 ha        1 PNP      0.147000
     17 H5         -0.5290    0.2460    3.3730 ha        1 PNP      0.147000
     18 H6         -1.7530   -0.2070    1.2390 ha        1 PNP      0.162000
     19 HM1        -2.9120   -1.6020   -3.2150 hc        1 PNP      0.069700
     20 HM2        -1.7500   -0.2370   -3.2120 hc        1 PNP      0.069700
     21 HM3        -1.3440   -1.7460   -4.0900 hc        1 PNP      0.069700
@<TRIPOS>BOND
     1    1    2 ar  
     2    1    6 ar  
     3    1   12 1   
     4    2    3 ar  
     5    2   15 1   
     6    3    4 ar  
     7    3   16 1   
     8    4    5 ar  
     9    4    8 1   
    10    5    6 ar  
    11    5   17 1   
    12    6   18 1   
    13    7   11 1   
    14    7   19 1   
    15    7   20 1   
    16    7   21 1   
    17    8    9 1   
    18    8   10 1   
    19   11   12 1   
    20   11   13 1   
    21   11   14 1   
@<TRIPOS>SUBSTRUCTURE
     1 PNP         1 TEMP              0 ****  ****    0 ROOT
