@<TRIPOS>MOLECULE
PNR
   62    62     1     0     0
SMALL
bcc


@<TRIPOS>ATOM
      1 O2          0.8460   -0.9340    0.5320 o         1 PNR     -0.209500
      2 N1          2.0030   -0.6530    0.3630 no        1 PNR      0.316200
      3 O1          2.7930   -0.6350    1.2690 o         1 PNR     -0.209500
      4 C22         2.4710   -0.3220   -1.0060 ca        1 PNR     -0.195200
      5 C21         3.8240    0.0010   -1.2150 ca        1 PNR     -0.050000
      6 C20         4.2620    0.3140   -2.4950 ca        1 PNR     -0.155000
      7 C23         1.5580   -0.3340   -2.0730 ca        1 PNR     -0.050000
      8 C24         1.9980   -0.0270   -3.3570 ca        1 PNR     -0.155000
      9 C19         3.3460    0.2940   -3.5620 ca        1 PNR      0.159100
     10 O18         3.9000    0.5140   -4.8140 os        1 PNR     -0.373200
     11 C16         3.2180    1.2240   -5.7850 c         1 PNR      0.645100
     12 O17         2.1160    1.6930   -5.5210 o         1 PNR     -0.510000
     13 C15         4.0060    1.2790   -7.0570 c3        1 PNR     -0.126400
     14 C14         3.8700    2.6370   -7.7160 c3        1 PNR     -0.080400
     15 C13         4.5540    2.6450   -9.0660 c3        1 PNR     -0.078400
     16 C12         4.4380    4.0030   -9.7250 c3        1 PNR     -0.079400
     17 C11         5.1150    4.0150  -11.0780 c3        1 PNR     -0.079400
     18 C10         5.0000    5.3720  -11.7370 c3        1 PNR     -0.079400
     19 C9          5.6760    5.3850  -13.0910 c3        1 PNR     -0.079400
     20 C8          5.5590    6.7420  -13.7510 c3        1 PNR     -0.079400
     21 C7          6.2330    6.7540  -15.1060 c3        1 PNR     -0.079400
     22 C6          6.1150    8.1110  -15.7660 c3        1 PNR     -0.079400
     23 C5          6.7880    8.1230  -17.1220 c3        1 PNR     -0.078400
     24 C4          6.6690    9.4800  -17.7820 c3        1 PNR     -0.079400
     25 C3          7.3430    9.4930  -19.1370 c3        1 PNR     -0.079400
     26 C2          7.2240   10.8500  -19.7990 c3        1 PNR     -0.080400
     27 C1          7.8940   10.8670  -21.1490 c3        1 PNR     -0.092100
     28 H1          4.5310    0.0100   -0.3670 ha        1 PNR      0.174500
     29 H2          5.3160    0.5670   -2.6840 ha        1 PNR      0.167500
     30 H3          0.4980   -0.5860   -1.8960 ha        1 PNR      0.174500
     31 H4          1.2870   -0.0190   -4.1980 ha        1 PNR      0.167500
     32 H5          5.0840    1.0480   -6.8480 hc        1 PNR      0.084200
     33 H6          3.6060    0.4740   -7.7320 hc        1 PNR      0.084200
     34 H7          2.7830    2.8890   -7.8340 hc        1 PNR      0.059700
     35 H8          4.3230    3.4230   -7.0560 hc        1 PNR      0.059700
     36 H9          4.0920    1.8660   -9.7280 hc        1 PNR      0.042700
     37 H10         5.6360    2.3770   -8.9440 hc        1 PNR      0.042700
     38 H11         4.9020    4.7820   -9.0640 hc        1 PNR      0.043700
     39 H12         3.3550    4.2720   -9.8430 hc        1 PNR      0.043700
     40 H13         6.1980    3.7450  -10.9600 hc        1 PNR      0.040200
     41 H14         4.6510    3.2350  -11.7380 hc        1 PNR      0.040200
     42 H15         3.9170    5.6420  -11.8550 hc        1 PNR      0.040700
     43 H16         5.4650    6.1520  -11.0780 hc        1 PNR      0.040700
     44 H17         6.7590    5.1160  -12.9740 hc        1 PNR      0.039700
     45 H18         5.2110    4.6040  -13.7510 hc        1 PNR      0.039700
     46 H19         6.0240    7.5220  -13.0920 hc        1 PNR      0.039700
     47 H20         4.4760    7.0110  -13.8680 hc        1 PNR      0.039700
     48 H21         5.7690    5.9730  -15.7650 hc        1 PNR      0.039700
     49 H22         7.3160    6.4860  -14.9890 hc        1 PNR      0.039700
     50 H23         6.5790    8.8920  -15.1080 hc        1 PNR      0.039700
     51 H24         5.0310    8.3790  -15.8820 hc        1 PNR      0.039700
     52 H25         7.8720    7.8560  -17.0060 hc        1 PNR      0.039700
     53 H26         6.3240    7.3430  -17.7800 hc        1 PNR      0.039700
     54 H27         7.1340   10.2610  -17.1240 hc        1 PNR      0.039700
     55 H28         5.5860    9.7480  -17.8980 hc        1 PNR      0.039700
     56 H29         8.4260    9.2250  -19.0220 hc        1 PNR      0.039700
     57 H30         6.8780    8.7130  -19.7960 hc        1 PNR      0.039700
     58 H31         6.1400   11.1170  -19.9120 hc        1 PNR      0.038700
     59 H32         7.6880   11.6290  -19.1380 hc        1 PNR      0.038700
     60 H33         7.7950   11.8760  -21.6180 hc        1 PNR      0.032700
     61 H34         8.9800   10.6280  -21.0530 hc        1 PNR      0.032700
     62 H35         7.4280   10.1140  -21.8290 hc        1 PNR      0.032700
@<TRIPOS>BOND
     1    1    2 1   
     2    2    3 1   
     3    2    4 1   
     4    4    5 ar  
     5    4    7 ar  
     6    5    6 ar  
     7    5   28 1   
     8    6    9 ar  
     9    6   29 1   
    10    7    8 ar  
    11    7   30 1   
    12    8    9 ar  
    13    8   31 1   
    14    9   10 1   
    15   10   11 1   
    16   11   12 2   
    17   11   13 1   
    18   13   14 1   
    19   13   32 1   
    20   13   33 1   
    21   14   15 1   
    22   14   34 1   
    23   14   35 1   
    24   15   16 1   
    25   15   36 1   
    26   15   37 1   
    27   16   17 1   
    28   16   38 1   
    29   16   39 1   
    30   17   18 1   
    31   17   40 1   
    32   17   41 1   
    33   18   19 1   
    34   18   42 1   
    35   18   43 1   
    36   19   20 1   
    37   19   44 1   
    38   19   45 1   
    39   20   21 1   
    40   20   46 1   
    41   20   47 1   
    42   21   22 1   
    43   21   48 1   
    44   21   49 1   
    45   22   23 1   
    46   22   50 1   
    47   22   51 1   
    48   23   24 1   
    49   23   52 1   
    50   23   53 1   
    51   24   25 1   
    52   24   54 1   
    53   24   55 1   
    54   25   26 1   
    55   25   56 1   
    56   25   57 1   
    57   26   27 1   
    58   26   58 1   
    59   26   59 1   
    60   27   60 1   
    61   27   61 1   
    62   27   62 1   
@<TRIPOS>SUBSTRUCTURE
     1 PNR         1 TEMP              0 ****  ****    0 ROOT
