@<TRIPOS>MOLECULE
PNR
   62    62     1     0     0
SMALL
bcc


@<TRIPOS>ATOM
      1 O2          0.8560   -0.9380    0.5330 o         1 PNR     -0.209500
      2 N1          2.0120   -0.6560    0.3630 no        1 PNR      0.316200
      3 O1          2.8030   -0.6360    1.2680 o         1 PNR     -0.209500
      4 C22         2.4780   -0.3250   -1.0070 ca        1 PNR     -0.195200
      5 C21         3.8310   -0.0010   -1.2180 ca        1 PNR     -0.050000
      6 C20         4.2670    0.3110   -2.4990 ca        1 PNR     -0.155000
      7 C23         1.5630   -0.3380   -2.0720 ca        1 PNR     -0.050000
      8 C24         2.0020   -0.0310   -3.3570 ca        1 PNR     -0.155000
      9 C19         3.3490    0.2900   -3.5640 ca        1 PNR      0.159100
     10 O18         3.9010    0.5100   -4.8170 os        1 PNR     -0.373200
     11 C16         3.2170    1.2200   -5.7880 c         1 PNR      0.645100
     12 O17         2.1160    1.6890   -5.5210 o         1 PNR     -0.510000
     13 C15         4.0040    1.2760   -7.0610 c3        1 PNR     -0.126400
     14 C14         3.8690    2.6340   -7.7170 c3        1 PNR     -0.080400
     15 C13         4.5500    2.6430   -9.0690 c3        1 PNR     -0.078400
     16 C12         4.4360    4.0020   -9.7250 c3        1 PNR     -0.079400
     17 C11         5.1110    4.0140  -11.0800 c3        1 PNR     -0.079400
     18 C10         4.9970    5.3730  -11.7370 c3        1 PNR     -0.079400
     19 C9          5.6710    5.3850  -13.0920 c3        1 PNR     -0.079400
     20 C8          5.5560    6.7440  -13.7500 c3        1 PNR     -0.079400
     21 C7          6.2290    6.7560  -15.1060 c3        1 PNR     -0.079400
     22 C6          6.1130    8.1140  -15.7640 c3        1 PNR     -0.079400
     23 C5          6.7860    8.1270  -17.1200 c3        1 PNR     -0.078400
     24 C4          6.6700    9.4840  -17.7790 c3        1 PNR     -0.079400
     25 C3          7.3430    9.4970  -19.1350 c3        1 PNR     -0.079400
     26 C2          7.2260   10.8540  -19.7950 c3        1 PNR     -0.080400
     27 C1          7.8950   10.8710  -21.1460 c3        1 PNR     -0.092100
     28 H1          4.5390    0.0080   -0.3710 ha        1 PNR      0.174500
     29 H2          5.3200    0.5640   -2.6890 ha        1 PNR      0.167500
     30 H3          0.5040   -0.5900   -1.8940 ha        1 PNR      0.174500
     31 H4          1.2900   -0.0240   -4.1970 ha        1 PNR      0.167500
     32 H5          3.6010    0.4720   -7.7350 hc        1 PNR      0.084200
     33 H6          5.0820    1.0420   -6.8530 hc        1 PNR      0.084200
     34 H7          4.3260    3.4180   -7.0570 hc        1 PNR      0.059700
     35 H8          2.7820    2.8890   -7.8320 hc        1 PNR      0.059700
     36 H9          5.6330    2.3730   -8.9490 hc        1 PNR      0.042700
     37 H10         4.0850    1.8650   -9.7310 hc        1 PNR      0.042700
     38 H11         4.9040    4.7800   -9.0650 hc        1 PNR      0.043700
     39 H12         3.3540    4.2740   -9.8410 hc        1 PNR      0.043700
     40 H13         6.1930    3.7420  -10.9640 hc        1 PNR      0.040200
     41 H14         4.6440    3.2370  -11.7400 hc        1 PNR      0.040200
     42 H15         3.9140    5.6450  -11.8530 hc        1 PNR      0.040700
     43 H16         5.4650    6.1510  -11.0770 hc        1 PNR      0.040700
     44 H17         6.7530    5.1140  -12.9770 hc        1 PNR      0.039700
     45 H18         5.2040    4.6070  -13.7520 hc        1 PNR      0.039700
     46 H19         6.0230    7.5220  -13.0910 hc        1 PNR      0.039700
     47 H20         4.4730    7.0150  -13.8660 hc        1 PNR      0.039700
     48 H21         5.7620    5.9780  -15.7650 hc        1 PNR      0.039700
     49 H22         7.3120    6.4850  -14.9910 hc        1 PNR      0.039700
     50 H23         6.5800    8.8930  -15.1050 hc        1 PNR      0.039700
     51 H24         5.0310    8.3850  -15.8800 hc        1 PNR      0.039700
     52 H25         6.3200    7.3480  -17.7790 hc        1 PNR      0.039700
     53 H26         7.8690    7.8560  -17.0050 hc        1 PNR      0.039700
     54 H27         5.5870    9.7550  -17.8940 hc        1 PNR      0.039700
     55 H28         7.1370   10.2630  -17.1200 hc        1 PNR      0.039700
     56 H29         6.8760    8.7180  -19.7940 hc        1 PNR      0.039700
     57 H30         8.4250    9.2260  -19.0200 hc        1 PNR      0.039700
     58 H31         6.1430   11.1230  -19.9070 hc        1 PNR      0.038700
     59 H32         7.6930   11.6320  -19.1340 hc        1 PNR      0.038700
     60 H33         7.7980   11.8800  -21.6140 hc        1 PNR      0.032700
     61 H34         8.9810   10.6290  -21.0510 hc        1 PNR      0.032700
     62 H35         7.4270   10.1190  -21.8270 hc        1 PNR      0.032700
@<TRIPOS>BOND
     1    1    2 1   
     2    2    3 1   
     3    2    4 1   
     4    4    5 ar  
     5    4    7 ar  
     6    5    6 ar  
     7    5   28 1   
     8    6    9 ar  
     9    6   29 1   
    10    7    8 ar  
    11    7   30 1   
    12    8    9 ar  
    13    8   31 1   
    14    9   10 1   
    15   10   11 1   
    16   11   12 2   
    17   11   13 1   
    18   13   14 1   
    19   13   32 1   
    20   13   33 1   
    21   14   15 1   
    22   14   34 1   
    23   14   35 1   
    24   15   16 1   
    25   15   36 1   
    26   15   37 1   
    27   16   17 1   
    28   16   38 1   
    29   16   39 1   
    30   17   18 1   
    31   17   40 1   
    32   17   41 1   
    33   18   19 1   
    34   18   42 1   
    35   18   43 1   
    36   19   20 1   
    37   19   44 1   
    38   19   45 1   
    39   20   21 1   
    40   20   46 1   
    41   20   47 1   
    42   21   22 1   
    43   21   48 1   
    44   21   49 1   
    45   22   23 1   
    46   22   50 1   
    47   22   51 1   
    48   23   24 1   
    49   23   52 1   
    50   23   53 1   
    51   24   25 1   
    52   24   54 1   
    53   24   55 1   
    54   25   26 1   
    55   25   56 1   
    56   25   57 1   
    57   26   27 1   
    58   26   58 1   
    59   26   59 1   
    60   27   60 1   
    61   27   61 1   
    62   27   62 1   
@<TRIPOS>SUBSTRUCTURE
     1 PNR         1 TEMP              0 ****  ****    0 ROOT
