@<TRIPOS>MOLECULE
PNR
   62    62     1     0     0
SMALL
bcc


@<TRIPOS>ATOM
      1 O2          0.8590   -0.9400    0.5320 o         1 PNR     -0.209500
      2 N1          2.0120   -0.6440    0.3650 no        1 PNR      0.316200
      3 O1          2.7990   -0.6090    1.2730 o         1 PNR     -0.209500
      4 C22         2.4790   -0.3150   -1.0060 ca        1 PNR     -0.195200
      5 C21         3.8280    0.0250   -1.2130 ca        1 PNR     -0.050000
      6 C20         4.2650    0.3350   -2.4940 ca        1 PNR     -0.155000
      7 C23         1.5690   -0.3460   -2.0740 ca        1 PNR     -0.050000
      8 C24         2.0080   -0.0420   -3.3590 ca        1 PNR     -0.155000
      9 C19         3.3520    0.2960   -3.5630 ca        1 PNR      0.159100
     10 O18         3.9060    0.5160   -4.8150 os        1 PNR     -0.373200
     11 C16         3.2170    1.2110   -5.7920 c         1 PNR      0.645100
     12 O17         2.1080    1.6660   -5.5330 o         1 PNR     -0.510000
     13 C15         4.0080    1.2700   -7.0620 c3        1 PNR     -0.126400
     14 C14         3.8640    2.6260   -7.7230 c3        1 PNR     -0.080400
     15 C13         4.5510    2.6380   -9.0710 c3        1 PNR     -0.078400
     16 C12         4.4280    3.9940   -9.7310 c3        1 PNR     -0.079400
     17 C11         5.1110    4.0100  -11.0820 c3        1 PNR     -0.079400
     18 C10         4.9890    5.3660  -11.7420 c3        1 PNR     -0.079400
     19 C9          5.6700    5.3820  -13.0940 c3        1 PNR     -0.079400
     20 C8          5.5490    6.7390  -13.7540 c3        1 PNR     -0.079400
     21 C7          6.2300    6.7550  -15.1050 c3        1 PNR     -0.079400
     22 C6          6.1080    8.1120  -15.7660 c3        1 PNR     -0.079400
     23 C5          6.7900    8.1280  -17.1170 c3        1 PNR     -0.078400
     24 C4          6.6680    9.4840  -17.7780 c3        1 PNR     -0.079400
     25 C3          7.3490    9.5010  -19.1290 c3        1 PNR     -0.079400
     26 C2          7.2280   10.8570  -19.7910 c3        1 PNR     -0.080400
     27 C1          7.9050   10.8780  -21.1370 c3        1 PNR     -0.092100
     28 H1          4.5320    0.0490   -0.3630 ha        1 PNR      0.174500
     29 H2          5.3160    0.6010   -2.6820 ha        1 PNR      0.167500
     30 H3          0.5120   -0.6120   -1.8980 ha        1 PNR      0.174500
     31 H4          1.2990   -0.0490   -4.2020 ha        1 PNR      0.167500
     32 H5          3.6140    0.4620   -7.7370 hc        1 PNR      0.084200
     33 H6          5.0870    1.0460   -6.8510 hc        1 PNR      0.084200
     34 H7          4.3100    3.4160   -7.0620 hc        1 PNR      0.059700
     35 H8          2.7750    2.8700   -7.8440 hc        1 PNR      0.059700
     36 H9          5.6360    2.3770   -8.9450 hc        1 PNR      0.042700
     37 H10         4.0970    1.8550   -9.7340 hc        1 PNR      0.042700
     38 H11         4.8850    4.7770   -9.0700 hc        1 PNR      0.043700
     39 H12         3.3440    4.2560   -9.8530 hc        1 PNR      0.043700
     40 H13         6.1940    3.7470  -10.9600 hc        1 PNR      0.040200
     41 H14         4.6530    3.2270  -11.7430 hc        1 PNR      0.040200
     42 H15         3.9050    5.6300  -11.8640 hc        1 PNR      0.040700
     43 H16         5.4460    6.1490  -11.0810 hc        1 PNR      0.040700
     44 H17         6.7540    5.1190  -12.9720 hc        1 PNR      0.039700
     45 H18         5.2130    4.6000  -13.7550 hc        1 PNR      0.039700
     46 H19         6.0060    7.5210  -13.0930 hc        1 PNR      0.039700
     47 H20         4.4650    7.0020  -13.8760 hc        1 PNR      0.039700
     48 H21         5.7730    5.9730  -15.7670 hc        1 PNR      0.039700
     49 H22         7.3140    6.4920  -14.9830 hc        1 PNR      0.039700
     50 H23         6.5660    8.8940  -15.1040 hc        1 PNR      0.039700
     51 H24         5.0240    8.3750  -15.8880 hc        1 PNR      0.039700
     52 H25         6.3320    7.3450  -17.7790 hc        1 PNR      0.039700
     53 H26         7.8730    7.8650  -16.9950 hc        1 PNR      0.039700
     54 H27         5.5840    9.7480  -17.9000 hc        1 PNR      0.039700
     55 H28         7.1250   10.2670  -17.1160 hc        1 PNR      0.039700
     56 H29         6.8920    8.7190  -19.7910 hc        1 PNR      0.039700
     57 H30         8.4330    9.2380  -19.0080 hc        1 PNR      0.039700
     58 H31         6.1430   11.1190  -19.9100 hc        1 PNR      0.038700
     59 H32         7.6840   11.6390  -19.1270 hc        1 PNR      0.038700
     60 H33         7.8040   11.8860  -21.6070 hc        1 PNR      0.032700
     61 H34         8.9920   10.6440  -21.0350 hc        1 PNR      0.032700
     62 H35         7.4470   10.1230  -21.8210 hc        1 PNR      0.032700
@<TRIPOS>BOND
     1    1    2 1   
     2    2    3 1   
     3    2    4 1   
     4    4    5 ar  
     5    4    7 ar  
     6    5    6 ar  
     7    5   28 1   
     8    6    9 ar  
     9    6   29 1   
    10    7    8 ar  
    11    7   30 1   
    12    8    9 ar  
    13    8   31 1   
    14    9   10 1   
    15   10   11 1   
    16   11   12 2   
    17   11   13 1   
    18   13   14 1   
    19   13   32 1   
    20   13   33 1   
    21   14   15 1   
    22   14   34 1   
    23   14   35 1   
    24   15   16 1   
    25   15   36 1   
    26   15   37 1   
    27   16   17 1   
    28   16   38 1   
    29   16   39 1   
    30   17   18 1   
    31   17   40 1   
    32   17   41 1   
    33   18   19 1   
    34   18   42 1   
    35   18   43 1   
    36   19   20 1   
    37   19   44 1   
    38   19   45 1   
    39   20   21 1   
    40   20   46 1   
    41   20   47 1   
    42   21   22 1   
    43   21   48 1   
    44   21   49 1   
    45   22   23 1   
    46   22   50 1   
    47   22   51 1   
    48   23   24 1   
    49   23   52 1   
    50   23   53 1   
    51   24   25 1   
    52   24   54 1   
    53   24   55 1   
    54   25   26 1   
    55   25   56 1   
    56   25   57 1   
    57   26   27 1   
    58   26   58 1   
    59   26   59 1   
    60   27   60 1   
    61   27   61 1   
    62   27   62 1   
@<TRIPOS>SUBSTRUCTURE
     1 PNR         1 TEMP              0 ****  ****    0 ROOT
