@<TRIPOS>MOLECULE
PNS
   43    42     1     0     0
SMALL
bcc


@<TRIPOS>ATOM
      1 O23         2.6580   -0.8550    1.0890 o         1 PNS     -0.908500
      2 P24         1.5630   -0.5950    0.1080 p5        1 PNS      1.326900
      3 O25         1.6290   -1.2000   -1.2690 o         1 PNS     -0.908500
      4 O26         0.9910    0.8080    0.0390 o         1 PNS     -0.908500
      5 O27         0.1800   -1.3410    0.7990 os        1 PNS     -0.584200
      6 C28         0.1360   -1.3040    2.1740 c3        1 PNS      0.220400
      7 C29        -1.2540   -0.8880    2.7180 c3        1 PNS     -0.109000
      8 C30        -2.2900   -1.8980    2.2600 c3        1 PNS     -0.078600
      9 C31        -1.1650   -0.9090    4.2410 c3        1 PNS     -0.078600
     10 C32        -1.6810    0.5380    2.3050 c3        1 PNS      0.129100
     11 O33        -0.6220    1.4570    2.2960 oh        1 PNS     -0.653800
     12 C34        -2.5050    0.5360    1.0010 c         1 PNS      0.636100
     13 O35        -3.7640    0.4890    1.0840 o         1 PNS     -0.731100
     14 N36        -1.8570    0.6500   -0.1920 n         1 PNS     -0.543900
     15 C37        -2.5360    0.5100   -1.4470 c3        1 PNS      0.107000
     16 C38        -2.0350   -0.6490   -2.3150 c3        1 PNS     -0.179400
     17 C39        -1.1080   -0.1790   -3.4220 c         1 PNS      0.647100
     18 O40        -1.4880   -0.2450   -4.6220 o         1 PNS     -0.714100
     19 N41         0.0980    0.3730   -3.0590 n         1 PNS     -0.508900
     20 C42         1.1350    0.5540   -4.0390 c3        1 PNS      0.101000
     21 C43         2.0360   -0.6620   -4.2170 c3        1 PNS     -0.015300
     22 S44         3.3450   -0.3600   -5.3770 sh        1 PNS     -0.453900
     23 H282        0.9190   -0.6050    2.5850 h1        1 PNS      0.007200
     24 H281        0.3320   -2.3400    2.5900 h1        1 PNS      0.007200
     25 H303       -2.2080   -2.0310    1.1530 hc        1 PNS      0.023033
     26 H302       -2.1070   -2.8850    2.7500 hc        1 PNS      0.023033
     27 H301       -3.3220   -1.5540    2.5120 hc        1 PNS      0.023033
     28 H313       -0.4780   -0.1000    4.5880 hc        1 PNS      0.023033
     29 H312       -2.1710   -0.7500    4.6980 hc        1 PNS      0.023033
     30 H311       -0.7690   -1.8920    4.5930 hc        1 PNS      0.023033
     31 H32        -2.3880    0.9410    3.0940 h1        1 PNS      0.042700
     32 H33         0.0510    1.1820    1.6250 ho        1 PNS      0.490000
     33 H36        -0.8310    0.6060   -0.2010 hn        1 PNS      0.403500
     34 H372       -3.6390    0.3620   -1.2590 h1        1 PNS      0.037700
     35 H371       -2.4150    1.4750   -2.0210 h1        1 PNS      0.037700
     36 H382       -1.4960   -1.4190   -1.6960 hc        1 PNS      0.075700
     37 H381       -2.9150   -1.1440   -2.8010 hc        1 PNS      0.075700
     38 H41         0.4550    0.1660   -2.1160 hn        1 PNS      0.397500
     39 H422        0.6680    0.8200   -5.0310 h1        1 PNS      0.039700
     40 H421        1.7660    1.4230   -3.6930 h1        1 PNS      0.039700
     41 H431        2.5190   -0.9280   -3.2290 h1        1 PNS      0.121700
     42 H432        1.4410   -1.5460   -4.5470 h1        1 PNS      0.121700
     43 H44         2.6280   -0.0190   -6.4310 hs        1 PNS      0.173800
@<TRIPOS>BOND
     1    1    2 1   
     2    2    3 1   
     3    2    4 1   
     4    2    5 1   
     5    5    6 1   
     6    6    7 1   
     7    6   23 1   
     8    6   24 1   
     9    7    8 1   
    10    7    9 1   
    11    7   10 1   
    12    8   25 1   
    13    8   26 1   
    14    8   27 1   
    15    9   28 1   
    16    9   29 1   
    17    9   30 1   
    18   10   11 1   
    19   10   12 1   
    20   10   31 1   
    21   11   32 1   
    22   12   13 2   
    23   12   14 1   
    24   14   15 1   
    25   14   33 1   
    26   15   16 1   
    27   15   34 1   
    28   15   35 1   
    29   16   17 1   
    30   16   36 1   
    31   16   37 1   
    32   17   18 2   
    33   17   19 1   
    34   19   20 1   
    35   19   38 1   
    36   20   21 1   
    37   20   39 1   
    38   20   40 1   
    39   21   22 1   
    40   21   41 1   
    41   21   42 1   
    42   22   43 1   
@<TRIPOS>SUBSTRUCTURE
     1 PNS         1 TEMP              0 ****  ****    0 ROOT
