@<TRIPOS>MOLECULE
PNT
   49    50     1     0     0
SMALL
bcc


@<TRIPOS>ATOM
      1 C1         -4.8490   -0.5490   -0.0750 ca        1 PNT      0.140100
      2 C2         -5.9180   -1.4590   -0.1880 ca        1 PNT     -0.190000
      3 C3         -7.2220   -0.9980   -0.0580 ca        1 PNT     -0.065500
      4 C4         -7.4710    0.3620    0.1750 ca        1 PNT     -0.179900
      5 C5         -6.4050    1.2560    0.2960 ca        1 PNT     -0.065500
      6 C6         -5.0900    0.8090    0.1700 ca        1 PNT     -0.190000
      7 C7         -2.4860   -0.2240   -0.0460 c3        1 PNT      0.128400
      8 C8         -1.2450   -1.0830   -0.2130 c3        1 PNT     -0.085400
      9 C9         -8.8810    0.8440    0.3120 ce        1 PNT      0.654800
     10 C10        -0.0000   -0.2390   -0.0470 c3        1 PNT     -0.077400
     11 C1'         4.8490   -0.5500   -0.0750 ca        1 PNT      0.140100
     12 C2'         5.9180   -1.4600   -0.1890 ca        1 PNT     -0.190000
     13 C3'         7.2210   -0.9990   -0.0580 ca        1 PNT     -0.065500
     14 C4'         7.4710    0.3600    0.1740 ca        1 PNT     -0.179900
     15 C5'         6.4050    1.2550    0.2960 ca        1 PNT     -0.065500
     16 C6'         5.0900    0.8070    0.1710 ca        1 PNT     -0.190000
     17 C7'         2.4860   -0.2240   -0.0460 c3        1 PNT      0.128400
     18 C8'         1.2450   -1.0830   -0.2130 c3        1 PNT     -0.085400
     19 C9'         8.8810    0.8410    0.3120 ce        1 PNT      0.654800
     20 O1         -3.5980   -1.1090   -0.2300 os        1 PNT     -0.328900
     21 O1'         3.5980   -1.1100   -0.2300 os        1 PNT     -0.328900
     22 N1         -9.6750    0.2160    1.1260 n2        1 PNT     -0.827100
     23 N2         -9.1710    2.0080   -0.4370 nh        1 PNT     -0.957800
     24 N1'         9.6750    0.2130    1.1250 n2        1 PNT     -0.827100
     25 N2'         9.1710    2.0060   -0.4370 nh        1 PNT     -0.957800
     26 H2         -5.7060   -2.5220   -0.3720 ha        1 PNT      0.145000
     27 H3         -8.0620   -1.7070   -0.1270 ha        1 PNT      0.147500
     28 H5         -6.5940    2.3210    0.5040 ha        1 PNT      0.147500
     29 H6         -4.2640    1.5250    0.2710 ha        1 PNT      0.145000
     30 H71        -2.5310    0.2290    0.9790 h1        1 PNT      0.040200
     31 H72        -2.5240    0.5880   -0.8190 h1        1 PNT      0.040200
     32 H81        -1.2590   -1.9080    0.5460 hc        1 PNT      0.061200
     33 H82        -1.2580   -1.5620   -1.2260 hc        1 PNT      0.061200
     34 H101        0.0000    0.5880   -0.8050 hc        1 PNT      0.042700
     35 H102        0.0000    0.2390    0.9680 hc        1 PNT      0.042700
     36 H2'         5.7060   -2.5230   -0.3730 ha        1 PNT      0.145000
     37 H3'         8.0610   -1.7090   -0.1280 ha        1 PNT      0.147500
     38 H5'         6.5950    2.3190    0.5040 ha        1 PNT      0.147500
     39 H6'         4.2640    1.5240    0.2720 ha        1 PNT      0.145000
     40 H7'1        2.5240    0.5880   -0.8190 h1        1 PNT      0.040200
     41 H7'2        2.5310    0.2290    0.9800 h1        1 PNT      0.040200
     42 H8'1        1.2580   -1.9090    0.5460 hc        1 PNT      0.061200
     43 H8'2        1.2570   -1.5630   -1.2260 hc        1 PNT      0.061200
     44 HN1       -10.6100    0.5610    1.1910 hn        1 PNT      0.381400
     45 HN2        -8.5590    2.1840   -1.1990 hn        1 PNT      0.396800
     46 HN3       -10.1290    2.1810   -0.6360 hn        1 PNT      0.396800
     47 HN'1       10.6100    0.5580    1.1900 hn        1 PNT      0.381400
     48 HN'2        8.5600    2.1820   -1.1990 hn        1 PNT      0.396800
     49 HN'3       10.1290    2.1790   -0.6360 hn        1 PNT      0.396800
@<TRIPOS>BOND
     1    1    2 ar  
     2    1    6 ar  
     3    1   20 1   
     4    2    3 ar  
     5    2   26 1   
     6    3    4 ar  
     7    3   27 1   
     8    4    5 ar  
     9    4    9 1   
    10    5    6 ar  
    11    5   28 1   
    12    6   29 1   
    13    7    8 1   
    14    7   20 1   
    15    7   30 1   
    16    7   31 1   
    17    8   10 1   
    18    8   32 1   
    19    8   33 1   
    20    9   22 2   
    21    9   23 1   
    22   10   18 1   
    23   10   34 1   
    24   10   35 1   
    25   11   12 ar  
    26   11   16 ar  
    27   11   21 1   
    28   12   13 ar  
    29   12   36 1   
    30   13   14 ar  
    31   13   37 1   
    32   14   15 ar  
    33   14   19 1   
    34   15   16 ar  
    35   15   38 1   
    36   16   39 1   
    37   17   18 1   
    38   17   21 1   
    39   17   40 1   
    40   17   41 1   
    41   18   42 1   
    42   18   43 1   
    43   19   24 2   
    44   19   25 1   
    45   22   44 1   
    46   23   45 1   
    47   23   46 1   
    48   24   47 1   
    49   25   48 1   
    50   25   49 1   
@<TRIPOS>SUBSTRUCTURE
     1 PNT         1 TEMP              0 ****  ****    0 ROOT
