@<TRIPOS>MOLECULE
PNT
   51    52     1     0     0
SMALL
bcc


@<TRIPOS>ATOM
      1 C1         -0.2260   -0.0200    0.3250 ca        1 PNT      0.197100
      2 C2          1.1630   -0.1040    0.0580 ca        1 PNT     -0.179000
      3 C3          2.0570   -0.1520    1.1130 ca        1 PNT     -0.051000
      4 C4          1.5910   -0.1160    2.4380 ca        1 PNT     -0.317900
      5 C5          0.2180   -0.0340    2.6990 ca        1 PNT     -0.051000
      6 C6         -0.6940    0.0160    1.6490 ca        1 PNT     -0.179000
      7 C7         -2.4410    0.0410   -0.5820 c3        1 PNT      0.126400
      8 C8         -3.0390    0.0340   -1.9790 c3        1 PNT     -0.088400
      9 C9          2.5370   -0.2240    3.5610 ce        1 PNT      0.599800
     10 C10        -4.5510    0.0090   -1.9100 c3        1 PNT     -0.076400
     11 C1'        -8.4230    0.0560   -4.8620 ca        1 PNT      0.197100
     12 C2'        -8.7770    0.1760   -6.2280 ca        1 PNT     -0.179000
     13 C3'       -10.1140    0.2090   -6.5830 ca        1 PNT     -0.051000
     14 C4'       -11.1110    0.1210   -5.5970 ca        1 PNT     -0.317900
     15 C5'       -10.7580    0.0030   -4.2470 ca        1 PNT     -0.051000
     16 C6'        -9.4180   -0.0320   -3.8750 ca        1 PNT     -0.179000
     17 C7'        -6.6530   -0.0220   -3.2500 c3        1 PNT      0.126400
     18 C8'        -5.1360    0.0170   -3.3070 c3        1 PNT     -0.088400
     19 C9'       -12.5330    0.2130   -5.9680 ce        1 PNT      0.599800
     20 O1         -1.0150    0.0220   -0.7880 os        1 PNT     -0.308900
     21 O1'        -7.0780    0.0320   -4.6260 os        1 PNT     -0.308900
     22 N1          2.7080   -1.1230    4.4510 n2        1 PNT     -0.712100
     23 N2          3.4500    0.9760    3.6410 n4        1 PNT     -0.825600
     24 N1'       -13.4280    1.0860   -5.7130 n2        1 PNT     -0.712100
     25 N2'       -12.9720   -0.9710   -6.7970 n4        1 PNT     -0.825600
     26 H2          1.5070   -0.1390   -0.9880 ha        1 PNT      0.172000
     27 H3          3.1340   -0.2470    0.9010 ha        1 PNT      0.146000
     28 H5         -0.1520   -0.0120    3.7370 ha        1 PNT      0.146000
     29 H6         -1.7700    0.0790    1.8670 ha        1 PNT      0.172000
     30 H71        -2.7200    0.9700   -0.0200 h1        1 PNT      0.051200
     31 H72        -2.7440   -0.8680   -0.0000 h1        1 PNT      0.051200
     32 H81        -2.6910    0.9430   -2.5360 hc        1 PNT      0.070200
     33 H82        -2.6620   -0.8630   -2.5380 hc        1 PNT      0.070200
     34 H101       -4.8920   -0.9070   -1.3600 hc        1 PNT      0.047700
     35 H102       -4.9200    0.9010   -1.3390 hc        1 PNT      0.047700
     36 H2'        -7.9810    0.2510   -6.9850 ha        1 PNT      0.172000
     37 H3'       -10.3860    0.3330   -7.6440 ha        1 PNT      0.146000
     38 H5'       -11.5370   -0.0590   -3.4700 ha        1 PNT      0.146000
     39 H6'        -9.1520   -0.1240   -2.8110 ha        1 PNT      0.172000
     40 H7'1       -7.0230   -0.9740   -2.7880 h1        1 PNT      0.051200
     41 H7'2       -7.0670    0.8620   -2.6990 h1        1 PNT      0.051200
     42 H8'1       -4.8090    0.9380   -3.8580 hc        1 PNT      0.070200
     43 H8'2       -4.7630   -0.8670   -3.8880 hc        1 PNT      0.070200
     44 HN1         2.1310   -1.9390    4.4240 hn        1 PNT      0.489400
     45 HN2         3.8900    1.1030    2.7240 hn        1 PNT      0.469800
     46 HN3         4.1760    0.8650    4.3610 hn        1 PNT      0.469800
     47 HN'1      -13.1730    1.8910   -5.1780 hn        1 PNT      0.489400
     48 HN'2      -13.9350   -0.8680   -7.1420 hn        1 PNT      0.469800
     49 HN'3      -12.3290   -1.0600   -7.5900 hn        1 PNT      0.469800
     50 H23         2.8790    1.7990    3.8580 hn        1 PNT      0.469800
     51 H2'3      -12.9070   -1.8120   -6.2150 hn        1 PNT      0.469800
@<TRIPOS>BOND
     1    1    2 ar  
     2    1    6 ar  
     3    1   20 1   
     4    2    3 ar  
     5    2   26 1   
     6    3    4 ar  
     7    3   27 1   
     8    4    5 ar  
     9    4    9 1   
    10    5    6 ar  
    11    5   28 1   
    12    6   29 1   
    13    7    8 1   
    14    7   20 1   
    15    7   30 1   
    16    7   31 1   
    17    8   10 1   
    18    8   32 1   
    19    8   33 1   
    20    9   22 2   
    21    9   23 1   
    22   10   18 1   
    23   10   34 1   
    24   10   35 1   
    25   11   12 ar  
    26   11   16 ar  
    27   11   21 1   
    28   12   13 ar  
    29   12   36 1   
    30   13   14 ar  
    31   13   37 1   
    32   14   15 ar  
    33   14   19 1   
    34   15   16 ar  
    35   15   38 1   
    36   16   39 1   
    37   17   18 1   
    38   17   21 1   
    39   17   40 1   
    40   17   41 1   
    41   18   42 1   
    42   18   43 1   
    43   19   24 2   
    44   19   25 1   
    45   22   44 1   
    46   23   45 1   
    47   23   46 1   
    48   23   50 1   
    49   24   47 1   
    50   25   48 1   
    51   25   49 1   
    52   25   51 1   
@<TRIPOS>SUBSTRUCTURE
     1 PNT         1 TEMP              0 ****  ****    0 ROOT
