@<TRIPOS>MOLECULE
PNT
   51    52     1     0     0
SMALL
bcc


@<TRIPOS>ATOM
      1 C1         -0.2260   -0.0380    0.3260 ca        1 PNT      0.197100
      2 C2          1.1610   -0.1430    0.0600 ca        1 PNT     -0.179000
      3 C3          2.0550   -0.1860    1.1150 ca        1 PNT     -0.051000
      4 C4          1.5890   -0.1230    2.4400 ca        1 PNT     -0.317400
      5 C5          0.2170   -0.0210    2.7000 ca        1 PNT     -0.051000
      6 C6         -0.6930    0.0240    1.6490 ca        1 PNT     -0.179000
      7 C7         -2.4400    0.0360   -0.5830 c3        1 PNT      0.126400
      8 C8         -3.0380    0.0150   -1.9800 c3        1 PNT     -0.088400
      9 C9          2.5340   -0.2250    3.5650 ce        1 PNT      0.599800
     10 C10        -4.5510    0.0080   -1.9110 c3        1 PNT     -0.076400
     11 C1'        -8.4220    0.0560   -4.8620 ca        1 PNT      0.197100
     12 C2'        -8.7760    0.1640   -6.2290 ca        1 PNT     -0.179000
     13 C3'       -10.1120    0.2050   -6.5850 ca        1 PNT     -0.051000
     14 C4'       -11.1100    0.1380   -5.5980 ca        1 PNT     -0.317400
     15 C5'       -10.7580    0.0330   -4.2470 ca        1 PNT     -0.051000
     16 C6'        -9.4180   -0.0110   -3.8740 ca        1 PNT     -0.179000
     17 C7'        -6.6540   -0.0200   -3.2500 c3        1 PNT      0.126400
     18 C8'        -5.1360    0.0040   -3.3070 c3        1 PNT     -0.088400
     19 C9'       -12.5310    0.2390   -5.9700 ce        1 PNT      0.599800
     20 O1         -1.0150   -0.0030   -0.7880 os        1 PNT     -0.308900
     21 O1'        -7.0780    0.0230   -4.6260 os        1 PNT     -0.308900
     22 N1          2.6940   -1.1120    4.4690 n2        1 PNT     -0.712100
     23 N2          3.4610    0.9650    3.6260 n4        1 PNT     -0.825600
     24 N1'       -13.4180    1.1240   -5.7250 n2        1 PNT     -0.712100
     25 N2'       -12.9810   -0.9500   -6.7850 n4        1 PNT     -0.825600
     26 H2          1.5060   -0.1990   -0.9850 ha        1 PNT      0.172000
     27 H3          3.1310   -0.2970    0.9050 ha        1 PNT      0.146000
     28 H5         -0.1530    0.0220    3.7370 ha        1 PNT      0.146000
     29 H6         -1.7690    0.1040    1.8650 ha        1 PNT      0.172000
     30 H71        -2.7080    0.9770   -0.0350 h1        1 PNT      0.051200
     31 H72        -2.7540   -0.8600    0.0120 h1        1 PNT      0.051200
     32 H81        -2.6710   -0.8930   -2.5260 hc        1 PNT      0.070200
     33 H82        -2.6800    0.9130   -2.5500 hc        1 PNT      0.070200
     34 H101       -4.9100    0.9120   -1.3510 hc        1 PNT      0.047700
     35 H102       -4.9010   -0.8970   -1.3480 hc        1 PNT      0.047700
     36 H2'        -7.9790    0.2230   -6.9880 ha        1 PNT      0.172000
     37 H3'       -10.3830    0.3190   -7.6470 ha        1 PNT      0.146000
     38 H5'       -11.5370   -0.0130   -3.4690 ha        1 PNT      0.146000
     39 H6'        -9.1530   -0.0930   -2.8090 ha        1 PNT      0.172000
     40 H7'1       -7.0330   -0.9620   -2.7760 h1        1 PNT      0.051200
     41 H7'2       -7.0590    0.8750   -2.7090 h1        1 PNT      0.051200
     42 H8'1       -4.8000    0.9140   -3.8700 hc        1 PNT      0.070200
     43 H8'2       -4.7720   -0.8920   -3.8770 hc        1 PNT      0.070200
     44 HN1         2.1070   -1.9210    4.4550 hn        1 PNT      0.489400
     45 HN2         2.9000    1.7980    3.8300 hn        1 PNT      0.469800
     46 HN3         4.1860    0.8560    4.3470 hn        1 PNT      0.469800
     47 HN'1      -13.1560    1.9320   -5.1990 hn        1 PNT      0.489400
     48 HN'2      -13.9430   -0.8420   -7.1320 hn        1 PNT      0.469800
     49 HN'3      -12.9240   -1.7850   -6.1940 hn        1 PNT      0.469800
     50 H23         3.9020    1.0730    2.7070 hn        1 PNT      0.469800
     51 H2'3      -12.3390   -1.0540   -7.5780 hn        1 PNT      0.469800
@<TRIPOS>BOND
     1    1    2 ar  
     2    1    6 ar  
     3    1   20 1   
     4    2    3 ar  
     5    2   26 1   
     6    3    4 ar  
     7    3   27 1   
     8    4    5 ar  
     9    4    9 1   
    10    5    6 ar  
    11    5   28 1   
    12    6   29 1   
    13    7    8 1   
    14    7   20 1   
    15    7   30 1   
    16    7   31 1   
    17    8   10 1   
    18    8   32 1   
    19    8   33 1   
    20    9   22 2   
    21    9   23 1   
    22   10   18 1   
    23   10   34 1   
    24   10   35 1   
    25   11   12 ar  
    26   11   16 ar  
    27   11   21 1   
    28   12   13 ar  
    29   12   36 1   
    30   13   14 ar  
    31   13   37 1   
    32   14   15 ar  
    33   14   19 1   
    34   15   16 ar  
    35   15   38 1   
    36   16   39 1   
    37   17   18 1   
    38   17   21 1   
    39   17   40 1   
    40   17   41 1   
    41   18   42 1   
    42   18   43 1   
    43   19   24 2   
    44   19   25 1   
    45   22   44 1   
    46   23   45 1   
    47   23   46 1   
    48   23   50 1   
    49   24   47 1   
    50   25   48 1   
    51   25   49 1   
    52   25   51 1   
@<TRIPOS>SUBSTRUCTURE
     1 PNT         1 TEMP              0 ****  ****    0 ROOT
