@<TRIPOS>MOLECULE
PNT
   51    52     1     0     0
SMALL
bcc


@<TRIPOS>ATOM
      1 C1         -0.2260   -0.0310    0.3260 ca        1 PNT      0.197100
      2 C2          1.1620   -0.1290    0.0600 ca        1 PNT     -0.179000
      3 C3          2.0550   -0.1720    1.1150 ca        1 PNT     -0.051000
      4 C4          1.5890   -0.1180    2.4400 ca        1 PNT     -0.317400
      5 C5          0.2170   -0.0230    2.7000 ca        1 PNT     -0.051000
      6 C6         -0.6940    0.0230    1.6490 ca        1 PNT     -0.179000
      7 C7         -2.4400    0.0390   -0.5830 c3        1 PNT      0.126400
      8 C8         -3.0380    0.0220   -1.9800 c3        1 PNT     -0.088400
      9 C9          2.5340   -0.2220    3.5650 ce        1 PNT      0.599800
     10 C10        -4.5500    0.0090   -1.9110 c3        1 PNT     -0.076400
     11 C1'        -8.4220    0.0550   -4.8620 ca        1 PNT      0.197100
     12 C2'        -8.7770    0.1690   -6.2290 ca        1 PNT     -0.179000
     13 C3'       -10.1130    0.2060   -6.5850 ca        1 PNT     -0.051000
     14 C4'       -11.1110    0.1300   -5.5970 ca        1 PNT     -0.317400
     15 C5'       -10.7570    0.0180   -4.2470 ca        1 PNT     -0.051000
     16 C6'        -9.4180   -0.0210   -3.8740 ca        1 PNT     -0.179000
     17 C7'        -6.6530   -0.0220   -3.2510 c3        1 PNT      0.126400
     18 C8'        -5.1350    0.0090   -3.3080 c3        1 PNT     -0.088400
     19 C9'       -12.5320    0.2260   -5.9690 ce        1 PNT      0.599800
     20 O1         -1.0150    0.0060   -0.7890 os        1 PNT     -0.308900
     21 O1'        -7.0770    0.0260   -4.6270 os        1 PNT     -0.308900
     22 N1          2.6980   -1.1120    4.4640 n2        1 PNT     -0.712100
     23 N2          3.4560    0.9720    3.6320 nz        1 PNT     -0.825600
     24 N1'       -13.4230    1.1050   -5.7190 n2        1 PNT     -0.712100
     25 N2'       -12.9770   -0.9600   -6.7900 nz        1 PNT     -0.825600
     26 H2          1.5070   -0.1770   -0.9860 ha        1 PNT      0.172000
     27 H3          3.1320   -0.2780    0.9050 ha        1 PNT      0.146000
     28 H5         -0.1530    0.0130    3.7370 ha        1 PNT      0.146000
     29 H6         -1.7700    0.0970    1.8650 ha        1 PNT      0.172000
     30 H71        -2.7120    0.9750   -0.0300 h1        1 PNT      0.051200
     31 H72        -2.7510   -0.8620    0.0070 h1        1 PNT      0.051200
     32 H81        -2.6670   -0.8810   -2.5310 hc        1 PNT      0.070200
     33 H82        -2.6840    0.9250   -2.5450 hc        1 PNT      0.070200
     34 H101       -4.9140    0.9070   -1.3470 hc        1 PNT      0.047700
     35 H102       -4.8970   -0.9020   -1.3540 hc        1 PNT      0.047700
     36 H2'        -7.9800    0.2350   -6.9870 ha        1 PNT      0.172000
     37 H3'       -10.3850    0.3240   -7.6460 ha        1 PNT      0.146000
     38 H5'       -11.5360   -0.0350   -3.4690 ha        1 PNT      0.146000
     39 H6'        -9.1520   -0.1080   -2.8100 ha        1 PNT      0.172000
     40 H7'1       -7.0280   -0.9680   -2.7820 h1        1 PNT      0.051200
     41 H7'2       -7.0620    0.8680   -2.7050 h1        1 PNT      0.051200
     42 H8'1       -4.8030    0.9240   -3.8660 hc        1 PNT      0.070200
     43 H8'2       -4.7680   -0.8820   -3.8820 hc        1 PNT      0.070200
     44 HN1         2.1150   -1.9240    4.4460 hn        1 PNT      0.489400
     45 HN2         2.8920    1.8020    3.8400 hn        1 PNT      0.469800
     46 HN3         4.1810    0.8630    4.3520 hn        1 PNT      0.469800
     47 HN'1      -13.1640    1.9120   -5.1890 hn        1 PNT      0.489400
     48 HN'2      -13.9400   -0.8540   -7.1360 hn        1 PNT      0.469800
     49 HN'3      -12.9170   -1.7980   -6.2030 hn        1 PNT      0.469800
     50 H23         3.8970    1.0870    2.7130 hn        1 PNT      0.469800
     51 H2'3      -12.3350   -1.0580   -7.5830 hn        1 PNT      0.469800
@<TRIPOS>BOND
     1    1    2 ar  
     2    1    6 ar  
     3    1   20 1   
     4    2    3 ar  
     5    2   26 1   
     6    3    4 ar  
     7    3   27 1   
     8    4    5 ar  
     9    4    9 1   
    10    5    6 ar  
    11    5   28 1   
    12    6   29 1   
    13    7    8 1   
    14    7   20 1   
    15    7   30 1   
    16    7   31 1   
    17    8   10 1   
    18    8   32 1   
    19    8   33 1   
    20    9   22 2   
    21    9   23 1   
    22   10   18 1   
    23   10   34 1   
    24   10   35 1   
    25   11   12 ar  
    26   11   16 ar  
    27   11   21 1   
    28   12   13 ar  
    29   12   36 1   
    30   13   14 ar  
    31   13   37 1   
    32   14   15 ar  
    33   14   19 1   
    34   15   16 ar  
    35   15   38 1   
    36   16   39 1   
    37   17   18 1   
    38   17   21 1   
    39   17   40 1   
    40   17   41 1   
    41   18   42 1   
    42   18   43 1   
    43   19   24 2   
    44   19   25 1   
    45   22   44 1   
    46   23   45 1   
    47   23   46 1   
    48   23   50 1   
    49   24   47 1   
    50   25   48 1   
    51   25   49 1   
    52   25   51 1   
@<TRIPOS>SUBSTRUCTURE
     1 PNT         1 TEMP              0 ****  ****    0 ROOT
