@<TRIPOS>MOLECULE
PNU
   31    33     1     0     0
SMALL
bcc


@<TRIPOS>ATOM
      1 C1          0.5910   -0.0510    2.0030 ca        1 PNU      0.779300
      2 N2          1.7500   -0.3000    2.6790 nb        1 PNU     -0.756000
      3 C3          1.6460   -0.4510    4.0420 ca        1 PNU      0.702200
      4 C4          0.3810   -0.3180    4.7050 ca        1 PNU     -0.441600
      5 C5         -0.7310   -0.0530    3.8940 ca        1 PNU      0.570300
      6 N6         -0.6570    0.0850    2.5490 nb        1 PNU     -0.756000
      7 C7         -0.3220   -0.6720   -4.4370 ca        1 PNU     -0.065200
      8 C8         -1.3770   -1.1980   -3.6770 ca        1 PNU      0.423200
      9 N9         -1.5280   -0.8430   -2.3950 nb        1 PNU     -0.639000
     10 C10        -0.6470    0.0390   -1.8400 ca        1 PNU      0.387600
     11 C11         0.4380    0.6170   -2.5360 ca        1 PNU     -0.187300
     12 C12         0.6100    0.2520   -3.8680 ca        1 PNU     -0.071800
     13 C13         1.5430    0.5690   -4.9350 cc        1 PNU     -0.180200
     14 O14        -0.0050   -0.9230   -5.7690 os        1 PNU     -0.188200
     15 C15         1.1390   -0.1490   -6.0350 cd        1 PNU     -0.000900
     16 C16        -0.8420    0.4170   -0.3960 c3        1 PNU     -0.044900
     17 S17         0.7830    0.0990    0.2950 ss        1 PNU     -0.216400
     18 N18         2.7710   -0.7890    4.7740 nh        1 PNU     -0.948500
     19 CL19       -2.2590    0.1100    4.6450 cl        1 PNU     -0.145000
     20 C21        -1.2660    1.8560   -0.2590 c3        1 PNU     -0.089100
     21 HC4         0.2860   -0.4300    5.7900 ha        1 PNU      0.162000
     22 H11C        1.1170    1.3230   -2.0370 ha        1 PNU      0.162000
     23 H13C        2.3900    1.2440   -4.8540 ha        1 PNU      0.172000
     24 H15C        1.5000   -0.2530   -7.0560 h4        1 PNU      0.195000
     25 H16C       -1.6100   -0.2410    0.0940 h1        1 PNU      0.122700
     26 H181        3.6600   -0.7370    4.3370 hn        1 PNU      0.430300
     27 H182        2.7320   -0.6250    5.7500 hn        1 PNU      0.430300
     28 H211       -0.5010    2.5430   -0.6960 hc        1 PNU      0.051033
     29 H212       -2.2340    2.0170   -0.7960 hc        1 PNU      0.051033
     30 H213       -1.4140    2.1190    0.8160 hc        1 PNU      0.051033
     31 HC8        -2.1070   -1.9110   -4.0950 h4        1 PNU      0.041100
@<TRIPOS>BOND
     1    1    2 ar  
     2    1    6 ar  
     3    1   17 1   
     4    2    3 ar  
     5    3    4 ar  
     6    3   18 1   
     7    4    5 ar  
     8    4   21 1   
     9    5    6 ar  
    10    5   19 1   
    11    7    8 ar  
    12    7   12 ar  
    13    7   14 1   
    14    8    9 ar  
    15    8   31 1   
    16    9   10 ar  
    17   10   11 ar  
    18   10   16 1   
    19   11   12 ar  
    20   11   22 1   
    21   12   13 1   
    22   13   15 2   
    23   13   23 1   
    24   14   15 1   
    25   15   24 1   
    26   16   17 1   
    27   16   20 1   
    28   16   25 1   
    29   18   26 1   
    30   18   27 1   
    31   20   28 1   
    32   20   29 1   
    33   20   30 1   
@<TRIPOS>SUBSTRUCTURE
     1 PNU         1 TEMP              0 ****  ****    0 ROOT
