@<TRIPOS>MOLECULE
PNU
   32    34     1     0     0
SMALL
bcc


@<TRIPOS>ATOM
      1 C1         -0.1030    0.0170    0.1930 ca        1 PNU      0.760300
      2 N2          1.1920   -0.4490    0.1110 nb        1 PNU     -0.716000
      3 C3          1.8630   -0.5400    1.2860 ca        1 PNU      0.528200
      4 C4          1.3300   -0.1950    2.5370 ca        1 PNU     -0.386600
      5 C5         -0.0180    0.2830    2.5060 ca        1 PNU      0.577300
      6 N6         -0.7220    0.3920    1.3700 nb        1 PNU     -0.688000
      7 C7         -4.6700   -0.8640   -4.2870 ca        1 PNU     -0.047200
      8 C8         -4.4630   -1.6430   -3.1340 ca        1 PNU      0.431200
      9 N9         -3.8000   -1.1370   -2.0920 nb        1 PNU     -0.645000
     10 C10        -3.3290    0.1490   -2.1550 ca        1 PNU      0.341600
     11 C11        -3.4920    0.9930   -3.2710 ca        1 PNU     -0.161300
     12 C12        -4.1810    0.4770   -4.3690 ca        1 PNU     -0.079800
     13 C13        -4.5790    0.9570   -5.6790 cc        1 PNU     -0.181200
     14 O14        -5.3290   -1.2120   -5.4570 os        1 PNU     -0.174200
     15 C15        -5.2550   -0.0760   -6.2850 cd        1 PNU      0.016100
     16 C16        -2.6140    0.6550   -0.9320 c3        1 PNU     -0.042900
     17 S17        -0.9390    0.0960   -1.2730 ss        1 PNU     -0.067400
     18 N18         3.2540   -1.0500    1.2080 n4        1 PNU     -0.827300
     19 CL19       -0.7270    0.7250    3.9800 cl        1 PNU     -0.053000
     20 C21        -2.7000    2.1450   -0.7430 c3        1 PNU     -0.103100
     21 HC4         1.8750   -0.2710    3.4870 ha        1 PNU      0.185000
     22 H11C       -3.1030    2.0190   -3.2810 ha        1 PNU      0.157000
     23 H13C       -4.3740    1.9450   -6.0820 ha        1 PNU      0.179000
     24 H15C       -5.7440   -0.2150   -7.2480 h4        1 PNU      0.208000
     25 H16C       -3.0160    0.1480   -0.0120 h1        1 PNU      0.124700
     26 H181        3.2480   -2.0140    0.8480 hn        1 PNU      0.474800
     27 H182        3.6730   -1.0330    2.1430 hn        1 PNU      0.474800
     28 H211       -2.3480    2.4270    0.2790 hc        1 PNU      0.061033
     29 H212       -3.7640    2.4780   -0.8490 hc        1 PNU      0.061033
     30 H213       -2.0820    2.6950   -1.4940 hc        1 PNU      0.061033
     31 H183        3.8060   -0.4630    0.5690 hn        1 PNU      0.474800
     32 HC8        -4.8340   -2.6800   -3.0490 h4        1 PNU      0.052100
@<TRIPOS>BOND
     1    1    2 ar  
     2    1    6 ar  
     3    1   17 1   
     4    2    3 ar  
     5    3    4 ar  
     6    3   18 1   
     7    4    5 ar  
     8    4   21 1   
     9    5    6 ar  
    10    5   19 1   
    11    7    8 ar  
    12    7   12 ar  
    13    7   14 1   
    14    8    9 ar  
    15    8   32 1   
    16    9   10 ar  
    17   10   11 ar  
    18   10   16 1   
    19   11   12 ar  
    20   11   22 1   
    21   12   13 1   
    22   13   15 2   
    23   13   23 1   
    24   14   15 1   
    25   15   24 1   
    26   16   17 1   
    27   16   20 1   
    28   16   25 1   
    29   18   26 1   
    30   18   27 1   
    31   18   31 1   
    32   20   28 1   
    33   20   29 1   
    34   20   30 1   
@<TRIPOS>SUBSTRUCTURE
     1 PNU         1 TEMP              0 ****  ****    0 ROOT
