@<TRIPOS>MOLECULE
PNU
   31    33     1     0     0
SMALL
bcc


@<TRIPOS>ATOM
      1 C1         -0.1510   -0.0020    0.1790 ca        1 PNU      0.779300
      2 N2          1.1590   -0.3310   -0.0200 nb        1 PNU     -0.755000
      3 C3          1.9390   -0.4530    1.1060 ca        1 PNU      0.699200
      4 C4          1.3800   -0.2720    2.4150 ca        1 PNU     -0.440600
      5 C5          0.0200    0.0600    2.4790 ca        1 PNU      0.569300
      6 N6         -0.7650    0.2040    1.3840 nb        1 PNU     -0.755000
      7 C7         -4.9440   -0.5870   -4.2200 ca        1 PNU     -0.065200
      8 C8         -5.2950   -1.0690   -2.9500 ca        1 PNU      0.422200
      9 N9         -4.5900   -0.7050   -1.8720 nb        1 PNU     -0.640000
     10 C10        -3.5320    0.1440   -2.0230 ca        1 PNU      0.387600
     11 C11        -3.1160    0.6760   -3.2640 ca        1 PNU     -0.187300
     12 C12        -3.8360    0.3000   -4.3940 ca        1 PNU     -0.071800
     13 C13        -3.7800    0.5770   -5.8190 cc        1 PNU     -0.180200
     14 O14        -5.5490   -0.8550   -5.4450 os        1 PNU     -0.188200
     15 C15        -4.8100   -0.1270   -6.3950 cd        1 PNU     -0.000900
     16 C16        -2.7580    0.5330   -0.7910 c3        1 PNU     -0.044900
     17 S17        -1.0740    0.1410   -1.2720 ss        1 PNU     -0.216400
     18 N18         3.2950   -0.7000    0.9690 nv        1 PNU     -0.944500
     19 Cl19       -0.6840    0.2940    4.0200 cl        1 PNU     -0.145000
     20 C21        -2.9500    1.9910   -0.4630 c3        1 PNU     -0.089100
     21 HC4         1.9880   -0.3760    3.3200 ha        1 PNU      0.162000
     22 H11C       -2.2530    1.3550   -3.3250 ha        1 PNU      0.162000
     23 H13C       -3.0530    1.2180   -6.3100 ha        1 PNU      0.172000
     24 H15C       -5.1800   -0.2480   -7.4110 h4        1 PNU      0.195000
     25 H16C       -3.0660   -0.0870    0.0930 h1        1 PNU      0.121700
     26 H181        3.6390   -0.9770    0.0800 hn        1 PNU      0.428300
     27 H182        3.7590   -1.0660    1.7650 hn        1 PNU      0.428300
     28 H211       -4.0330    2.1960   -0.2740 hc        1 PNU      0.051367
     29 H212       -2.6090    2.6410   -1.3050 hc        1 PNU      0.051367
     30 H213       -2.3760    2.2620    0.4560 hc        1 PNU      0.051367
     31 HC8        -6.1450   -1.7530   -2.7930 h4        1 PNU      0.041100
@<TRIPOS>BOND
     1    1    2 ar  
     2    1    6 ar  
     3    1   17 1   
     4    2    3 ar  
     5    3    4 ar  
     6    3   18 1   
     7    4    5 ar  
     8    4   21 1   
     9    5    6 ar  
    10    5   19 1   
    11    7    8 ar  
    12    7   12 ar  
    13    7   14 1   
    14    8    9 ar  
    15    8   31 1   
    16    9   10 ar  
    17   10   11 ar  
    18   10   16 1   
    19   11   12 ar  
    20   11   22 1   
    21   12   13 1   
    22   13   15 2   
    23   13   23 1   
    24   14   15 1   
    25   15   24 1   
    26   16   17 1   
    27   16   20 1   
    28   16   25 1   
    29   18   26 1   
    30   18   27 1   
    31   20   28 1   
    32   20   29 1   
    33   20   30 1   
@<TRIPOS>SUBSTRUCTURE
     1 PNU         1 TEMP              0 ****  ****    0 ROOT
