@<TRIPOS>MOLECULE
PNU
   31    23     1     0     0
SMALL
bcc


@<TRIPOS>ATOM
      1 C1          2.1750   -0.2300    1.3970 c1        1 PNU     -0.081000
      2 N2          2.3670   -1.5450    1.0950 n1        1 PNU     -0.229000
      3 C3          3.0490   -2.3350    1.9380 c1        1 PNU      0.180000
      4 C4          3.5510   -1.8210    3.0980 c1        1 PNU     -0.312000
      5 C5          3.3580   -0.5040    3.3990 c1        1 PNU      0.076000
      6 N6          2.6760    0.2840    2.5550 n1        1 PNU     -0.237000
      7 C7         -2.1110    1.1500   -3.2520 c1        1 PNU     -0.054000
      8 C8         -0.9280    1.8030   -2.8730 c1        1 PNU     -0.077000
      9 N9         -0.4740    1.7050   -1.5890 n1        1 PNU     -0.115000
     10 C10        -1.1720    0.9700   -0.6690 c1        1 PNU     -0.038000
     11 C11        -2.3430    0.3220   -1.0400 c1        1 PNU     -0.077000
     12 C12        -2.8040    0.4200   -2.3410 c1        1 PNU     -0.054000
     13 C13        -3.9220   -0.1080   -2.9750 c1        1 PNU     -0.192000
     14 O14        -2.7920    1.0830   -4.4660 o         1 PNU     -0.099000
     15 C15        -3.9020    0.3090   -4.2850 c1        1 PNU     -0.044000
     16 C16        -0.3770    0.8960    0.6160 c3        1 PNU     -0.176000
     17 S17         1.3540    0.8340    0.2380 ss        1 PNU      0.334000
     18 N18         3.3050   -3.6850    1.5920 n3        1 PNU     -0.343000
     19 CL19        4.0600    0.1700    4.8460 cl        1 PNU      0.017000
     20 C21        -0.6650    2.1190    1.4590 c3        1 PNU     -0.203000
     21 HC4         4.0470   -2.3950    3.7130 ha        1 PNU      0.162000
     22 HC8        -0.4290    2.3280   -3.5280 ha        1 PNU      0.166500
     23 H11C       -2.8400   -0.2030   -0.3840 ha        1 PNU      0.166500
     24 H13C       -4.6010   -0.6750   -2.5630 DU        1 PNU      0.183000
     25 H15C       -4.5750    0.1030   -4.9620 DU        1 PNU      0.183000
     26 H16C       -0.6310    0.0920    1.1110 h1        1 PNU      0.139000
     27 H181        3.0700   -3.9980    0.7660 hn        1 PNU      0.223500
     28 H182        3.7340   -4.2350    2.1830 hn        1 PNU      0.223500
     29 H211       -0.0190    2.8230    1.2430 hc        1 PNU      0.092333
     30 H212       -1.5720    2.4380    1.2700 hc        1 PNU      0.092333
     31 H213       -0.5910    1.8860    2.4080 hc        1 PNU      0.092333
@<TRIPOS>BOND
     1    1    6 1   
     2    1   17 1   
     3    2    3 1   
     4    3   18 1   
     5    4    5 1   
     6    4   21 1   
     7    5   19 1   
     8    7    8 1   
     9    8   22 1   
    10    9   10 1   
    11   10   16 1   
    12   11   12 1   
    13   11   23 1   
    14   13   15 1   
    15   14   15 1   
    16   16   17 1   
    17   16   20 1   
    18   16   26 1   
    19   18   27 1   
    20   18   28 1   
    21   20   29 1   
    22   20   30 1   
    23   20   31 1   
@<TRIPOS>SUBSTRUCTURE
     1 PNU         1 TEMP              0 ****  ****    0 ROOT
