@<TRIPOS>MOLECULE
PNV
   41    43     1     0     0
SMALL
bcc


@<TRIPOS>ATOM
      1 C24        -5.0940    0.5820    0.8930 ca        1 PNV     -0.176500
      2 C23        -6.1900    1.3920    0.5880 ca        1 PNV     -0.100500
      3 C22        -6.2030    2.1580   -0.5740 ca        1 PNV     -0.168000
      4 C21        -5.1110    2.1220   -1.4460 ca        1 PNV     -0.100500
      5 C20        -4.0080    1.3250   -1.1650 ca        1 PNV     -0.176500
      6 C19        -4.0060    0.5530    0.0140 ca        1 PNV      0.131100
      7 O1         -2.8680   -0.2100    0.1940 os        1 PNV     -0.323900
      8 C2         -2.7990   -0.9420    1.4190 c3        1 PNV      0.051400
      9 C3         -1.4500   -1.6630    1.4880 c         1 PNV      0.662100
     10 O18        -1.4110   -2.7820    2.0390 o         1 PNV     -0.616100
     11 N4         -0.3360   -1.0050    1.0280 n         1 PNV     -0.517900
     12 C5          0.9550   -1.6000    1.0280 cy        1 PNV     -0.023300
     13 C6          2.0920   -0.7880    1.7520 c         1 PNV      0.653500
     14 O17         2.2470   -0.3830    2.8970 o         1 PNV     -0.569500
     15 C8          1.8430   -1.3940   -0.2610 cy        1 PNV      0.131800
     16 N7          2.9060   -0.8030    0.5780 n         1 PNV     -0.336800
     17 S11         1.2730   -0.1720   -1.4410 ss        1 PNV     -0.428200
     18 C10         2.5720    1.0570   -1.0140 c3        1 PNV      0.089100
     19 C12         3.2830    1.4370   -2.2870 c3        1 PNV     -0.089100
     20 C15         1.8830    2.2530   -0.4020 c3        1 PNV     -0.089100
     21 C9          3.5250    0.3780    0.0130 c3        1 PNV     -0.081300
     22 C13         4.9310    0.0740   -0.6540 c         1 PNV      0.942600
     23 O14         5.8140    0.9360   -0.4030 o         1 PNV     -0.810800
     24 O16         5.0660   -0.9420   -1.3770 o         1 PNV     -0.810800
     25 H24        -5.0990   -0.0180    1.8130 ha        1 PNV      0.148500
     26 H23        -7.0470    1.4190    1.2760 ha        1 PNV      0.129500
     27 H22        -7.0690    2.7930   -0.8060 ha        1 PNV      0.127000
     28 H21        -5.1220    2.7290   -2.3640 ha        1 PNV      0.129500
     29 H20        -3.1400    1.2850   -1.8380 ha        1 PNV      0.148500
     30 H21A       -3.6160   -1.7100    1.4500 h1        1 PNV      0.067700
     31 H22A       -2.8820   -0.2440    2.2940 h1        1 PNV      0.067700
     32 HN4        -0.4540   -0.2070    0.4320 hn        1 PNV      0.345500
     33 H5          0.9090   -2.6670    1.3690 h1        1 PNV      0.111700
     34 H8          2.1580   -2.3270   -0.7750 h2        1 PNV      0.122700
     35 H121        4.1550    2.0980   -2.0440 hc        1 PNV      0.046367
     36 H122        3.6780    0.5230   -2.7980 hc        1 PNV      0.046367
     37 H123        2.5910    1.9780   -2.9750 hc        1 PNV      0.046367
     38 H151        1.1280    2.6780   -1.1070 hc        1 PNV      0.046367
     39 H152        1.3650    1.9700    0.5470 hc        1 PNV      0.046367
     40 H153        2.6370    3.0460   -0.1710 hc        1 PNV      0.046367
     41 H9          3.7350    1.1030    0.8540 h1        1 PNV      0.081700
@<TRIPOS>BOND
     1    1    2 ar  
     2    1    6 ar  
     3    1   25 1   
     4    2    3 ar  
     5    2   26 1   
     6    3    4 ar  
     7    3   27 1   
     8    4    5 ar  
     9    4   28 1   
    10    5    6 ar  
    11    5   29 1   
    12    6    7 1   
    13    7    8 1   
    14    8    9 1   
    15    8   30 1   
    16    8   31 1   
    17    9   10 2   
    18    9   11 1   
    19   11   12 1   
    20   11   32 1   
    21   12   13 1   
    22   12   15 1   
    23   12   33 1   
    24   13   14 2   
    25   13   16 1   
    26   15   16 1   
    27   15   17 1   
    28   15   34 1   
    29   16   21 1   
    30   17   18 1   
    31   18   19 1   
    32   18   20 1   
    33   18   21 1   
    34   19   35 1   
    35   19   36 1   
    36   19   37 1   
    37   20   38 1   
    38   20   39 1   
    39   20   40 1   
    40   21   22 1   
    41   21   41 1   
    42   22   23 1   
    43   22   24 1   
@<TRIPOS>SUBSTRUCTURE
     1 PNV         1 TEMP              0 ****  ****    0 ROOT
