@<TRIPOS>MOLECULE
PNV
   42    44     1     0     0
SMALL
bcc


@<TRIPOS>ATOM
      1 C24        -0.8640    1.5790   -0.2040 ca        1 PNV     -0.132000
      2 C23         0.5020    1.6410   -0.4740 ca        1 PNV     -0.114000
      3 C22         1.3940    0.8170    0.2150 ca        1 PNV     -0.120000
      4 C21         0.9270   -0.0760    1.1800 ca        1 PNV     -0.114000
      5 C20        -0.4370   -0.1610    1.4600 ca        1 PNV     -0.132000
      6 C19        -1.3170    0.6740    0.7620 ca        1 PNV      0.041100
      7 O1         -2.6610    0.6580    1.1540 os        1 PNV     -0.294900
      8 C2         -3.5680    0.2940    0.1370 c3        1 PNV      0.071400
      9 C3         -3.7530   -1.2160    0.1310 c         1 PNV      0.507100
     10 O18        -3.3990   -2.0240    0.9750 o         1 PNV     -0.418100
     11 N4         -4.4550   -1.7880   -1.0710 n4        1 PNV     -0.679800
     12 C5         -5.7910   -1.2090   -1.2930 cy        1 PNV     -0.080500
     13 C6         -6.6750   -2.0040   -2.3530 c         1 PNV      0.672500
     14 O17        -7.0720   -3.1550   -2.3180 o         1 PNV     -0.518500
     15 C8         -5.8520   -0.0470   -2.3490 cy        1 PNV      0.147800
     16 N7         -6.8220   -0.8380   -3.1400 n         1 PNV     -0.282800
     17 S11        -4.3260    0.1090   -3.2890 ss        1 PNV     -0.460200
     18 C10        -5.0690   -0.5960   -4.8570 c3        1 PNV      0.131100
     19 C12        -4.7870    0.3740   -5.9690 c3        1 PNV     -0.103100
     20 C15        -4.4180   -1.9330   -5.0940 c3        1 PNV     -0.103100
     21 C9         -6.5860   -0.7330   -4.5620 c3        1 PNV     -0.134300
     22 C13        -7.3710    0.5470   -5.1700 c         1 PNV      0.959600
     23 O14        -7.8920    0.3120   -6.2790 o         1 PNV     -0.770800
     24 O16        -7.3440    1.6000   -4.4980 o         1 PNV     -0.770800
     25 H24        -1.5700    2.2390   -0.7300 ha        1 PNV      0.153500
     26 H23         0.8770    2.3500   -1.2290 ha        1 PNV      0.147000
     27 H22         2.4720    0.8750   -0.0010 ha        1 PNV      0.145000
     28 H21         1.6350   -0.7180    1.7260 ha        1 PNV      0.147000
     29 H20        -0.8220   -0.8520    2.2240 ha        1 PNV      0.153500
     30 H21A       -4.5480    0.7670    0.4380 h1        1 PNV      0.117200
     31 H22A       -3.2510    0.6540   -0.8820 h1        1 PNV      0.117200
     32 HN4        -4.5450   -2.8070   -0.9740 hn        1 PNV      0.473800
     33 H5         -6.3100   -0.9970   -0.3270 hx        1 PNV      0.131700
     34 H8         -6.2620    0.9350   -2.0220 h2        1 PNV      0.169700
     35 H121       -5.0780    1.4140   -5.6670 hc        1 PNV      0.059867
     36 H122       -5.4080    0.1000   -6.8630 hc        1 PNV      0.059867
     37 H123       -3.7070    0.3550   -6.2480 hc        1 PNV      0.059867
     38 H151       -4.6640   -2.6520   -4.2750 hc        1 PNV      0.059867
     39 H152       -4.7930   -2.3600   -6.0590 hc        1 PNV      0.059867
     40 H153       -3.3070   -1.8330   -5.1660 hc        1 PNV      0.059867
     41 H9         -6.9980   -1.6400   -5.0830 h1        1 PNV      0.109700
     42 H42        -3.8840   -1.5560   -1.9390 hn        1 PNV      0.473800
@<TRIPOS>BOND
     1    1    2 ar  
     2    1    6 ar  
     3    1   25 1   
     4    2    3 ar  
     5    2   26 1   
     6    3    4 ar  
     7    3   27 1   
     8    4    5 ar  
     9    4   28 1   
    10    5    6 ar  
    11    5   29 1   
    12    6    7 1   
    13    7    8 1   
    14    8    9 1   
    15    8   30 1   
    16    8   31 1   
    17    9   10 2   
    18    9   11 1   
    19   11   12 1   
    20   11   32 1   
    21   11   42 1   
    22   12   13 1   
    23   12   15 1   
    24   12   33 1   
    25   13   14 2   
    26   13   16 1   
    27   15   16 1   
    28   15   17 1   
    29   15   34 1   
    30   16   21 1   
    31   17   18 1   
    32   18   19 1   
    33   18   20 1   
    34   18   21 1   
    35   19   35 1   
    36   19   36 1   
    37   19   37 1   
    38   20   38 1   
    39   20   39 1   
    40   20   40 1   
    41   21   22 1   
    42   21   41 1   
    43   22   23 1   
    44   22   24 1   
@<TRIPOS>SUBSTRUCTURE
     1 PNV         1 TEMP              0 ****  ****    0 ROOT
