@<TRIPOS>MOLECULE
PNV
   42    44     1     0     0
SMALL
bcc


@<TRIPOS>ATOM
      1 C24         0.1720    0.1700   -1.1580 ca        1 PNV     -0.170000
      2 C23         0.8530   -0.9300   -0.6430 ca        1 PNV     -0.087000
      3 C22         0.3910   -1.5750    0.5070 ca        1 PNV     -0.131000
      4 C21        -0.7570   -1.1190    1.1530 ca        1 PNV     -0.087000
      5 C20        -1.4600   -0.0210    0.6520 ca        1 PNV     -0.170000
      6 C19        -0.9890    0.6100   -0.5030 ca        1 PNV      0.058100
      7 O1         -1.6440    1.6710   -1.1310 os        1 PNV     -0.322900
      8 C2         -2.5510    2.4090   -0.3440 c3        1 PNV      0.059400
      9 C3         -3.9410    1.7910   -0.2860 c         1 PNV      0.500100
     10 O18        -4.8480    2.2160    0.4180 o         1 PNV     -0.426100
     11 N4         -4.1860    0.6210   -1.1730 ny        1 PNV     -0.679800
     12 C5         -5.5250    0.0150   -1.0880 cy        1 PNV     -0.076500
     13 C6         -5.5470   -1.5260   -1.4670 c         1 PNV      0.666500
     14 O17        -5.0040   -2.4670   -0.9160 o         1 PNV     -0.525500
     15 C8         -6.3960    0.1880   -2.3890 cy        1 PNV      0.142800
     16 N7         -6.4530   -1.2850   -2.5320 n         1 PNV     -0.280800
     17 S11        -5.4490    0.8830   -3.7500 ss        1 PNV     -0.393200
     18 C10        -5.2940   -0.7460   -4.6420 c3        1 PNV      0.109100
     19 C12        -5.7190   -0.5200   -6.0670 c3        1 PNV     -0.101600
     20 C15        -3.8540   -1.1790   -4.5480 c3        1 PNV     -0.101600
     21 C9         -6.2400   -1.7230   -3.8950 c3        1 PNV     -0.133300
     22 C13        -7.6400   -1.8440   -4.6920 c         1 PNV      0.958600
     23 O14        -7.6950   -2.8590   -5.4180 o         1 PNV     -0.771800
     24 O16        -8.4740   -0.9290   -4.5280 o         1 PNV     -0.771800
     25 H24         0.5220    0.6910   -2.0610 ha        1 PNV      0.145000
     26 H23         1.7640   -1.2890   -1.1480 ha        1 PNV      0.152500
     27 H22         0.9360   -2.4440    0.9050 ha        1 PNV      0.152000
     28 H21        -1.1190   -1.6260    2.0610 ha        1 PNV      0.152500
     29 H20        -2.3490    0.3420    1.1850 ha        1 PNV      0.145000
     30 H21A       -2.6390    3.4030   -0.8740 h1        1 PNV      0.125200
     31 H22A       -2.1890    2.5610    0.7100 h1        1 PNV      0.125200
     32 HN4        -4.0700    0.9240   -2.2160 hn        1 PNV      0.483300
     33 H5         -6.0480    0.2810   -0.1380 hx        1 PNV      0.146700
     34 H8         -7.3980    0.6570   -2.2750 h2        1 PNV      0.169700
     35 H121       -6.7080    0.0070   -6.1010 hc        1 PNV      0.058533
     36 H122       -5.8500   -1.5120   -6.5740 hc        1 PNV      0.058533
     37 H123       -4.9570    0.0810   -6.6170 hc        1 PNV      0.058533
     38 H151       -3.7150   -2.1310   -5.1220 hc        1 PNV      0.058533
     39 H152       -3.1720   -0.4080   -4.9820 hc        1 PNV      0.058533
     40 H153       -3.5590   -1.3670   -3.4860 hc        1 PNV      0.058533
     41 H9         -5.7920   -2.7560   -3.8890 h1        1 PNV      0.105700
     42 H42        -3.4710   -0.0890   -0.9620 hn        1 PNV      0.483300
@<TRIPOS>BOND
     1    1    2 ar  
     2    1    6 ar  
     3    1   25 1   
     4    2    3 ar  
     5    2   26 1   
     6    3    4 ar  
     7    3   27 1   
     8    4    5 ar  
     9    4   28 1   
    10    5    6 ar  
    11    5   29 1   
    12    6    7 1   
    13    7    8 1   
    14    8    9 1   
    15    8   30 1   
    16    8   31 1   
    17    9   10 2   
    18    9   11 1   
    19   11   12 1   
    20   11   32 1   
    21   11   42 1   
    22   12   13 1   
    23   12   15 1   
    24   12   33 1   
    25   13   14 2   
    26   13   16 1   
    27   15   16 1   
    28   15   17 1   
    29   15   34 1   
    30   16   21 1   
    31   17   18 1   
    32   18   19 1   
    33   18   20 1   
    34   18   21 1   
    35   19   35 1   
    36   19   36 1   
    37   19   37 1   
    38   20   38 1   
    39   20   39 1   
    40   20   40 1   
    41   21   22 1   
    42   21   41 1   
    43   22   23 1   
    44   22   24 1   
@<TRIPOS>SUBSTRUCTURE
     1 PNV         1 TEMP              0 ****  ****    0 ROOT
