@<TRIPOS>MOLECULE
PNW
   36    37     1     0     0
SMALL
bcc


@<TRIPOS>ATOM
      1 C1          1.1640    0.6250   -0.1810 c3        1 PNW      0.305900
      2 N1         -5.2690   -0.2020   -0.2720 no        1 PNW      0.318200
      3 O1          0.1180    1.2120    0.5830 os        1 PNW     -0.325900
      4 C2          2.4130    1.4930    0.0800 c3        1 PNW      0.088100
      5 O2          2.3290    2.7040   -0.6470 oh        1 PNW     -0.597800
      6 C3          3.6550    0.7540   -0.4400 c3        1 PNW      0.109100
      7 O3          4.8380    1.4210   -0.0400 oh        1 PNW     -0.600800
      8 C4          3.7170   -0.6530    0.1800 c3        1 PNW      0.123100
      9 O4          4.7590   -1.4060   -0.4130 oh        1 PNW     -0.591800
     10 C5          2.4070   -1.4030   -0.1020 c3        1 PNW      0.106100
     11 O5          1.2890   -0.6620    0.4010 os        1 PNW     -0.444600
     12 C6          2.3710   -2.7480    0.6300 c3        1 PNW      0.141400
     13 O6          1.1990   -3.4630    0.3090 oh        1 PNW     -0.591800
     14 C7         -1.1720    0.7960    0.3200 ca        1 PNW      0.171100
     15 O7         -6.1160    0.5210    0.1810 o         1 PNW     -0.210500
     16 C8         -2.1750    1.6350    0.8480 ca        1 PNW     -0.184500
     17 O8         -5.5430   -1.1950   -0.8920 o         1 PNW     -0.210500
     18 C9         -3.5090    1.3050    0.6580 ca        1 PNW     -0.036000
     19 C10        -3.8420    0.1430   -0.0610 ca        1 PNW     -0.211200
     20 C11        -2.8410   -0.6960   -0.5780 ca        1 PNW     -0.036000
     21 C12        -1.5030   -0.3690   -0.3840 ca        1 PNW     -0.184500
     22 H1          0.9080    0.5600   -1.2730 h2        1 PNW      0.071700
     23 H2          2.5100    1.6980    1.1820 h1        1 PNW      0.082700
     24 HO2         1.5970    3.2070   -0.2670 ho        1 PNW      0.424000
     25 H3          3.6180    0.6860   -1.5630 h1        1 PNW      0.067700
     26 HO3         4.7850    2.3180   -0.3970 ho        1 PNW      0.429000
     27 H4          3.8890   -0.5660    1.2900 h1        1 PNW      0.066700
     28 HO4         5.5690   -0.8890   -0.2970 ho        1 PNW      0.428000
     29 H5          2.2810   -1.5590   -1.2090 h1        1 PNW      0.070700
     30 H6          3.2240   -3.3820    0.2660 h1        1 PNW      0.068700
     31 H6A         2.4470   -2.5850    1.7370 h1        1 PNW      0.068700
     32 HO6         0.4520   -2.9490    0.6430 ho        1 PNW      0.409000
     33 H8         -1.8910    2.5360    1.4100 ha        1 PNW      0.163500
     34 H9         -4.3050    1.9520    1.0670 ha        1 PNW      0.175000
     35 H11        -3.1130   -1.6120   -1.1320 ha        1 PNW      0.175000
     36 H12        -0.7140   -1.0400   -0.7600 ha        1 PNW      0.163500
@<TRIPOS>BOND
     1    1    3 1   
     2    1    4 1   
     3    1   11 1   
     4    1   22 1   
     5    2   15 1   
     6    2   17 1   
     7    2   19 1   
     8    3   14 1   
     9    4    5 1   
    10    4    6 1   
    11    4   23 1   
    12    5   24 1   
    13    6    7 1   
    14    6    8 1   
    15    6   25 1   
    16    7   26 1   
    17    8    9 1   
    18    8   10 1   
    19    8   27 1   
    20    9   28 1   
    21   10   11 1   
    22   10   12 1   
    23   10   29 1   
    24   12   13 1   
    25   12   30 1   
    26   12   31 1   
    27   13   32 1   
    28   14   16 ar  
    29   14   21 ar  
    30   16   18 ar  
    31   16   33 1   
    32   18   19 ar  
    33   18   34 1   
    34   19   20 ar  
    35   20   21 ar  
    36   20   35 1   
    37   21   36 1   
@<TRIPOS>SUBSTRUCTURE
     1 PNW         1 TEMP              0 ****  ****    0 ROOT
