@<TRIPOS>MOLECULE
PNW
   36    34     1     0     0
SMALL
bcc


@<TRIPOS>ATOM
      1 C1          0.5730   -0.0300    0.0030 c3        1 PNW      0.120000
      2 N1         -4.2380   -1.9410   -3.8840 n2        1 PNW      0.573000
      3 O1          0.1310    0.1200   -1.2970 os        1 PNW     -0.210000
      4 C2          2.0860   -0.0850    0.0030 c3        1 PNW     -0.025000
      5 O2          2.5080   -1.2950   -0.6560 oh        1 PNW     -0.326000
      6 C3          2.6510   -0.0640    1.3720 c3        1 PNW     -0.002000
      7 O3          4.0980    0.0640    1.2820 oh        1 PNW     -0.330000
      8 C4          2.1160    1.0660    2.1870 c3        1 PNW      0.008000
      9 O4          2.5660    0.9150    3.5390 oh        1 PNW     -0.320000
     10 C5          0.5960    1.1180    2.1760 c3        1 PNW      0.034000
     11 O5          0.0440    1.0930    0.8230 os        1 PNW     -0.284000
     12 C6          0.1480    2.3750    2.8590 c3        1 PNW     -0.015000
     13 O6         -1.2690    2.3790    2.9590 oh        1 PNW     -0.329000
     14 C7         -1.0260   -0.6620   -1.4940 c2        1 PNW      0.126000
     15 O7         -5.3620   -1.4990   -3.6870 o         1 PNW     -0.362000
     16 C8         -2.3260   -0.2970   -1.1650 c2        1 PNW     -0.194000
     17 O8         -4.0260   -2.8500   -4.8810 os        1 PNW     -0.363000
     18 C9         -3.3870   -0.7180   -1.9560 c1        1 PNW     -0.034000
     19 C10        -3.1490   -1.5040   -3.0760 c1        1 PNW     -0.166000
     20 C11        -1.8500   -1.8690   -3.4050 c1        1 PNW     -0.042000
     21 C12        -0.7890   -1.4470   -2.6140 c1        1 PNW     -0.169000
     22 H1          0.2260   -0.8720    0.3600 h2        1 PNW      0.110000
     23 H2          2.4300    0.6830   -0.4940 h1        1 PNW      0.121000
     24 HO2         3.2890   -1.1570   -1.0590 ho        1 PNW      0.223000
     25 H3          2.4330   -0.9070    1.8180 h1        1 PNW      0.107000
     26 HO3         4.4840   -0.6530    1.6490 ho        1 PNW      0.228000
     27 H4          2.4630    1.9050    1.8290 h1        1 PNW      0.105000
     28 HO4         3.2310    1.4900    3.6980 ho        1 PNW      0.227000
     29 H5          0.2520    0.3520    2.6700 h1        1 PNW      0.117000
     30 H6          0.5390    2.4180    3.7550 h1        1 PNW      0.091500
     31 H6A         0.4400    3.1510    2.3380 h1        1 PNW      0.091500
     32 HO6        -1.5290    3.0520    3.4890 ho        1 PNW      0.207000
     33 H8         -2.4940    0.2580   -0.3740 ha        1 PNW      0.175000
     34 H9         -4.3040   -0.4600   -1.7230 ha        1 PNW      0.174000
     35 H11        -1.6820   -2.4250   -4.1980 ha        1 PNW      0.173000
     36 H12         0.1280   -1.7050   -2.8460 ha        1 PNW      0.160000
@<TRIPOS>BOND
     1    1    3 1   
     2    1    4 1   
     3    1   11 1   
     4    1   22 1   
     5    2   15 1   
     6    2   19 1   
     7    3   14 1   
     8    4    5 1   
     9    4    6 1   
    10    4   23 1   
    11    5   24 1   
    12    6    7 1   
    13    6    8 1   
    14    6   25 1   
    15    7   26 1   
    16    8    9 1   
    17    8   10 1   
    18    8   27 1   
    19    9   28 1   
    20   10   11 1   
    21   10   12 1   
    22   10   29 1   
    23   12   13 1   
    24   12   30 1   
    25   12   31 1   
    26   13   32 1   
    27   14   16 1   
    28   14   21 1   
    29   16   18 1   
    30   16   33 1   
    31   18   34 1   
    32   19   20 1   
    33   20   35 1   
    34   21   36 1   
@<TRIPOS>SUBSTRUCTURE
     1 PNW         1 TEMP              0 ****  ****    0 ROOT
