@<TRIPOS>MOLECULE
PNX
   38    39     1     0     0
SMALL
bcc


@<TRIPOS>ATOM
      1 CAA         0.0940    0.3920    0.1470 c3        1 PNX     -0.205100
      2 CAM         1.5240   -0.0450    0.1890 c         1 PNX      0.564100
      3 OAD         2.0560   -0.4550    1.2260 o         1 PNX     -0.530100
      4 CAJ         2.2500    0.0510   -1.1230 c3        1 PNX     -0.181400
      5 CAH         3.7470   -0.1100   -0.9740 c3        1 PNX     -0.072400
      6 CAI         4.4300   -0.0600   -2.3230 c3        1 PNX     -0.100400
      7 CAK         5.9420   -0.1910   -2.1350 c3        1 PNX      0.096000
      8 N1          6.7030   -0.1650   -3.3740 n         1 PNX     -0.482400
      9 C6          7.1170   -1.3820   -3.9570 c         1 PNX      0.764100
     10 O6          6.8600   -2.4760   -3.4200 o         1 PNX     -0.630500
     11 C5          7.8570   -1.2250   -5.1960 cc        1 PNX     -0.350200
     12 N7          8.4370   -2.1690   -6.0500 na        1 PNX     -0.148900
     13 CAB         8.4430   -3.5860   -5.8800 c3        1 PNX      0.009600
     14 C8          9.0140   -1.4430   -7.0910 cc        1 PNX      0.443400
     15 N9          8.8460   -0.0990   -6.9710 nd        1 PNX     -0.685000
     16 C4          8.1190    0.0570   -5.7800 cd        1 PNX      0.485200
     17 N3          7.6690    1.2180   -5.1700 n         1 PNX     -0.418300
     18 CAC         7.9250    2.5040   -5.7640 c3        1 PNX      0.090300
     19 C2          6.9390    1.1060   -3.9610 c         1 PNX      0.815500
     20 O2          6.5120    2.1420   -3.4060 o         1 PNX     -0.640500
     21 HAA1       -0.4260   -0.0740   -0.7240 hc        1 PNX      0.063367
     22 HAA2       -0.4370    0.1030    1.0870 hc        1 PNX      0.063367
     23 HAA3        0.0500    1.5030    0.0380 hc        1 PNX      0.063367
     24 HAJ1        2.0150    1.0420   -1.5950 hc        1 PNX      0.065700
     25 HAJ2        1.8450   -0.7480   -1.8010 hc        1 PNX      0.065700
     26 HAH1        3.9670   -1.0850   -0.4640 hc        1 PNX      0.058200
     27 HAH2        4.1440    0.7040   -0.3110 hc        1 PNX      0.058200
     28 HAI1        4.0490   -0.8890   -2.9730 hc        1 PNX      0.053200
     29 HAI2        4.1990    0.9120   -2.8330 hc        1 PNX      0.053200
     30 HAK1        6.1690   -1.1660   -1.6140 h1        1 PNX      0.079200
     31 HAK2        6.3040    0.6600   -1.4890 h1        1 PNX      0.079200
     32 HAB1        7.8790   -3.8540   -4.9430 h1        1 PNX      0.071367
     33 HAB2        7.9510   -4.0760   -6.7630 h1        1 PNX      0.071367
     34 HAB3        9.5000   -3.9550   -5.7970 h1        1 PNX      0.071367
     35 H8          9.5480   -1.9250   -7.9200 h5        1 PNX      0.071100
     36 HAC1        7.5080    3.3140   -5.1090 h1        1 PNX      0.063367
     37 HAC2        7.4410    2.5520   -6.7770 h1        1 PNX      0.063367
     38 HAC3        9.0320    2.6470   -5.8820 h1        1 PNX      0.063367
@<TRIPOS>BOND
     1    1    2 1   
     2    1   21 1   
     3    1   22 1   
     4    1   23 1   
     5    2    3 2   
     6    2    4 1   
     7    4    5 1   
     8    4   24 1   
     9    4   25 1   
    10    5    6 1   
    11    5   26 1   
    12    5   27 1   
    13    6    7 1   
    14    6   28 1   
    15    6   29 1   
    16    7    8 1   
    17    7   30 1   
    18    7   31 1   
    19    8    9 1   
    20    8   19 1   
    21    9   10 2   
    22    9   11 1   
    23   11   12 1   
    24   11   16 2   
    25   12   13 1   
    26   12   14 1   
    27   13   32 1   
    28   13   33 1   
    29   13   34 1   
    30   14   15 2   
    31   14   35 1   
    32   15   16 1   
    33   16   17 1   
    34   17   18 1   
    35   17   19 1   
    36   18   36 1   
    37   18   37 1   
    38   18   38 1   
    39   19   20 2   
@<TRIPOS>SUBSTRUCTURE
     1 PNX         1 TEMP              0 ****  ****    0 ROOT
