@<TRIPOS>MOLECULE
PNX
   38    39     1     0     0
SMALL
bcc


@<TRIPOS>ATOM
      1 CAA        -6.8410    0.1030    1.2790 c3        1 PNX     -0.205100
      2 CAM        -5.7770    0.3760    0.2640 c         1 PNX      0.564100
      3 OAD        -6.0430    0.7420   -0.8850 o         1 PNX     -0.530100
      4 CAJ        -4.3710    0.1750    0.7560 c3        1 PNX     -0.181400
      5 CAH        -3.3560    0.1690   -0.3660 c3        1 PNX     -0.072400
      6 CAI        -1.9530    0.0180    0.1790 c3        1 PNX     -0.100400
      7 CAK        -0.9570   -0.0190   -0.9800 c3        1 PNX      0.096000
      8 N1          0.4330   -0.1540   -0.5700 n         1 PNX     -0.482400
      9 C6          1.2450    0.9980   -0.4920 c         1 PNX      0.764100
     10 O6          0.8000    2.1230   -0.7870 o         1 PNX     -0.630500
     11 C5          2.6060    0.7360   -0.0600 cc        1 PNX     -0.350200
     12 N7          3.6960    1.5930    0.1250 na        1 PNX     -0.148900
     13 CAB         3.7210    3.0040   -0.0940 c3        1 PNX      0.009600
     14 C8          4.7490    0.7890    0.5560 cc        1 PNX      0.443400
     15 N9          4.4160   -0.5260    0.6640 nd        1 PNX     -0.685000
     16 C4          3.0670   -0.5770    0.2790 cd        1 PNX      0.485200
     17 N3          2.2160   -1.6690    0.2010 n         1 PNX     -0.418300
     18 CAC         2.6800   -2.9860    0.5510 c3        1 PNX      0.090300
     19 C2          0.8790   -1.4530   -0.2130 c         1 PNX      0.815500
     20 O2          0.0930   -2.4250   -0.2730 o         1 PNX     -0.640500
     21 HAA1       -6.5930    0.6080    2.2430 hc        1 PNX      0.063367
     22 HAA2       -7.8340    0.4670    0.9200 hc        1 PNX      0.063367
     23 HAA3       -6.9060   -0.9980    1.4590 hc        1 PNX      0.063367
     24 HAJ1       -4.3210   -0.7910    1.3250 hc        1 PNX      0.065700
     25 HAJ2       -4.1370    1.0020    1.4790 hc        1 PNX      0.065700
     26 HAH1       -3.4440    1.1220   -0.9520 hc        1 PNX      0.058200
     27 HAH2       -3.5870   -0.6720   -1.0710 hc        1 PNX      0.058200
     28 HAI1       -1.8730   -0.9310    0.7730 hc        1 PNX      0.053200
     29 HAI2       -1.7170    0.8730    0.8640 hc        1 PNX      0.053200
     30 HAK1       -1.0460    0.9320   -1.5790 h1        1 PNX      0.079200
     31 HAK2       -1.2060   -0.8950   -1.6470 h1        1 PNX      0.079200
     32 HAB1        4.4780    3.2520   -0.8860 h1        1 PNX      0.071367
     33 HAB2        2.7040    3.3500   -0.4280 h1        1 PNX      0.071367
     34 HAB3        4.0010    3.5300    0.8590 h1        1 PNX      0.071367
     35 H8          5.7450    1.1920    0.7820 h5        1 PNX      0.071100
     36 HAC1        3.0000   -2.9970    1.6270 h1        1 PNX      0.063367
     37 HAC2        1.8560   -3.7320    0.3960 h1        1 PNX      0.063367
     38 HAC3        3.5590   -3.2550   -0.0940 h1        1 PNX      0.063367
@<TRIPOS>BOND
     1    1    2 1   
     2    1   21 1   
     3    1   22 1   
     4    1   23 1   
     5    2    3 2   
     6    2    4 1   
     7    4    5 1   
     8    4   24 1   
     9    4   25 1   
    10    5    6 1   
    11    5   26 1   
    12    5   27 1   
    13    6    7 1   
    14    6   28 1   
    15    6   29 1   
    16    7    8 1   
    17    7   30 1   
    18    7   31 1   
    19    8    9 1   
    20    8   19 1   
    21    9   10 2   
    22    9   11 1   
    23   11   12 1   
    24   11   16 2   
    25   12   13 1   
    26   12   14 1   
    27   13   32 1   
    28   13   33 1   
    29   13   34 1   
    30   14   15 2   
    31   14   35 1   
    32   15   16 1   
    33   16   17 1   
    34   17   18 1   
    35   17   19 1   
    36   18   36 1   
    37   18   37 1   
    38   18   38 1   
    39   19   20 2   
@<TRIPOS>SUBSTRUCTURE
     1 PNX         1 TEMP              0 ****  ****    0 ROOT
