@<TRIPOS>MOLECULE
PNX
   38    39     1     0     0
SMALL
bcc


@<TRIPOS>ATOM
      1 CAA         0.1120    0.4020    0.1730 c3        1 PNX     -0.205100
      2 CAM         1.5440   -0.0270    0.2100 c         1 PNX      0.564100
      3 OAD         2.0830   -0.4250    1.2480 o         1 PNX     -0.530100
      4 CAJ         2.2620    0.0600   -1.1060 c3        1 PNX     -0.181400
      5 CAH         3.7600   -0.0960   -0.9650 c3        1 PNX     -0.072400
      6 CAI         4.4360   -0.0540   -2.3180 c3        1 PNX     -0.100400
      7 CAK         5.9490   -0.1810   -2.1370 c3        1 PNX      0.096000
      8 N1          6.7030   -0.1630   -3.3810 n         1 PNX     -0.482400
      9 C6          7.1150   -1.3830   -3.9580 c         1 PNX      0.764100
     10 O6          6.8630   -2.4730   -3.4130 o         1 PNX     -0.630500
     11 C5          7.8480   -1.2330   -5.2030 cc        1 PNX     -0.350200
     12 N7          8.4240   -2.1830   -6.0530 na        1 PNX     -0.148900
     13 CAB         8.4320   -3.5990   -5.8740 c3        1 PNX      0.009600
     14 C8          8.9940   -1.4630   -7.1030 cc        1 PNX      0.443400
     15 N9          8.8250   -0.1170   -6.9900 nd        1 PNX     -0.685000
     16 C4          8.1040    0.0450   -5.7960 cd        1 PNX      0.485200
     17 N3          7.6570    1.2100   -5.1920 n         1 PNX     -0.418300
     18 CAC         7.9080    2.4920   -5.7960 c3        1 PNX      0.090300
     19 C2          6.9340    1.1050   -3.9780 c         1 PNX      0.815500
     20 O2          6.5090    2.1440   -3.4270 o         1 PNX     -0.640500
     21 HAA1       -0.4110   -0.0750   -0.6910 hc        1 PNX      0.063367
     22 HAA2       -0.4120    0.1210    1.1180 hc        1 PNX      0.063367
     23 HAA3        0.0620    1.5120    0.0520 hc        1 PNX      0.063367
     24 HAJ1        2.0220    1.0460   -1.5850 hc        1 PNX      0.065700
     25 HAJ2        1.8550   -0.7450   -1.7750 hc        1 PNX      0.065700
     26 HAH1        3.9860   -1.0670   -0.4490 hc        1 PNX      0.057700
     27 HAH2        4.1590    0.7230   -0.3100 hc        1 PNX      0.057700
     28 HAI1        4.0530   -0.8890   -2.9600 hc        1 PNX      0.053200
     29 HAI2        4.1990    0.9140   -2.8340 hc        1 PNX      0.053200
     30 HAK1        6.1810   -1.1520   -1.6110 h1        1 PNX      0.079200
     31 HAK2        6.3130    0.6750   -1.4990 h1        1 PNX      0.079200
     32 HAB1        7.8750   -3.8610   -4.9320 h1        1 PNX      0.071367
     33 HAB2        7.9360   -4.0940   -6.7520 h1        1 PNX      0.071367
     34 HAB3        9.4910   -3.9660   -5.7950 h1        1 PNX      0.071367
     35 H8          9.5230   -1.9490   -7.9310 h5        1 PNX      0.071100
     36 HAC1        7.4950    3.3060   -5.1430 h1        1 PNX      0.063367
     37 HAC2        7.4170    2.5330   -6.8050 h1        1 PNX      0.063367
     38 HAC3        9.0140    2.6350   -5.9220 h1        1 PNX      0.063367
@<TRIPOS>BOND
     1    1    2 1   
     2    1   21 1   
     3    1   22 1   
     4    1   23 1   
     5    2    3 2   
     6    2    4 1   
     7    4    5 1   
     8    4   24 1   
     9    4   25 1   
    10    5    6 1   
    11    5   26 1   
    12    5   27 1   
    13    6    7 1   
    14    6   28 1   
    15    6   29 1   
    16    7    8 1   
    17    7   30 1   
    18    7   31 1   
    19    8    9 1   
    20    8   19 1   
    21    9   10 2   
    22    9   11 1   
    23   11   12 1   
    24   11   16 2   
    25   12   13 1   
    26   12   14 1   
    27   13   32 1   
    28   13   33 1   
    29   13   34 1   
    30   14   15 2   
    31   14   35 1   
    32   15   16 1   
    33   16   17 1   
    34   17   18 1   
    35   17   19 1   
    36   18   36 1   
    37   18   37 1   
    38   18   38 1   
    39   19   20 2   
@<TRIPOS>SUBSTRUCTURE
     1 PNX         1 TEMP              0 ****  ****    0 ROOT
