@<TRIPOS>MOLECULE
PNY
   42    37     1     0     0
SMALL
bcc


@<TRIPOS>ATOM
      1 CAA        -0.2900    0.2680    1.3170 c1        1 PNY      0.157000
      2 CAB         2.3350   -1.7270    3.6180 c3        1 PNY     -0.299000
      3 OAC        -3.2250   -6.1630    0.2880 o         1 PNY     -0.317000
      4 OAD        -3.9800    0.0850   -0.1230 o         1 PNY     -0.243000
      5 OAE         0.5580   -0.6200    1.0400 oh        1 PNY      0.022000
      6 CAF        -1.1740    1.2190    1.4490 c2        1 PNY      0.008000
      7 SAG        -4.5170  -12.9710   -0.0810 s4        1 PNY      1.270000
      8 CAH        -3.7320  -11.5930    0.2090 c2        1 PNY     -0.899000
      9 CAI        -0.7850    2.6540    1.4350 c3        1 PNY     -0.198000
     10 CAJ        -4.0630  -10.3030   -0.1630 c2        1 PNY      0.210000
     11 CAK        -3.1300   -2.5300    0.5190 c2        1 PNY      0.070000
     12 CAL        -2.5370   -3.8980    0.6360 c3        1 PNY     -0.243000
     13 NAM        -3.4560   -9.1970    0.2660 n8        1 PNY     -0.283000
     14 CAO        -3.4710   -4.9650    0.1370 c2        1 PNY      0.212000
     15 CAP        -3.1300   -0.1930    0.7310 c2        1 PNY      0.211000
     16 CAQ        -2.6440    0.9030    1.6900 c3        1 PNY      0.070000
     17 OAR        -3.4150    2.0640    1.5850 oh        1 PNY     -0.267000
     18 HAA         2.0990   -2.2520    0.4660 ha        1 PNY      0.003500
     19 HAAA        2.0510   -1.9330   -0.1320 ha        1 PNY      0.003500
     20 HAB         2.4500   -0.6210    3.6680 hc        1 PNY      0.077750
     21 HABA        2.9510   -2.1850    4.4260 hc        1 PNY      0.077750
     22 HABB        2.6970   -2.1070    2.6360 hc        1 PNY      0.077750
     23 HOAE        1.0020   -0.9910    1.8670 ho        1 PNY      0.319000
     24 HSAG       -5.2360  -12.6580   -1.1250 hs        1 PNY     -0.100500
     25 HAH        -3.6210  -13.6500   -0.7560 hs        1 PNY     -0.100500
     26 HAHA       -2.8450  -11.7230    0.8630 h4        1 PNY      0.208000
     27 HAI        -1.1810    3.1450    2.3650 hc        1 PNY      0.149333
     28 HAIA        0.3190    2.8060    1.3720 hc        1 PNY      0.149333
     29 HAIB       -1.2780    3.1480    0.5540 hc        1 PNY      0.149333
     30 HAJ        -3.7470   -8.2910   -0.0390 hn        1 PNY      0.266000
     31 HAJA       -4.9060  -10.1380   -0.8760 h4        1 PNY      0.159000
     32 HAK        -6.4460   -2.8310   -1.1490 ha        1 PNY      0.003500
     33 HAKA       -5.9590   -3.2110   -0.8690 ha        1 PNY      0.003500
     34 HAL        -4.1660   -2.4960    0.0930 h4        1 PNY      0.152000
     35 HALA       -1.5810   -3.9580    0.0420 hc        1 PNY      0.160500
     36 HNAM       -4.3940   -4.6190   -0.3840 h4        1 PNY      0.122000
     37 HNAN       -2.2650   -4.1140    1.7080 hc        1 PNY      0.160500
     38 HAQ        -2.7570    0.5720    2.7700 h1        1 PNY      0.186000
     39 HOAR       -3.7360    2.1660    0.6710 ho        1 PNY      0.254000
     40 NAN        -2.5050   -1.4590    0.8900 n2        1 PNY     -0.307000
     41 HAM2       -2.6960   -9.2380    0.9090 hn        1 PNY      0.266000
     42 HAN2        1.2710   -2.0110    3.7750 hc        1 PNY      0.077750
@<TRIPOS>BOND
     1    1    5 1   
     2    1    6 1   
     3    2   20 1   
     4    2   21 1   
     5    2   22 1   
     6    2   42 1   
     7    3   14 1   
     8    4   15 1   
     9    5   23 1   
    10    6    9 1   
    11    6   16 1   
    12    7    8 1   
    13    7   24 1   
    14    7   25 1   
    15    8   10 1   
    16    8   26 1   
    17    9   27 1   
    18    9   28 1   
    19    9   29 1   
    20   10   13 1   
    21   10   31 1   
    22   11   12 1   
    23   11   34 1   
    24   11   40 1   
    25   12   14 1   
    26   12   35 1   
    27   12   37 1   
    28   13   30 1   
    29   13   41 1   
    30   14   36 1   
    31   15   16 1   
    32   15   40 1   
    33   16   17 1   
    34   16   38 1   
    35   17   39 1   
    36   18   19 1   
    37   32   33 1   
@<TRIPOS>SUBSTRUCTURE
     1 PNY         1 TEMP              0 ****  ****    0 ROOT
