@<TRIPOS>MOLECULE
PNY
   42    41     1     0     0
SMALL
bcc


@<TRIPOS>ATOM
      1 CAA        66.3250  268.5980  -22.3550 c3        1 PNY      0.138400
      2 CAB        67.5110  269.8290  -20.5080 c3        1 PNY     -0.110600
      3 OAC        69.4910  271.8120  -26.0190 oh        1 PNY     -0.542800
      4 OAD        68.4260  270.3450  -24.7390 os        1 PNY     -0.397400
      5 OAE        65.3170  268.1010  -21.5120 oh        1 PNY     -0.560800
      6 CAF        67.6610  268.8080  -21.6220 c3        1 PNY     -0.093000
      7 SAG      -224.6620 -877.3040   76.1300 sh        1 PNY     -0.215900
      8 CAH      -226.0120 -878.1350   76.9040 c3        1 PNY     -0.155600
      9 CAI        68.1130  267.4800  -21.0190 c3        1 PNY     -0.110600
     10 CAJ      -225.5950 -879.5530   76.7610 c2        1 PNY      0.418200
     11 CAK        67.7790  272.8890  -23.6610 c3        1 PNY     -0.014700
     12 CAL        67.3280  272.5360  -25.0740 c3        1 PNY     -0.174400
     13 NAM      -225.0520 -880.2710   77.7100 nh        1 PNY     -0.331100
     14 CAO        68.2010  271.4520  -25.6780 c3        1 PNY      0.331900
     15 CAP        68.3820  270.5320  -23.4180 c2        1 PNY      0.514600
     16 CAQ        68.7390  269.2400  -22.6410 c3        1 PNY      0.114800
     17 OAR        68.8700  268.2020  -23.5770 oh        1 PNY     -0.538800
     18 HAA        66.0050  269.5680  -22.8260 h1        1 PNY      0.052700
     19 HAAA       66.4470  267.8100  -23.1500 h1        1 PNY      0.052700
     20 HAB        66.7650  270.6190  -20.7690 hc        1 PNY      0.060200
     21 HABA       68.4900  270.3000  -20.2480 hc        1 PNY      0.060200
     22 HABB       67.1320  269.3170  -19.5850 hc        1 PNY      0.060200
     23 HOAE       65.1570  268.7550  -20.8190 ho        1 PNY      0.402000
     24 HSAG     -225.2030 -877.0040   74.9540 hs        1 PNY      0.237800
     25 HAH      -226.0990 -877.7790   77.9650 h1        1 PNY      0.146700
     26 HAHA     -227.0070 -877.9660   76.4160 h1        1 PNY      0.146700
     27 HAI        69.0220  267.6270  -20.3890 hc        1 PNY      0.060200
     28 HAIA       68.3410  266.7420  -21.8260 hc        1 PNY      0.060200
     29 HAIB       67.2880  267.0670  -20.3870 hc        1 PNY      0.060200
     30 HAJ      -224.7210 -881.2060   77.5390 hn        1 PNY      0.336200
     31 HAJA     -225.7260 -880.0200   75.7530 h4        1 PNY      0.082800
     32 HAK        69.8020  272.5290  -25.4480 ho        1 PNY      0.423000
     33 HAKA       68.6880  273.5610  -23.6950 h1        1 PNY      0.103700
     34 HAL        66.9540  273.4480  -23.1310 h1        1 PNY      0.103700
     35 HALA       67.3820  273.4570  -25.7170 hc        1 PNY      0.118700
     36 HNAM       67.7520  270.9200  -26.5720 h2        1 PNY      0.172700
     37 HNAN       66.2600  272.1900  -25.0710 hc        1 PNY      0.118700
     38 HAQ        69.7120  269.4560  -22.1110 h1        1 PNY      0.093700
     39 HOAR       69.6810  268.3470  -24.0880 ho        1 PNY      0.437000
     40 NAN        68.1210  271.7180  -22.8710 nh        1 PNY     -0.342100
     41 HAM2     -224.9190 -879.9170   78.6420 hn        1 PNY      0.336200
     42 HAN2       68.1030  271.8130  -21.8710 hn        1 PNY      0.344700
@<TRIPOS>BOND
     1    1    5 1   
     2    1    6 1   
     3    1   18 1   
     4    1   19 1   
     5    2    6 1   
     6    2   20 1   
     7    2   21 1   
     8    2   22 1   
     9    3   14 1   
    10    3   32 1   
    11    4   14 1   
    12    4   15 1   
    13    5   23 1   
    14    6    9 1   
    15    6   16 1   
    16    7    8 1   
    17    7   24 1   
    18    8   10 1   
    19    8   25 1   
    20    8   26 1   
    21    9   27 1   
    22    9   28 1   
    23    9   29 1   
    24   10   13 2   
    25   10   31 1   
    26   11   12 1   
    27   11   33 1   
    28   11   34 1   
    29   11   40 1   
    30   12   14 1   
    31   12   35 1   
    32   12   37 1   
    33   13   30 1   
    34   13   41 1   
    35   14   36 1   
    36   15   16 1   
    37   15   40 2   
    38   16   17 1   
    39   16   38 1   
    40   17   39 1   
    41   40   42 1   
@<TRIPOS>SUBSTRUCTURE
     1 PNY         1 TEMP              0 ****  ****    0 ROOT
