@<TRIPOS>MOLECULE
PNY
   40    39     1     0     0
SMALL
bcc


@<TRIPOS>ATOM
      1 CAA        -3.7210   -1.5240    0.9270 c3        1 PNY      0.125400
      2 CAB        -3.2590   -1.1730   -1.5060 c3        1 PNY     -0.089100
      3 OAC         3.0690   -0.1280   -2.1670 o         1 PNY     -0.605100
      4 OAD        -1.4610    0.7030    1.3130 o         1 PNY     -0.622100
      5 OAE        -4.0050   -2.8620    0.5500 oh        1 PNY     -0.599800
      6 CAF        -3.9790   -0.6230   -0.2880 c3        1 PNY     -0.076000
      7 SAG         6.7700   -0.8590    1.0460 sh        1 PNY     -0.359900
      8 CAH         5.0370   -1.0370    0.7750 c3        1 PNY     -0.032300
      9 CAI        -5.4760   -0.5700   -0.5640 c3        1 PNY     -0.089100
     10 CAJ         4.4160    0.2610    0.2680 c3        1 PNY      0.087000
     11 CAK         0.2320    1.1960   -0.8690 c3        1 PNY      0.090000
     12 CAL         0.8850   -0.1600   -1.1510 c3        1 PNY     -0.188400
     13 NAM         2.9910    0.2180    0.1000 n         1 PNY     -0.568900
     14 CAO         2.3960   -0.0340   -1.1220 c         1 PNY      0.657100
     15 CAP        -1.9680    0.8710    0.1840 c         1 PNY      0.625100
     16 CAQ        -3.4960    0.8110    0.0210 c3        1 PNY      0.083100
     17 OAR        -4.0990    1.3310    1.1870 oh        1 PNY     -0.580800
     18 HAA        -4.3890   -1.2140    1.7760 h1        1 PNY      0.035700
     19 HAAA       -2.6480   -1.4380    1.2500 h1        1 PNY      0.035700
     20 HAB        -3.7260   -2.1450   -1.8030 hc        1 PNY      0.045367
     21 HABA       -3.3330   -0.4610   -2.3620 hc        1 PNY      0.045367
     22 HABB       -2.1830   -1.3650   -1.2760 hc        1 PNY      0.045367
     23 HOAE       -3.9010   -3.3950    1.3470 ho        1 PNY      0.404000
     24 HSAG        7.1750   -0.6970   -0.2020 hs        1 PNY      0.204800
     25 HAH         4.8300   -1.8720    0.0640 h1        1 PNY      0.079200
     26 HAHA        4.6180   -1.3170    1.7740 h1        1 PNY      0.079200
     27 HAI        -5.9970   -0.0270    0.2620 hc        1 PNY      0.045367
     28 HAIA       -5.6750   -0.0380   -1.5240 hc        1 PNY      0.045367
     29 HAIB       -5.8800   -1.6090   -0.6320 hc        1 PNY      0.045367
     30 HAJ         4.6550    1.0850    1.0010 h1        1 PNY      0.071700
     31 HAJA        4.8830    0.5240   -0.7260 h1        1 PNY      0.071700
     32 HAK         0.5410    1.5510    0.1570 h1        1 PNY      0.072700
     33 HAKA        0.5980    1.9420   -1.6310 h1        1 PNY      0.072700
     34 HAL         0.5460   -0.9190   -0.3990 hc        1 PNY      0.076200
     35 HALA        0.5960   -0.5300   -2.1700 hc        1 PNY      0.076200
     36 HNAM        2.4360    0.1650    0.9200 hn        1 PNY      0.314500
     37 HNAN       -1.6270    1.1220   -1.8170 hn        1 PNY      0.313500
     38 HAQ        -3.8460    1.4990   -0.8010 h1        1 PNY      0.091700
     39 HOAR       -3.6640    0.9260    1.9520 ho        1 PNY      0.423000
     40 NAN        -1.2040    1.1840   -0.9200 n         1 PNY     -0.550900
@<TRIPOS>BOND
     1    1    5 1   
     2    1    6 1   
     3    1   18 1   
     4    1   19 1   
     5    2    6 1   
     6    2   20 1   
     7    2   21 1   
     8    2   22 1   
     9    3   14 2   
    10    4   15 2   
    11    5   23 1   
    12    6    9 1   
    13    6   16 1   
    14    7    8 1   
    15    7   24 1   
    16    8   10 1   
    17    8   25 1   
    18    8   26 1   
    19    9   27 1   
    20    9   28 1   
    21    9   29 1   
    22   10   13 1   
    23   10   30 1   
    24   10   31 1   
    25   11   12 1   
    26   11   32 1   
    27   11   33 1   
    28   11   40 1   
    29   12   14 1   
    30   12   34 1   
    31   12   35 1   
    32   13   14 1   
    33   13   36 1   
    34   15   16 1   
    35   15   40 1   
    36   16   17 1   
    37   16   38 1   
    38   17   39 1   
    39   37   40 1   
@<TRIPOS>SUBSTRUCTURE
     1 PNY         1 TEMP              0 ****  ****    0 ROOT
