@<TRIPOS>MOLECULE
PNY
   40    38     1     0     0
SMALL
bcc


@<TRIPOS>ATOM
      1 CAA        -1.9530    1.0550   -0.4730 c3        1 PNY      0.154600
      2 CAB         0.7480   -2.1110    3.8770 c3        1 PNY     -0.120800
      3 OAC        -1.7910   -7.3860    1.4060 o         1 PNY     -0.605100
      4 OAD        -3.2460   -1.8810    0.3180 o         1 PNY     -0.618100
      5 OAE        -1.2160    1.5710   -1.5620 oh        1 PNY     -0.588800
      6 CAF        -1.0970    0.4310    0.5840 c2        1 PNY     -0.198400
      7 SAG        -5.3790   -9.9520   -0.8500 sh        1 PNY     -0.358900
      8 CAH        -4.9860   -8.4510   -0.0150 c3        1 PNY     -0.033300
      9 CAI         0.2240    0.6120    0.6520 c2        1 PNY     -0.183000
     10 CAJ        -3.7260   -7.8080   -0.5870 c3        1 PNY      0.086000
     11 CAK        -1.5650   -4.1150    0.6120 c3        1 PNY      0.092000
     12 CAL        -2.2700   -5.0340    1.6140 c3        1 PNY     -0.186400
     13 NAM        -3.3850   -6.5380   -0.0110 n         1 PNY     -0.567900
     14 CAO        -2.4630   -6.4130    1.0110 c         1 PNY      0.656100
     15 CAP        -2.1860   -1.7620    0.9670 c         1 PNY      0.624100
     16 CAQ        -1.8330   -0.3990    1.5970 c3        1 PNY      0.122300
     17 OAR        -3.0230    0.2150    2.0430 oh        1 PNY     -0.576800
     18 HAA        -2.7100    0.3030   -0.8350 h1        1 PNY      0.067700
     19 HAAA       -2.4890    1.9490   -0.0460 h1        1 PNY      0.067700
     20 HAB         0.9860   -1.3900    3.0630 hc        1 PNY      0.031200
     21 HABA        0.9680   -3.1460    3.5360 hc        1 PNY      0.031200
     22 HABB       -0.3280   -2.0270    4.1470 hc        1 PNY      0.031200
     23 HOAE       -0.7650    0.8280   -1.9810 ho        1 PNY      0.400000
     24 HSAG       -4.3580  -10.6970   -0.4620 hs        1 PNY      0.204800
     25 HAH        -5.8770   -7.7930   -0.1710 h1        1 PNY      0.079700
     26 HAHA       -4.8710   -8.6240    1.0820 h1        1 PNY      0.079700
     27 HAI         1.3700   -1.8770    4.7680 hc        1 PNY      0.031200
     28 HAIA        0.7600    1.2290   -0.0830 ha        1 PNY      0.124500
     29 HAIB        0.8460    0.1680    1.4420 ha        1 PNY      0.124500
     30 HAJ        -3.8710   -7.6570   -1.6970 h1        1 PNY      0.071700
     31 HAJA       -2.8560   -8.5120   -0.4360 h1        1 PNY      0.071700
     32 HAK        -3.2590   -4.5990    1.9120 hc        1 PNY      0.076700
     33 HAKA       -2.2040   -4.0160   -0.3120 h1        1 PNY      0.071200
     34 HAL        -0.5830   -4.5870    0.3180 h1        1 PNY      0.071200
     35 HALA       -1.6510   -5.1550    2.5410 hc        1 PNY      0.076700
     36 HNAM       -3.9860   -5.7730   -0.2050 hn        1 PNY      0.313500
     37 HNAN       -0.5490   -2.7020    1.7690 hn        1 PNY      0.317500
     38 HAQ        -1.2200   -0.5250    2.5370 h1        1 PNY      0.091700
     39 HOAR       -3.6600    0.1980    1.3130 ho        1 PNY      0.425000
     40 NAN        -1.2890   -2.7970    1.1110 n         1 PNY     -0.556900
@<TRIPOS>BOND
     1    1    5 1   
     2    1    6 1   
     3    1   18 1   
     4    1   19 1   
     5    2   20 1   
     6    2   21 1   
     7    2   22 1   
     8    2   27 1   
     9    3   14 2   
    10    4   15 2   
    11    5   23 1   
    12    6    9 2   
    13    6   16 1   
    14    7    8 1   
    15    7   24 1   
    16    8   10 1   
    17    8   25 1   
    18    8   26 1   
    19    9   28 1   
    20    9   29 1   
    21   10   13 1   
    22   10   30 1   
    23   10   31 1   
    24   11   12 1   
    25   11   33 1   
    26   11   34 1   
    27   11   40 1   
    28   12   14 1   
    29   12   32 1   
    30   12   35 1   
    31   13   14 1   
    32   13   36 1   
    33   15   16 1   
    34   15   40 1   
    35   16   17 1   
    36   16   38 1   
    37   17   39 1   
    38   37   40 1   
@<TRIPOS>SUBSTRUCTURE
     1 PNY         1 TEMP              0 ****  ****    0 ROOT
