@<TRIPOS>MOLECULE
PNZ
   19    19     1     0     0
SMALL
bcc


@<TRIPOS>ATOM
      1 C6         -1.0520   -0.0170    0.0560 ca        1 PNZ     -0.178200
      2 C7         -0.4300   -1.2380    0.3610 ca        1 PNZ     -0.070000
      3 C8          0.9580   -1.2870    0.4540 ca        1 PNZ     -0.130500
      4 C9          1.7270   -0.1350    0.2490 ca        1 PNZ     -0.046300
      5 C4          1.0950    1.0770   -0.0520 ca        1 PNZ     -0.130500
      6 C5         -0.2920    1.1450   -0.1530 ca        1 PNZ     -0.070000
      7 N2          3.9410    0.5200   -0.6200 n3        1 PNZ     -0.918800
      8 C3          3.2200   -0.2080    0.3970 c3        1 PNZ      0.197100
      9 N10        -2.5330    0.0450   -0.0490 no        1 PNZ      0.313200
     10 O11        -3.0560    1.0960   -0.3100 o         1 PNZ     -0.210000
     11 O12        -3.1730   -0.9570    0.1310 o         1 PNZ     -0.210000
     12 H7         -1.0350   -2.1470    0.5240 ha        1 PNZ      0.170500
     13 H8          1.4480   -2.2440    0.6910 ha        1 PNZ      0.156000
     14 H4          1.6960    1.9860   -0.2110 ha        1 PNZ      0.156000
     15 H5         -0.7890    2.1010   -0.3920 ha        1 PNZ      0.170500
     16 H2N1        4.9270    0.3990   -0.4990 hn        1 PNZ      0.358300
     17 H2N2        3.6770    0.2230   -1.5380 hn        1 PNZ      0.358300
     18 H3C1        3.5220   -1.2980    0.4450 h1        1 PNZ      0.041700
     19 H3C2        3.4880    0.2520    1.3950 h1        1 PNZ      0.041700
@<TRIPOS>BOND
     1    1    2 ar  
     2    1    6 ar  
     3    1    9 1   
     4    2    3 ar  
     5    2   12 1   
     6    3    4 ar  
     7    3   13 1   
     8    4    5 ar  
     9    4    8 1   
    10    5    6 ar  
    11    5   14 1   
    12    6   15 1   
    13    7    8 1   
    14    7   16 1   
    15    7   17 1   
    16    8   18 1   
    17    8   19 1   
    18    9   10 1   
    19    9   11 1   
@<TRIPOS>SUBSTRUCTURE
     1 PNZ         1 TEMP              0 ****  ****    0 ROOT
