@<TRIPOS>MOLECULE
PO0
   27    27     1     0     0
SMALL
bcc


@<TRIPOS>ATOM
      1 N          -0.0300   -0.1340   -0.0770 n4        1 PO0     -0.842600
      2 CA          1.4700   -0.0240    0.0210 c3        1 PO0      0.124500
      3 C           1.9300    0.0250    1.4780 c3        1 PO0     -0.113400
      4 CB          1.9700    1.2090   -0.7450 c3        1 PO0     -0.057100
      5 CG          1.4610    1.2310   -2.1420 ca        1 PO0     -0.159300
      6 CD1         0.2990    1.9500   -2.4550 ca        1 PO0     -0.136500
      7 CD2         2.1560    0.5660   -3.1580 ca        1 PO0     -0.136500
      8 CE1        -0.1640    1.9950   -3.7690 ca        1 PO0     -0.112000
      9 CE2         1.6900    0.6120   -4.4720 ca        1 PO0     -0.112000
     10 CZ          0.5300    1.3240   -4.7780 ca        1 PO0     -0.099000
     11 CM          1.5310   -1.1990    2.2590 c3        1 PO0     -0.122100
     12 H          -0.3360   -1.0320    0.3070 hn        1 PO0      0.459800
     13 HN2        -0.4690    0.6240    0.4520 hn        1 PO0      0.459800
     14 HA          1.8790   -0.9570   -0.4740 hx        1 PO0      0.110700
     15 HC1         3.0520    0.1080    1.4570 hc        1 PO0      0.088200
     16 HC2         1.5430    0.9520    1.9790 hc        1 PO0      0.088200
     17 HB1         3.0950    1.1640   -0.7420 hc        1 PO0      0.092700
     18 HB2         1.6750    2.1460   -0.2010 hc        1 PO0      0.092700
     19 HD1        -0.2240    2.5220   -1.6740 ha        1 PO0      0.135500
     20 HD2         3.0840    0.0210   -2.9260 ha        1 PO0      0.135500
     21 HE1        -1.0680    2.5740   -4.0140 ha        1 PO0      0.157000
     22 HE2         2.2470    0.0950   -5.2690 ha        1 PO0      0.157000
     23 HZ          0.1680    1.3680   -5.8180 ha        1 PO0      0.160000
     24 HM1         1.8050   -2.1350    1.7130 hc        1 PO0      0.057033
     25 HM2         2.0670   -1.2070    3.2420 hc        1 PO0      0.057033
     26 HM3         0.4360   -1.2140    2.4760 hc        1 PO0      0.057033
     27 HN3        -0.3090   -0.0560   -1.0650 hn        1 PO0      0.459800
@<TRIPOS>BOND
     1    1    2 1   
     2    1   12 1   
     3    1   13 1   
     4    1   27 1   
     5    2    3 1   
     6    2    4 1   
     7    2   14 1   
     8    3   11 1   
     9    3   15 1   
    10    3   16 1   
    11    4    5 1   
    12    4   17 1   
    13    4   18 1   
    14    5    6 ar  
    15    5    7 ar  
    16    6    8 ar  
    17    6   19 1   
    18    7    9 ar  
    19    7   20 1   
    20    8   10 ar  
    21    8   21 1   
    22    9   10 ar  
    23    9   22 1   
    24   10   23 1   
    25   11   24 1   
    26   11   25 1   
    27   11   26 1   
@<TRIPOS>SUBSTRUCTURE
     1 PO0         1 TEMP              0 ****  ****    0 ROOT
