@<TRIPOS>MOLECULE
PO0
   26    26     1     0     0
SMALL
bcc


@<TRIPOS>ATOM
      1 N          -1.3040   -0.6930    1.5470 n3        1 PO0     -0.900800
      2 CA          0.0280   -0.1350    1.6680 c3        1 PO0      0.167500
      3 C           0.3040    0.4350    3.0680 c3        1 PO0     -0.073400
      4 CB          0.3650    0.9660    0.6370 c3        1 PO0     -0.081100
      5 CG          0.2170    0.4830   -0.7610 ca        1 PO0     -0.082300
      6 CD1        -1.0000    0.6300   -1.4380 ca        1 PO0     -0.131500
      7 CD2         1.2960   -0.1210   -1.4190 ca        1 PO0     -0.131500
      8 CE1        -1.1360    0.1800   -2.7500 ca        1 PO0     -0.125500
      9 CE2         1.1580   -0.5720   -2.7310 ca        1 PO0     -0.125500
     10 CZ         -0.0580   -0.4220   -3.3980 ca        1 PO0     -0.131000
     11 CM          0.2400   -0.6230    4.1380 c3        1 PO0     -0.087100
     12 H          -1.9950   -0.0180    1.8090 hn        1 PO0      0.347800
     13 HN2        -1.4710   -0.9760    0.6000 hn        1 PO0      0.347800
     14 HA          0.7460   -0.9930    1.4920 h1        1 PO0      0.062700
     15 HC1        -0.4270    1.2540    3.2960 hc        1 PO0      0.037200
     16 HC2         1.3280    0.8950    3.0580 hc        1 PO0      0.037200
     17 HB1        -0.3000    1.8530    0.8090 hc        1 PO0      0.051700
     18 HB2         1.4220    1.3000    0.8100 hc        1 PO0      0.051700
     19 HD1        -1.8510    1.1110   -0.9320 ha        1 PO0      0.130000
     20 HD2         2.2560   -0.2410   -0.8950 ha        1 PO0      0.130000
     21 HE1        -2.0950    0.3010   -3.2740 ha        1 PO0      0.131500
     22 HE2         2.0100   -1.0450   -3.2400 ha        1 PO0      0.131500
     23 HZ         -0.1650   -0.7770   -4.4340 ha        1 PO0      0.132000
     24 HM1         0.5240   -0.1850    5.1260 hc        1 PO0      0.036700
     25 HM2        -0.7890   -1.0460    4.2210 hc        1 PO0      0.036700
     26 HM3         0.9430   -1.4590    3.9060 hc        1 PO0      0.036700
@<TRIPOS>BOND
     1    1    2 1   
     2    1   12 1   
     3    1   13 1   
     4    2    3 1   
     5    2    4 1   
     6    2   14 1   
     7    3   11 1   
     8    3   15 1   
     9    3   16 1   
    10    4    5 1   
    11    4   17 1   
    12    4   18 1   
    13    5    6 ar  
    14    5    7 ar  
    15    6    8 ar  
    16    6   19 1   
    17    7    9 ar  
    18    7   20 1   
    19    8   10 ar  
    20    8   21 1   
    21    9   10 ar  
    22    9   22 1   
    23   10   23 1   
    24   11   24 1   
    25   11   25 1   
    26   11   26 1   
@<TRIPOS>SUBSTRUCTURE
     1 PO0         1 TEMP              0 ****  ****    0 ROOT
