@<TRIPOS>MOLECULE
PO0
   27    27     1     0     0
SMALL
bcc


@<TRIPOS>ATOM
      1 N          -0.0280   -0.1370   -0.0740 n4        1 PO0     -0.842600
      2 CA          1.4720   -0.0210    0.0230 c3        1 PO0      0.124500
      3 C           1.9340    0.0330    1.4780 c3        1 PO0     -0.113400
      4 CB          1.9670    1.2100   -0.7480 c3        1 PO0     -0.057100
      5 CG          1.4560    1.2270   -2.1440 ca        1 PO0     -0.159300
      6 CD1         0.2900    1.9390   -2.4580 ca        1 PO0     -0.136500
      7 CD2         2.1540    0.5630   -3.1600 ca        1 PO0     -0.136500
      8 CE1        -0.1740    1.9790   -3.7710 ca        1 PO0     -0.112000
      9 CE2         1.6850    0.6040   -4.4730 ca        1 PO0     -0.112000
     10 CZ          0.5210    1.3080   -4.7800 ca        1 PO0     -0.099000
     11 CM          1.5400   -1.1890    2.2640 c3        1 PO0     -0.122100
     12 H          -0.3090   -0.0630   -1.0610 hn        1 PO0      0.459800
     13 HN2        -0.4680    0.6210    0.4530 hn        1 PO0      0.459800
     14 HA          1.8840   -0.9550   -0.4700 hx        1 PO0      0.110700
     15 HC1         1.5450    0.9610    1.9770 hc        1 PO0      0.088200
     16 HC2         3.0560    0.1200    1.4560 hc        1 PO0      0.088200
     17 HB1         3.0920    1.1700   -0.7460 hc        1 PO0      0.092700
     18 HB2         1.6690    2.1480   -0.2070 hc        1 PO0      0.092700
     19 HD1        -0.2350    2.5100   -1.6780 ha        1 PO0      0.135500
     20 HD2         3.0840    0.0220   -2.9270 ha        1 PO0      0.135500
     21 HE1        -1.0820    2.5530   -4.0160 ha        1 PO0      0.157000
     22 HE2         2.2440    0.0870   -5.2700 ha        1 PO0      0.157000
     23 HZ          0.1570    1.3480   -5.8190 ha        1 PO0      0.160000
     24 HM1         2.0780   -1.1920    3.2470 hc        1 PO0      0.057033
     25 HM2         1.8150   -2.1260    1.7210 hc        1 PO0      0.057033
     26 HM3         0.4450   -1.2070    2.4830 hc        1 PO0      0.057033
     27 HN3        -0.3300   -1.0340    0.3140 hn        1 PO0      0.459800
@<TRIPOS>BOND
     1    1    2 1   
     2    1   12 1   
     3    1   13 1   
     4    1   27 1   
     5    2    3 1   
     6    2    4 1   
     7    2   14 1   
     8    3   11 1   
     9    3   15 1   
    10    3   16 1   
    11    4    5 1   
    12    4   17 1   
    13    4   18 1   
    14    5    6 ar  
    15    5    7 ar  
    16    6    8 ar  
    17    6   19 1   
    18    7    9 ar  
    19    7   20 1   
    20    8   10 ar  
    21    8   21 1   
    22    9   10 ar  
    23    9   22 1   
    24   10   23 1   
    25   11   24 1   
    26   11   25 1   
    27   11   26 1   
@<TRIPOS>SUBSTRUCTURE
     1 PO0         1 TEMP              0 ****  ****    0 ROOT
