@<TRIPOS>MOLECULE
PO0
   27    27     1     0     0
SMALL
bcc


@<TRIPOS>ATOM
      1 N          -0.0250   -0.1440   -0.0770 nz        1 PO0     -0.842600
      2 CA          1.4740   -0.0230    0.0210 c3        1 PO0      0.124500
      3 C           1.9350    0.0280    1.4770 c3        1 PO0     -0.113400
      4 CB          1.9650    1.2140   -0.7450 c3        1 PO0     -0.057100
      5 CG          1.4550    1.2340   -2.1420 ca        1 PO0     -0.159300
      6 CD1         0.2870    1.9440   -2.4540 ca        1 PO0     -0.136500
      7 CD2         2.1540    0.5750   -3.1590 ca        1 PO0     -0.136500
      8 CE1        -0.1770    1.9870   -3.7670 ca        1 PO0     -0.112000
      9 CE2         1.6860    0.6190   -4.4720 ca        1 PO0     -0.112000
     10 CZ          0.5200    1.3220   -4.7770 ca        1 PO0     -0.099000
     11 CM          1.5460   -1.1990    2.2570 c3        1 PO0     -0.122100
     12 H          -0.3060   -0.0670   -1.0640 hn        1 PO0      0.459800
     13 HN2        -0.4690    0.6110    0.4530 hn        1 PO0      0.459800
     14 HA          1.8900   -0.9520   -0.4760 hx        1 PO0      0.110700
     15 HC1         1.5420    0.9520    1.9790 hc        1 PO0      0.088200
     16 HC2         3.0570    0.1200    1.4560 hc        1 PO0      0.088200
     17 HB1         1.6630    2.1490   -0.2000 hc        1 PO0      0.092700
     18 HB2         3.0900    1.1780   -0.7430 hc        1 PO0      0.092700
     19 HD1        -0.2400    2.5110   -1.6720 ha        1 PO0      0.135500
     20 HD2         3.0860    0.0360   -2.9280 ha        1 PO0      0.135500
     21 HE1        -1.0860    2.5600   -4.0100 ha        1 PO0      0.157000
     22 HE2         2.2460    0.1070   -5.2710 ha        1 PO0      0.157000
     23 HZ          0.1570    1.3640   -5.8170 ha        1 PO0      0.160000
     24 HM1         1.8250   -2.1330    1.7100 hc        1 PO0      0.057033
     25 HM2         2.0830   -1.2040    3.2400 hc        1 PO0      0.057033
     26 HM3         0.4510   -1.2220    2.4750 hc        1 PO0      0.057033
     27 HN3        -0.3240   -1.0440    0.3070 hn        1 PO0      0.459800
@<TRIPOS>BOND
     1    1    2 1   
     2    1   12 1   
     3    1   13 1   
     4    1   27 1   
     5    2    3 1   
     6    2    4 1   
     7    2   14 1   
     8    3   11 1   
     9    3   15 1   
    10    3   16 1   
    11    4    5 1   
    12    4   17 1   
    13    4   18 1   
    14    5    6 ar  
    15    5    7 ar  
    16    6    8 ar  
    17    6   19 1   
    18    7    9 ar  
    19    7   20 1   
    20    8   10 ar  
    21    8   21 1   
    22    9   10 ar  
    23    9   22 1   
    24   10   23 1   
    25   11   24 1   
    26   11   25 1   
    27   11   26 1   
@<TRIPOS>SUBSTRUCTURE
     1 PO0         1 TEMP              0 ****  ****    0 ROOT
