@<TRIPOS>MOLECULE
PO1
   60    63     1     0     0
SMALL
bcc


@<TRIPOS>ATOM
      1 C1         -0.1580    0.4350    0.0320 ca        1 PO1      0.052100
      2 C2          1.2510    0.3590   -0.0320 ca        1 PO1      0.126100
      3 O2         -0.6980    2.8320   -1.5650 o         1 PO1     -0.545300
      4 S1         -1.1940    1.6740   -2.0900 s6        1 PO1      1.568400
      5 O1         -2.4000    1.4840   -2.6980 o         1 PO1     -0.545300
      6 N1          0.0230    1.2220   -3.4150 n4        1 PO1     -0.803500
      7 O3         -0.9070    0.3680   -1.1210 os        1 PO1     -0.416800
      8 C3          1.9840    0.2740    1.1540 ca        1 PO1     -0.175000
      9 C4          1.3350    0.2610    2.3960 ca        1 PO1      0.003700
     10 C5         -0.0720    0.3410    2.4490 ca        1 PO1     -0.069300
     11 C6         -0.8140    0.4340    1.2670 ca        1 PO1     -0.076000
     12 O4          1.7970    0.4100   -1.3000 os        1 PO1     -0.403900
     13 C7          3.1920    0.1050   -1.4020 c3        1 PO1      0.118700
     14 C8          2.1290    0.0800    3.6560 c3        1 PO1     -0.028400
     15 C9          1.3480    0.6080    4.8730 c3        1 PO1     -0.048700
     16 C10        -0.0110   -0.0650    4.9270 c3        1 PO1     -0.079400
     17 C11        -0.8380    0.3420    3.7280 c3        1 PO1     -0.043100
     18 C12         3.5290    0.6840    3.5930 c3        1 PO1     -0.072400
     19 C13         4.3120    0.5530    4.8930 c3        1 PO1     -0.068400
     20 C14         3.5140    1.0900    6.0680 c3        1 PO1     -0.045000
     21 C15         2.1710    0.3150    6.1070 c3        1 PO1     -0.065700
     22 C16         3.3520    2.5960    5.9640 c3        1 PO1     -0.080100
     23 C17         4.0610    0.7300    7.4740 c3        1 PO1      0.189100
     24 C18         2.8260    0.6920    8.3980 c3        1 PO1     -0.137400
     25 C19         1.5990    0.6170    7.4850 c3        1 PO1     -0.066400
     26 O5          4.9910    1.7390    7.9070 os        1 PO1     -0.583500
     27 S2          5.7550    1.6740    9.3280 s6        1 PO1      1.636400
     28 O6          6.2930    0.4390    9.5140 o         1 PO1     -0.557800
     29 O7          5.1390    2.4780   10.2340 o         1 PO1     -0.557800
     30 N2          7.2180    2.7050    8.7980 n4        1 PO1     -0.801500
     31 HN11       -0.4390    0.9840   -4.2940 hn        1 PO1      0.476467
     32 HN12        0.5800    0.4080   -3.1270 hn        1 PO1      0.476467
     33 H3          3.0810    0.2060    1.1030 ha        1 PO1      0.159000
     34 H6         -1.9150    0.4760    1.3030 ha        1 PO1      0.170000
     35 H71         3.3720    0.0790   -2.5070 h1        1 PO1      0.064367
     36 H72         3.4090   -0.8890   -0.9420 h1        1 PO1      0.064367
     37 H73         3.7940    0.9130   -0.9200 h1        1 PO1      0.064367
     38 H8          2.2480   -1.0390    3.7870 hc        1 PO1      0.078700
     39 H9          1.1930    1.7170    4.7670 hc        1 PO1      0.069700
     40 H101        0.1140   -1.1800    4.9500 hc        1 PO1      0.062200
     41 H102       -0.5460    0.2320    5.8670 hc        1 PO1      0.062200
     42 H111       -1.7200   -0.3480    3.6370 hc        1 PO1      0.072200
     43 H112       -1.2450    1.3790    3.8890 hc        1 PO1      0.072200
     44 H121        3.4540    1.7650    3.3040 hc        1 PO1      0.051700
     45 H122        4.1240    0.1610    2.7970 hc        1 PO1      0.051700
     46 H131        5.2760    1.1170    4.7930 hc        1 PO1      0.050700
     47 H132        4.5650   -0.5260    5.0690 hc        1 PO1      0.050700
     48 H15         2.4140   -0.7890    6.0890 hc        1 PO1      0.060700
     49 H161        2.8710    2.8860    5.0000 hc        1 PO1      0.046700
     50 H162        4.3540    3.0870    6.0130 hc        1 PO1      0.046700
     51 H163        2.7260    2.9800    6.8060 hc        1 PO1      0.046700
     52 H17         4.6170   -0.2470    7.4560 h1        1 PO1      0.081700
     53 H181        2.7800    1.6110    9.0360 hc        1 PO1      0.072700
     54 H182        2.8730   -0.2040    9.0660 hc        1 PO1      0.072700
     55 H191        1.0400    1.5860    7.4880 hc        1 PO1      0.072200
     56 H192        0.8960   -0.1850    7.8200 hc        1 PO1      0.072200
     57 HN21        7.1250    3.0160    7.8290 hn        1 PO1      0.476133
     58 HN22        8.0920    2.1800    8.8680 hn        1 PO1      0.476133
     59 H13         0.6810    1.9800   -3.5990 hn        1 PO1      0.476467
     60 H23         7.3110    3.5430    9.3770 hn        1 PO1      0.476133
@<TRIPOS>BOND
     1    1    2 ar  
     2    1    7 1   
     3    1   11 ar  
     4    2    8 ar  
     5    2   12 1   
     6    3    4 2   
     7    4    5 2   
     8    4    6 1   
     9    4    7 1   
    10    6   31 1   
    11    6   32 1   
    12    6   59 1   
    13    8    9 ar  
    14    8   33 1   
    15    9   10 ar  
    16    9   14 1   
    17   10   11 ar  
    18   10   17 1   
    19   11   34 1   
    20   12   13 1   
    21   13   35 1   
    22   13   36 1   
    23   13   37 1   
    24   14   15 1   
    25   14   18 1   
    26   14   38 1   
    27   15   16 1   
    28   15   21 1   
    29   15   39 1   
    30   16   17 1   
    31   16   40 1   
    32   16   41 1   
    33   17   42 1   
    34   17   43 1   
    35   18   19 1   
    36   18   44 1   
    37   18   45 1   
    38   19   20 1   
    39   19   46 1   
    40   19   47 1   
    41   20   21 1   
    42   20   22 1   
    43   20   23 1   
    44   21   25 1   
    45   21   48 1   
    46   22   49 1   
    47   22   50 1   
    48   22   51 1   
    49   23   24 1   
    50   23   26 1   
    51   23   52 1   
    52   24   25 1   
    53   24   53 1   
    54   24   54 1   
    55   25   55 1   
    56   25   56 1   
    57   26   27 1   
    58   27   28 2   
    59   27   29 2   
    60   27   30 1   
    61   30   57 1   
    62   30   58 1   
    63   30   60 1   
@<TRIPOS>SUBSTRUCTURE
     1 PO1         1 TEMP              0 ****  ****    0 ROOT
