@<TRIPOS>MOLECULE
PO1
   60    63     1     0     0
SMALL
bcc


@<TRIPOS>ATOM
      1 C1         -0.1420    0.4470    0.0200 ca        1 PO1      0.052100
      2 C2          1.2660    0.3540   -0.0350 ca        1 PO1      0.126100
      3 O2         -0.6450    2.8430   -1.5900 o         1 PO1     -0.545300
      4 S1         -1.1520    1.6890   -2.1130 s6        1 PO1      1.568400
      5 O1         -2.3570    1.5110   -2.7270 o         1 PO1     -0.545300
      6 N1          0.0670    1.2160   -3.4290 nz        1 PO1     -0.803500
      7 O3         -0.8860    0.3840   -1.1370 os        1 PO1     -0.416800
      8 C3          1.9910    0.2660    1.1550 ca        1 PO1     -0.175000
      9 C4          1.3350    0.2660    2.3940 ca        1 PO1      0.003700
     10 C5         -0.0710    0.3630    2.4380 ca        1 PO1     -0.069300
     11 C6         -0.8050    0.4600    1.2510 ca        1 PO1     -0.076000
     12 O4          1.8190    0.3930   -1.3010 os        1 PO1     -0.403900
     13 C7          3.2110    0.0690   -1.3930 c3        1 PO1      0.118700
     14 C8          2.1200    0.0810    3.6590 c3        1 PO1     -0.028400
     15 C9          1.3380    0.6240    4.8690 c3        1 PO1     -0.048700
     16 C10        -0.0290   -0.0320    4.9180 c3        1 PO1     -0.079400
     17 C11        -0.8440    0.3800    3.7130 c3        1 PO1     -0.043100
     18 C12         3.5270    0.6680    3.6000 c3        1 PO1     -0.072400
     19 C13         4.3020    0.5340    4.9050 c3        1 PO1     -0.068400
     20 C14         3.5040    1.0850    6.0740 c3        1 PO1     -0.045000
     21 C15         2.1510    0.3270    6.1090 c3        1 PO1     -0.065700
     22 C16         3.3600    2.5930    5.9620 c3        1 PO1     -0.080100
     23 C17         4.0380    0.7250    7.4840 c3        1 PO1      0.189100
     24 C18         2.7980    0.7070    8.4020 c3        1 PO1     -0.137400
     25 C19         1.5750    0.6420    7.4820 c3        1 PO1     -0.066400
     26 O5          4.9780    1.7250    7.9180 os        1 PO1     -0.583500
     27 S2          5.7330    1.6580    9.3430 s6        1 PO1      1.636400
     28 O6          6.2570    0.4180    9.5370 o         1 PO1     -0.557800
     29 O7          5.1220    2.4720   10.2430 o         1 PO1     -0.557800
     30 N2          7.2110    2.6700    8.8170 nz        1 PO1     -0.801500
     31 HN11        0.6120    0.3970   -3.1340 hn        1 PO1      0.476467
     32 HN12       -0.3930    0.9800   -4.3100 hn        1 PO1      0.476467
     33 H3          3.0870    0.1840    1.1100 ha        1 PO1      0.159000
     34 H6         -1.9060    0.5160    1.2810 ha        1 PO1      0.170000
     35 H71         3.4130   -0.9250   -0.9270 h1        1 PO1      0.064367
     36 H72         3.8200    0.8720   -0.9120 h1        1 PO1      0.064367
     37 H73         3.3960    0.0360   -2.4970 h1        1 PO1      0.064367
     38 H8          2.2250   -1.0390    3.7960 hc        1 PO1      0.078700
     39 H9          1.1980    1.7350    4.7570 hc        1 PO1      0.069700
     40 H101        0.0830   -1.1480    4.9480 hc        1 PO1      0.062200
     41 H102       -0.5650    0.2760    5.8540 hc        1 PO1      0.062200
     42 H111       -1.2390    1.4230    3.8670 hc        1 PO1      0.072200
     43 H112       -1.7340   -0.3000    3.6200 hc        1 PO1      0.072200
     44 H121        3.4670    1.7480    3.3060 hc        1 PO1      0.051700
     45 H122        4.1200    0.1350    2.8100 hc        1 PO1      0.051700
     46 H131        4.5400   -0.5470    5.0880 hc        1 PO1      0.050700
     47 H132        5.2720    1.0860    4.8080 hc        1 PO1      0.050700
     48 H15         2.3810   -0.7800    6.0970 hc        1 PO1      0.060700
     49 H161        2.7350    2.9880    6.7980 hc        1 PO1      0.046700
     50 H162        4.3680    3.0720    6.0140 hc        1 PO1      0.046700
     51 H163        2.8880    2.8840    4.9940 hc        1 PO1      0.046700
     52 H17         4.5830   -0.2580    7.4740 h1        1 PO1      0.081700
     53 H181        2.8300   -0.1870    9.0740 hc        1 PO1      0.072700
     54 H182        2.7590    1.6290    9.0350 hc        1 PO1      0.072700
     55 H191        0.8610   -0.1500    7.8170 hc        1 PO1      0.072200
     56 H192        1.0280    1.6180    7.4780 hc        1 PO1      0.072200
     57 HN21        7.1270    2.9780    7.8460 hn        1 PO1      0.476133
     58 HN22        8.0790    2.1350    8.8940 hn        1 PO1      0.476133
     59 H13         0.7360    1.9660   -3.6120 hn        1 PO1      0.476467
     60 H23         7.3100    3.5090    9.3930 hn        1 PO1      0.476133
@<TRIPOS>BOND
     1    1    2 ar  
     2    1    7 1   
     3    1   11 ar  
     4    2    8 ar  
     5    2   12 1   
     6    3    4 2   
     7    4    5 2   
     8    4    6 1   
     9    4    7 1   
    10    6   31 1   
    11    6   32 1   
    12    6   59 1   
    13    8    9 ar  
    14    8   33 1   
    15    9   10 ar  
    16    9   14 1   
    17   10   11 ar  
    18   10   17 1   
    19   11   34 1   
    20   12   13 1   
    21   13   35 1   
    22   13   36 1   
    23   13   37 1   
    24   14   15 1   
    25   14   18 1   
    26   14   38 1   
    27   15   16 1   
    28   15   21 1   
    29   15   39 1   
    30   16   17 1   
    31   16   40 1   
    32   16   41 1   
    33   17   42 1   
    34   17   43 1   
    35   18   19 1   
    36   18   44 1   
    37   18   45 1   
    38   19   20 1   
    39   19   46 1   
    40   19   47 1   
    41   20   21 1   
    42   20   22 1   
    43   20   23 1   
    44   21   25 1   
    45   21   48 1   
    46   22   49 1   
    47   22   50 1   
    48   22   51 1   
    49   23   24 1   
    50   23   26 1   
    51   23   52 1   
    52   24   25 1   
    53   24   53 1   
    54   24   54 1   
    55   25   55 1   
    56   25   56 1   
    57   26   27 1   
    58   27   28 2   
    59   27   29 2   
    60   27   30 1   
    61   30   57 1   
    62   30   58 1   
    63   30   60 1   
@<TRIPOS>SUBSTRUCTURE
     1 PO1         1 TEMP              0 ****  ****    0 ROOT
