@<TRIPOS>MOLECULE
PO1
   60    63     1     0     0
SMALL
bcc


@<TRIPOS>ATOM
      1 C1         -0.1570    0.4330    0.0310 ca        1 PO1      0.052100
      2 C2          1.2520    0.3660   -0.0330 ca        1 PO1      0.126100
      3 O2         -0.7130    2.8320   -1.5560 o         1 PO1     -0.545300
      4 S1         -1.2020    1.6730   -2.0860 s6        1 PO1      1.568400
      5 O1         -2.4070    1.4780   -2.6940 o         1 PO1     -0.545300
      6 N1          0.0180    1.2330   -3.4120 n4        1 PO1     -0.803500
      7 O3         -0.9060    0.3650   -1.1210 os        1 PO1     -0.416800
      8 C3          1.9860    0.2810    1.1520 ca        1 PO1     -0.175000
      9 C4          1.3380    0.2600    2.3950 ca        1 PO1      0.003700
     10 C5         -0.0700    0.3320    2.4480 ca        1 PO1     -0.069300
     11 C6         -0.8120    0.4250    1.2660 ca        1 PO1     -0.076000
     12 O4          1.7970    0.4230   -1.3020 os        1 PO1     -0.403900
     13 C7          3.1940    0.1250   -1.4050 c3        1 PO1      0.118700
     14 C8          2.1330    0.0800    3.6530 c3        1 PO1     -0.028400
     15 C9          1.3500    0.6000    4.8720 c3        1 PO1     -0.048700
     16 C10        -0.0050   -0.0810    4.9250 c3        1 PO1     -0.079400
     17 C11        -0.8350    0.3250    3.7270 c3        1 PO1     -0.043100
     18 C12         3.5300    0.6910    3.5910 c3        1 PO1     -0.072400
     19 C13         4.3140    0.5610    4.8910 c3        1 PO1     -0.068400
     20 C14         3.5140    1.0900    6.0680 c3        1 PO1     -0.045000
     21 C15         2.1760    0.3080    6.1050 c3        1 PO1     -0.065700
     22 C16         3.3440    2.5950    5.9680 c3        1 PO1     -0.080100
     23 C17         4.0630    0.7290    7.4720 c3        1 PO1      0.189100
     24 C18         2.8300    0.6820    8.3970 c3        1 PO1     -0.137400
     25 C19         1.6020    0.6030    7.4840 c3        1 PO1     -0.066400
     26 O5          4.9890    1.7410    7.9070 os        1 PO1     -0.583500
     27 S2          5.7520    1.6780    9.3290 s6        1 PO1      1.636400
     28 O6          6.2910    0.4440    9.5160 o         1 PO1     -0.557800
     29 O7          5.1340    2.4810   10.2340 o         1 PO1     -0.557800
     30 N2          7.2140    2.7100    8.8000 n4        1 PO1     -0.801500
     31 HN11        0.5790    0.4220   -3.1270 hn        1 PO1      0.476467
     32 HN12       -0.4430    0.9960   -4.2920 hn        1 PO1      0.476467
     33 H3          3.0830    0.2190    1.1000 ha        1 PO1      0.159000
     34 H6         -1.9130    0.4600    1.3030 ha        1 PO1      0.170000
     35 H71         3.7920    0.9350   -0.9210 h1        1 PO1      0.064367
     36 H72         3.4160   -0.8690   -0.9480 h1        1 PO1      0.064367
     37 H73         3.3730    0.1040   -2.5100 h1        1 PO1      0.064367
     38 H8          2.2590   -1.0400    3.7810 hc        1 PO1      0.078700
     39 H9          1.1890    1.7080    4.7700 hc        1 PO1      0.069700
     40 H101        0.1260   -1.1950    4.9450 hc        1 PO1      0.062200
     41 H102       -0.5410    0.2110    5.8660 hc        1 PO1      0.062200
     42 H111       -1.2480    1.3600    3.8920 hc        1 PO1      0.072200
     43 H112       -1.7140   -0.3700    3.6350 hc        1 PO1      0.072200
     44 H121        3.4490    1.7730    3.3060 hc        1 PO1      0.051700
     45 H122        4.1270    0.1740    2.7930 hc        1 PO1      0.051700
     46 H131        4.5730   -0.5170    5.0630 hc        1 PO1      0.050700
     47 H132        5.2750    1.1310    4.7920 hc        1 PO1      0.050700
     48 H15         2.4250   -0.7950    6.0840 hc        1 PO1      0.060700
     49 H161        2.8610    2.8850    5.0050 hc        1 PO1      0.047033
     50 H162        2.7170    2.9730    6.8110 hc        1 PO1      0.047033
     51 H163        4.3440    3.0910    6.0180 hc        1 PO1      0.047033
     52 H17         4.6250   -0.2450    7.4520 h1        1 PO1      0.081700
     53 H181        2.8810   -0.2150    9.0630 hc        1 PO1      0.072700
     54 H182        2.7780    1.6000    9.0370 hc        1 PO1      0.072700
     55 H191        0.9040   -0.2040    7.8180 hc        1 PO1      0.072200
     56 H192        1.0380    1.5690    7.4900 hc        1 PO1      0.072200
     57 HN21        7.3060    3.5480    9.3790 hn        1 PO1      0.476133
     58 HN22        8.0890    2.1860    8.8710 hn        1 PO1      0.476133
     59 H13         0.6710    1.9960   -3.5930 hn        1 PO1      0.476467
     60 H23         7.1220    3.0200    7.8310 hn        1 PO1      0.476133
@<TRIPOS>BOND
     1    1    2 ar  
     2    1    7 1   
     3    1   11 ar  
     4    2    8 ar  
     5    2   12 1   
     6    3    4 2   
     7    4    5 2   
     8    4    6 1   
     9    4    7 1   
    10    6   31 1   
    11    6   32 1   
    12    6   59 1   
    13    8    9 ar  
    14    8   33 1   
    15    9   10 ar  
    16    9   14 1   
    17   10   11 ar  
    18   10   17 1   
    19   11   34 1   
    20   12   13 1   
    21   13   35 1   
    22   13   36 1   
    23   13   37 1   
    24   14   15 1   
    25   14   18 1   
    26   14   38 1   
    27   15   16 1   
    28   15   21 1   
    29   15   39 1   
    30   16   17 1   
    31   16   40 1   
    32   16   41 1   
    33   17   42 1   
    34   17   43 1   
    35   18   19 1   
    36   18   44 1   
    37   18   45 1   
    38   19   20 1   
    39   19   46 1   
    40   19   47 1   
    41   20   21 1   
    42   20   22 1   
    43   20   23 1   
    44   21   25 1   
    45   21   48 1   
    46   22   49 1   
    47   22   50 1   
    48   22   51 1   
    49   23   24 1   
    50   23   26 1   
    51   23   52 1   
    52   24   25 1   
    53   24   53 1   
    54   24   54 1   
    55   25   55 1   
    56   25   56 1   
    57   26   27 1   
    58   27   28 2   
    59   27   29 2   
    60   27   30 1   
    61   30   57 1   
    62   30   58 1   
    63   30   60 1   
@<TRIPOS>SUBSTRUCTURE
     1 PO1         1 TEMP              0 ****  ****    0 ROOT
