@<TRIPOS>MOLECULE
PO1
   58    61     1     0     0
SMALL
bcc


@<TRIPOS>ATOM
      1 C1          4.0370   -0.0120    0.5250 ca        1 PO1      0.141100
      2 C2          3.2830    1.1510    0.7810 ca        1 PO1      0.035100
      3 O2          6.7920   -0.3710   -1.4970 o         1 PO1     -0.640800
      4 S1          6.3190    0.7280   -0.7960 s6        1 PO1      1.723400
      5 O1          7.1760    1.5260   -0.0590 o         1 PO1     -0.640800
      6 N1          5.2840    1.5540   -1.6520 n3        1 PO1     -1.043700
      7 O3          5.3960    0.0280    0.4660 os        1 PO1     -0.479800
      8 C3          1.8960    1.0680    0.9240 ca        1 PO1     -0.117000
      9 C4          1.2390   -0.1620    0.8110 ca        1 PO1     -0.071300
     10 C5          1.9930   -1.3240    0.5620 ca        1 PO1     -0.055300
     11 C6          3.3830   -1.2450    0.4200 ca        1 PO1     -0.144000
     12 O4          3.8820    2.4040    0.7860 os        1 PO1     -0.373900
     13 C7          4.6320    2.6750    1.9760 c3        1 PO1      0.109700
     14 C8         -0.2420   -0.2490    1.0190 c3        1 PO1     -0.013400
     15 C9         -0.8090   -1.4860    0.2990 c3        1 PO1     -0.048700
     16 C10        -0.0870   -2.7220    0.8030 c3        1 PO1     -0.074400
     17 C11         1.3730   -2.6710    0.4130 c3        1 PO1     -0.037100
     18 C12        -0.9820    1.0240    0.6200 c3        1 PO1     -0.070400
     19 C13        -2.4950    0.9130    0.7250 c3        1 PO1     -0.065400
     20 C14        -3.0120   -0.3040   -0.0210 c3        1 PO1     -0.080000
     21 C15        -2.2950   -1.5420    0.5710 c3        1 PO1     -0.060700
     22 C16        -2.8080   -0.1390   -1.5160 c3        1 PO1     -0.071100
     23 C17        -4.4940   -0.6850    0.2460 c3        1 PO1      0.197100
     24 C18        -4.5520   -2.2160    0.0340 c3        1 PO1     -0.087400
     25 C19        -3.1100   -2.7260    0.0690 c3        1 PO1     -0.072400
     26 O5         -5.3810   -0.0750   -0.6570 os        1 PO1     -0.573500
     27 S2         -6.4430    1.1600   -0.2380 s6        1 PO1      1.716400
     28 O6         -6.5570    1.0610    1.1460 o         1 PO1     -0.653800
     29 O7         -7.5250    0.9150   -1.0730 o         1 PO1     -0.653800
     30 N2         -5.6780    2.4870   -0.6530 n3        1 PO1     -1.035700
     31 HN11        4.8440    2.3850   -1.3250 hn        1 PO1      0.466800
     32 HN12        4.9330    1.2690   -2.5340 hn        1 PO1      0.466800
     33 H3          1.3400    1.9960    1.1260 ha        1 PO1      0.148000
     34 H6          3.9770   -2.1540    0.2360 ha        1 PO1      0.156000
     35 H71         4.9950    3.7230    1.8270 h1        1 PO1      0.052367
     36 H72         3.9720    2.6060    2.8730 h1        1 PO1      0.052367
     37 H73         5.4890    1.9610    2.0560 h1        1 PO1      0.052367
     38 H8         -0.4050   -0.3990    2.1290 hc        1 PO1      0.060700
     39 H9         -0.6250   -1.3920   -0.8060 hc        1 PO1      0.062700
     40 H101       -0.1860   -2.7910    1.9180 hc        1 PO1      0.047700
     41 H102       -0.5620   -3.6400    0.3670 hc        1 PO1      0.047700
     42 H111        1.9480   -3.4140    1.0300 hc        1 PO1      0.055700
     43 H112        1.4800   -2.9850   -0.6630 hc        1 PO1      0.055700
     44 H121       -0.6580    1.8620    1.2940 hc        1 PO1      0.044200
     45 H122       -0.6950    1.3050   -0.4270 hc        1 PO1      0.044200
     46 H131       -2.7930    0.8470    1.8050 hc        1 PO1      0.037200
     47 H132       -2.9560    1.8450    0.3030 hc        1 PO1      0.037200
     48 H15        -2.4300   -1.5060    1.6940 hc        1 PO1      0.048700
     49 H161       -1.7380    0.0520   -1.7680 hc        1 PO1      0.038033
     50 H162       -3.1490   -1.0570   -2.0530 hc        1 PO1      0.038033
     51 H163       -3.4160    0.7240   -1.8820 hc        1 PO1      0.038033
     52 H17        -4.7790   -0.4170    1.3020 h1        1 PO1      0.062700
     53 H181       -5.1660   -2.6850    0.8390 hc        1 PO1      0.060700
     54 H182       -5.0330   -2.4410   -0.9500 hc        1 PO1      0.060700
     55 H191       -3.0070   -3.6060    0.7500 hc        1 PO1      0.046700
     56 H192       -2.7730   -3.0400   -0.9500 hc        1 PO1      0.046700
     57 HN21       -5.7220    2.8850   -1.5590 hn        1 PO1      0.455300
     58 HN22       -5.0740    2.9900   -0.0510 hn        1 PO1      0.455300
@<TRIPOS>BOND
     1    1    2 ar  
     2    1    7 1   
     3    1   11 ar  
     4    2    8 ar  
     5    2   12 1   
     6    3    4 2   
     7    4    5 2   
     8    4    6 1   
     9    4    7 1   
    10    6   31 1   
    11    6   32 1   
    12    8    9 ar  
    13    8   33 1   
    14    9   10 ar  
    15    9   14 1   
    16   10   11 ar  
    17   10   17 1   
    18   11   34 1   
    19   12   13 1   
    20   13   35 1   
    21   13   36 1   
    22   13   37 1   
    23   14   15 1   
    24   14   18 1   
    25   14   38 1   
    26   15   16 1   
    27   15   21 1   
    28   15   39 1   
    29   16   17 1   
    30   16   40 1   
    31   16   41 1   
    32   17   42 1   
    33   17   43 1   
    34   18   19 1   
    35   18   44 1   
    36   18   45 1   
    37   19   20 1   
    38   19   46 1   
    39   19   47 1   
    40   20   21 1   
    41   20   22 1   
    42   20   23 1   
    43   21   25 1   
    44   21   48 1   
    45   22   49 1   
    46   22   50 1   
    47   22   51 1   
    48   23   24 1   
    49   23   26 1   
    50   23   52 1   
    51   24   25 1   
    52   24   53 1   
    53   24   54 1   
    54   25   55 1   
    55   25   56 1   
    56   26   27 1   
    57   27   28 2   
    58   27   29 2   
    59   27   30 1   
    60   30   57 1   
    61   30   58 1   
@<TRIPOS>SUBSTRUCTURE
     1 PO1         1 TEMP              0 ****  ****    0 ROOT
