@<TRIPOS>MOLECULE
PO2
    3     1     1     0     0
SMALL
bcc


@<TRIPOS>ATOM
      1 P           0.4620    0.1020   -0.1930 p2        1 PO2      0.419500
      2 O1          0.1930   -1.0620    0.8420 os        1 PO2     -0.776000
      3 O2         -0.6550    0.9590   -0.6500 o         1 PO2     -0.644500
@<TRIPOS>BOND
     1    1    3 2   
@<TRIPOS>SUBSTRUCTURE
     1 PO2         1 TEMP              0 ****  ****    0 ROOT
