@<TRIPOS>MOLECULE
PO3
    4     3     1     0     0
SMALL
bcc


@<TRIPOS>ATOM
      1 P           0.0000    0.0000   -0.3400 p3        1 PO3      0.413000
      2 O1         -1.3740    0.6460    0.2690 o         1 PO3     -1.138000
      3 O2          1.2460    0.8660    0.2690 o         1 PO3     -1.138000
      4 O3          0.1270   -1.5130    0.2690 o         1 PO3     -1.138000
@<TRIPOS>BOND
     1    1    2 1   
     2    1    3 1   
     3    1    4 1   
@<TRIPOS>SUBSTRUCTURE
     1 PO3         1 TEMP              0 ****  ****    0 ROOT
