@<TRIPOS>MOLECULE
PO5
   67    71     1     0     0
SMALL
bcc


@<TRIPOS>ATOM
      1 N1          0.1430   -0.0580   -0.5140 na        1 PO5      0.368500
      2 C4          1.5340    0.1060   -2.8900 cc        1 PO5     -0.216300
      3 C5          2.2480    0.2700   -1.7400 cd        1 PO5     -0.060000
      4 C6          1.5650    0.1870   -0.4930 cd        1 PO5     -0.040300
      5 C7          1.9180    0.2910    0.8740 cc        1 PO5     -0.369400
      6 C8          0.6780    0.0970    1.5880 cc        1 PO5      0.386500
      7 C10         3.2120    0.5270    1.4670 ca        1 PO5      0.595100
      8 C15         3.2930    0.8740    2.8410 ca        1 PO5     -0.398600
      9 C17         7.9820    0.4310    1.0080 ca        1 PO5      0.136600
     10 C20        10.6200    0.1780    1.9040 ca        1 PO5      0.073100
     11 C21         9.8410    1.2590    2.3420 ca        1 PO5     -0.146000
     12 C22         8.5320    1.3840    1.8950 ca        1 PO5     -0.111000
     13 C24        12.8600   -0.5850    1.6670 c3        1 PO5      0.099400
     14 N2         -0.5700   -0.1960   -1.6360 nd        1 PO5     -0.484800
     15 C3          0.0960   -0.1460   -2.8120 cc        1 PO5      0.562200
     16 N9         -0.3640   -0.1110    0.7460 nd        1 PO5     -0.502100
     17 N11         4.3270    0.4040    0.7010 nb        1 PO5     -0.761000
     18 C12         5.5420    0.6440    1.3230 ca        1 PO5      0.861900
     19 N13         5.7030    0.9700    2.6600 nb        1 PO5     -0.745000
     20 C14         4.5710    1.0780    3.3760 ca        1 PO5      0.462200
     21 N16         6.6830    0.5900    0.4770 nu        1 PO5     -0.706300
     22 C18         8.7910   -0.6450    0.5770 ca        1 PO5     -0.111000
     23 C19        10.1040   -0.7710    1.0200 ca        1 PO5     -0.146000
     24 O23        11.8940    0.0990    2.4620 os        1 PO5     -0.349900
     25 C25        14.2090   -0.1490    2.2540 c3        1 PO5      0.125100
     26 O26        14.3380   -0.5200    3.6160 oh        1 PO5     -0.637800
     27 C27        15.3390   -0.8640    1.4900 c3        1 PO5      0.100800
     28 N28        16.6770   -0.7010    2.1490 nx        1 PO5     -0.675400
     29 C29        17.6290   -1.7360    1.6710 c3        1 PO5      0.082600
     30 C30        17.2270    0.6620    1.9340 c3        1 PO5      0.082600
     31 N31        -0.5730   -0.4030   -4.0500 nh        1 PO5     -0.700300
     32 C32        -0.6240    0.7550   -4.9410 c3        1 PO5      0.134300
     33 C33        -1.8530    1.6530   -4.7460 c3        1 PO5      0.093900
     34 O34        -3.0580    0.8990   -4.7790 os        1 PO5     -0.407600
     35 C35        -3.0720   -0.1540   -3.8180 c3        1 PO5      0.093900
     36 C36        -1.8630   -1.0800   -3.9940 c3        1 PO5      0.134300
     37 H4          2.0160    0.1400   -3.8780 ha        1 PO5      0.164000
     38 H5          3.3320    0.4590   -1.7380 ha        1 PO5      0.178000
     39 H8          0.5270    0.0960    2.6700 h4        1 PO5      0.061800
     40 H15         2.3930    0.9810    3.4560 ha        1 PO5      0.160000
     41 H21        10.2660    1.9940    3.0410 ha        1 PO5      0.141500
     42 H22         7.9300    2.2410    2.2400 ha        1 PO5      0.157000
     43 H24        12.7150   -1.6920    1.7840 h1        1 PO5      0.063200
     44 H24A       12.7800   -0.2930    0.5890 h1        1 PO5      0.063200
     45 H14         4.7100    1.3430    4.4410 h4        1 PO5      0.031100
     46 HN16        6.5290    0.0830   -0.3740 hn        1 PO5      0.433800
     47 H18         8.3900   -1.4020   -0.1160 ha        1 PO5      0.157000
     48 H19        10.7120   -1.6200    0.6790 ha        1 PO5      0.141500
     49 H25        14.3120    0.9710    2.1700 h1        1 PO5      0.074700
     50 HO26       13.4900   -0.3450    4.0540 ho        1 PO5      0.473000
     51 H27        15.1120   -1.9690    1.4540 hx        1 PO5      0.108700
     52 H27A       15.3980   -0.4600    0.4420 hx        1 PO5      0.108700
     53 H29        17.7470   -1.6530    0.5580 hx        1 PO5      0.105367
     54 H29A       17.2360   -2.7550    1.9350 hx        1 PO5      0.105367
     55 H29B       18.6240   -1.5790    2.1680 hx        1 PO5      0.105367
     56 H30        18.1990    0.7610    2.4880 hx        1 PO5      0.105367
     57 H30A       16.4950    1.4210    2.3240 hx        1 PO5      0.105367
     58 H30B       17.4010    0.8330    0.8390 hx        1 PO5      0.105367
     59 H32         0.3060    1.3750   -4.8240 h1        1 PO5      0.072700
     60 H32A       -0.6440    0.3330   -5.9860 h1        1 PO5      0.072700
     61 H33        -1.7860    2.2160   -3.7780 h1        1 PO5      0.063700
     62 H33A       -1.9490    2.3700   -5.6030 h1        1 PO5      0.063700
     63 H35        -3.1050    0.2790   -2.7840 h1        1 PO5      0.063700
     64 H35A       -4.0220   -0.7100   -4.0330 h1        1 PO5      0.063700
     65 H36        -1.9580   -1.6110   -4.9860 h1        1 PO5      0.072700
     66 H36A       -1.8670   -1.8560   -3.1810 h1        1 PO5      0.072700
     67 H281       16.5280   -0.8310    3.1660 hn        1 PO5      0.478800
@<TRIPOS>BOND
     1    1    4 1   
     2    1   14 1   
     3    1   16 1   
     4    2    3 2   
     5    2   15 1   
     6    2   37 1   
     7    3    4 1   
     8    3   38 1   
     9    4    5 2   
    10    5    6 1   
    11    5    7 1   
    12    6   16 2   
    13    6   39 1   
    14    7    8 ar  
    15    7   17 ar  
    16    8   20 ar  
    17    8   40 1   
    18    9   12 ar  
    19    9   21 1   
    20    9   22 ar  
    21   10   11 ar  
    22   10   23 ar  
    23   10   24 1   
    24   11   12 ar  
    25   11   41 1   
    26   12   42 1   
    27   13   24 1   
    28   13   25 1   
    29   13   43 1   
    30   13   44 1   
    31   14   15 2   
    32   15   31 1   
    33   17   18 ar  
    34   18   19 ar  
    35   18   21 1   
    36   19   20 ar  
    37   20   45 1   
    38   21   46 1   
    39   22   23 ar  
    40   22   47 1   
    41   23   48 1   
    42   25   26 1   
    43   25   27 1   
    44   25   49 1   
    45   26   50 1   
    46   27   28 1   
    47   27   51 1   
    48   27   52 1   
    49   28   29 1   
    50   28   30 1   
    51   28   67 1   
    52   29   53 1   
    53   29   54 1   
    54   29   55 1   
    55   30   56 1   
    56   30   57 1   
    57   30   58 1   
    58   31   32 1   
    59   31   36 1   
    60   32   33 1   
    61   32   59 1   
    62   32   60 1   
    63   33   34 1   
    64   33   61 1   
    65   33   62 1   
    66   34   35 1   
    67   35   36 1   
    68   35   63 1   
    69   35   64 1   
    70   36   65 1   
    71   36   66 1   
@<TRIPOS>SUBSTRUCTURE
     1 PO5         1 TEMP              0 ****  ****    0 ROOT
