@<TRIPOS>MOLECULE
PO5
   67    71     1     0     0
SMALL
bcc


@<TRIPOS>ATOM
      1 N1          0.1430   -0.0540   -0.5090 na        1 PO5      0.368500
      2 C4          1.5330    0.0950   -2.8880 cc        1 PO5     -0.216300
      3 C5          2.2480    0.2650   -1.7390 cd        1 PO5     -0.060000
      4 C6          1.5650    0.1900   -0.4910 cd        1 PO5     -0.040300
      5 C7          1.9190    0.3010    0.8750 cc        1 PO5     -0.369400
      6 C8          0.6800    0.1120    1.5910 cc        1 PO5      0.386500
      7 C10         3.2140    0.5400    1.4660 ca        1 PO5      0.595100
      8 C15         3.2960    0.8940    2.8380 ca        1 PO5     -0.398600
      9 C17         7.9830    0.4350    1.0040 ca        1 PO5      0.136600
     10 C20        10.6210    0.1840    1.9000 ca        1 PO5      0.073100
     11 C21         9.8450    1.2690    2.3320 ca        1 PO5     -0.146000
     12 C22         8.5360    1.3930    1.8850 ca        1 PO5     -0.111000
     13 C24        12.8600   -0.5860    1.6670 c3        1 PO5      0.099400
     14 N2         -0.5710   -0.1990   -1.6300 nd        1 PO5     -0.484800
     15 C3          0.0940   -0.1560   -2.8070 cc        1 PO5      0.562200
     16 N9         -0.3630   -0.1000    0.7510 nd        1 PO5     -0.502100
     17 N11         4.3280    0.4110    0.7000 nb        1 PO5     -0.761000
     18 C12         5.5440    0.6530    1.3190 ca        1 PO5      0.861900
     19 N13         5.7070    0.9870    2.6540 nb        1 PO5     -0.745000
     20 C14         4.5750    1.1000    3.3700 ca        1 PO5      0.462200
     21 N16         6.6840    0.5930    0.4730 nh        1 PO5     -0.706300
     22 C18         8.7900   -0.6440    0.5790 ca        1 PO5     -0.111000
     23 C19        10.1040   -0.7690    1.0210 ca        1 PO5     -0.146000
     24 O23        11.8960    0.1060    2.4580 os        1 PO5     -0.349900
     25 C25        14.2100   -0.1480    2.2500 c3        1 PO5      0.125100
     26 O26        14.3380   -0.5090    3.6150 oh        1 PO5     -0.637800
     27 C27        15.3380   -0.8730    1.4920 c3        1 PO5      0.100800
     28 N28        16.6770   -0.7070    2.1490 n4        1 PO5     -0.675400
     29 C29        17.6260   -1.7490    1.6800 c3        1 PO5      0.082600
     30 C30        17.2300    0.6530    1.9220 c3        1 PO5      0.082600
     31 N31        -0.5760   -0.4190   -4.0420 nh        1 PO5     -0.700300
     32 C32        -0.6270    0.7330   -4.9400 c3        1 PO5      0.134300
     33 C33        -1.8560    1.6330   -4.7490 c3        1 PO5      0.093900
     34 O34        -3.0610    0.8790   -4.7770 os        1 PO5     -0.407600
     35 C35        -3.0750   -0.1690   -3.8100 c3        1 PO5      0.093900
     36 C36        -1.8670   -1.0960   -3.9820 c3        1 PO5      0.134300
     37 H4          2.0130    0.1230   -3.8770 ha        1 PO5      0.164000
     38 H5          3.3320    0.4530   -1.7390 ha        1 PO5      0.178000
     39 H8          0.5300    0.1170    2.6740 h4        1 PO5      0.061800
     40 H15         2.3970    1.0060    3.4530 ha        1 PO5      0.160000
     41 H21        10.2710    2.0070    3.0260 ha        1 PO5      0.141500
     42 H22         7.9350    2.2520    2.2250 ha        1 PO5      0.157000
     43 H24        12.7120   -1.6910    1.7920 h1        1 PO5      0.063200
     44 H24A       12.7800   -0.3010    0.5870 h1        1 PO5      0.063200
     45 H14         4.7150    1.3710    4.4340 h4        1 PO5      0.031100
     46 HN16        6.5290    0.0820   -0.3750 hn        1 PO5      0.433800
     47 H18         8.3890   -1.4050   -0.1090 ha        1 PO5      0.157000
     48 H19        10.7100   -1.6220    0.6860 ha        1 PO5      0.141500
     49 H25        14.3160    0.9700    2.1580 h1        1 PO5      0.074700
     50 HO26       13.4910   -0.3280    4.0520 ho        1 PO5      0.473000
     51 H27        15.1090   -1.9770    1.4650 hx        1 PO5      0.108700
     52 H27A       15.3980   -0.4770    0.4410 hx        1 PO5      0.108700
     53 H29        17.7440   -1.6760    0.5660 hx        1 PO5      0.105367
     54 H29A       18.6220   -1.5910    2.1750 hx        1 PO5      0.105367
     55 H29B       17.2310   -2.7640    1.9530 hx        1 PO5      0.105367
     56 H30        17.4040    0.8130    0.8250 hx        1 PO5      0.105367
     57 H30A       16.5000    1.4160    2.3050 hx        1 PO5      0.105367
     58 H30B       18.2020    0.7540    2.4750 hx        1 PO5      0.105367
     59 H32         0.3020    1.3540   -4.8270 h1        1 PO5      0.072700
     60 H32A       -0.6480    0.3060   -5.9830 h1        1 PO5      0.072700
     61 H33        -1.9520    2.3450   -5.6090 h1        1 PO5      0.063700
     62 H33A       -1.7880    2.2010   -3.7840 h1        1 PO5      0.063700
     63 H35        -3.1070    0.2700   -2.7790 h1        1 PO5      0.063700
     64 H35A       -4.0250   -0.7250   -4.0210 h1        1 PO5      0.063700
     65 H36        -1.9620   -1.6320   -4.9710 h1        1 PO5      0.072700
     66 H36A       -1.8690   -1.8670   -3.1650 h1        1 PO5      0.072700
     67 H281       16.5280   -0.8280    3.1680 hn        1 PO5      0.478800
@<TRIPOS>BOND
     1    1    4 1   
     2    1   14 1   
     3    1   16 1   
     4    2    3 2   
     5    2   15 1   
     6    2   37 1   
     7    3    4 1   
     8    3   38 1   
     9    4    5 2   
    10    5    6 1   
    11    5    7 1   
    12    6   16 2   
    13    6   39 1   
    14    7    8 ar  
    15    7   17 ar  
    16    8   20 ar  
    17    8   40 1   
    18    9   12 ar  
    19    9   21 1   
    20    9   22 ar  
    21   10   11 ar  
    22   10   23 ar  
    23   10   24 1   
    24   11   12 ar  
    25   11   41 1   
    26   12   42 1   
    27   13   24 1   
    28   13   25 1   
    29   13   43 1   
    30   13   44 1   
    31   14   15 2   
    32   15   31 1   
    33   17   18 ar  
    34   18   19 ar  
    35   18   21 1   
    36   19   20 ar  
    37   20   45 1   
    38   21   46 1   
    39   22   23 ar  
    40   22   47 1   
    41   23   48 1   
    42   25   26 1   
    43   25   27 1   
    44   25   49 1   
    45   26   50 1   
    46   27   28 1   
    47   27   51 1   
    48   27   52 1   
    49   28   29 1   
    50   28   30 1   
    51   28   67 1   
    52   29   53 1   
    53   29   54 1   
    54   29   55 1   
    55   30   56 1   
    56   30   57 1   
    57   30   58 1   
    58   31   32 1   
    59   31   36 1   
    60   32   33 1   
    61   32   59 1   
    62   32   60 1   
    63   33   34 1   
    64   33   61 1   
    65   33   62 1   
    66   34   35 1   
    67   35   36 1   
    68   35   63 1   
    69   35   64 1   
    70   36   65 1   
    71   36   66 1   
@<TRIPOS>SUBSTRUCTURE
     1 PO5         1 TEMP              0 ****  ****    0 ROOT
