@<TRIPOS>MOLECULE
PO5
   66    70     1     0     0
SMALL
bcc


@<TRIPOS>ATOM
      1 N1         -5.4910    1.0360   -0.1190 na        1 PO5      0.363500
      2 C4         -4.9750   -1.6040    0.4950 cc        1 PO5     -0.223300
      3 C5         -3.9170   -0.8420    0.0970 cd        1 PO5     -0.052000
      4 C6         -4.1430    0.5280   -0.2250 cd        1 PO5     -0.045300
      5 C7         -3.3530    1.6190   -0.6550 cc        1 PO5     -0.353400
      6 C8         -4.2810    2.7170   -0.7760 cc        1 PO5      0.382500
      7 C10        -1.9330    1.6670   -0.9220 ca        1 PO5      0.586100
      8 C15        -1.3880    2.7970   -1.5810 ca        1 PO5     -0.410600
      9 C17         2.3830   -0.3100   -0.3070 ca        1 PO5      0.086600
     10 C20         5.1660   -0.2660    0.0270 ca        1 PO5      0.121100
     11 C21         4.6050    0.0480   -1.2240 ca        1 PO5     -0.170500
     12 C22         3.2280    0.0200   -1.3900 ca        1 PO5     -0.098000
     13 C24         7.1360   -0.4390    1.3540 c3        1 PO5      0.094400
     14 N2         -6.5380    0.2900    0.2450 nd        1 PO5     -0.488800
     15 C3         -6.3030   -1.0000    0.5750 cc        1 PO5      0.559200
     16 N9         -5.5470    2.3520   -0.4520 nd        1 PO5     -0.509100
     17 N11        -1.1520    0.6300   -0.5260 nb        1 PO5     -0.770000
     18 C12         0.2030    0.7200   -0.8110 ca        1 PO5      0.866900
     19 N13         0.8120    1.7990   -1.4390 nb        1 PO5     -0.733000
     20 C14        -0.0040    2.8000   -1.8040 ca        1 PO5      0.462200
     21 N16         0.9800   -0.4200   -0.4880 nh        1 PO5     -0.695300
     22 C18         2.9630   -0.6160    0.9400 ca        1 PO5     -0.098000
     23 C19         4.3450   -0.6020    1.1080 ca        1 PO5     -0.170500
     24 O23         6.5470   -0.2240    0.0690 os        1 PO5     -0.329900
     25 C25         8.6450   -0.2050    1.1730 c3        1 PO5      0.140100
     26 O26         9.2320   -0.0840    2.4530 oh        1 PO5     -0.589800
     27 C27         9.2360   -1.3320    0.3130 c3        1 PO5      0.134800
     28 N28        10.6890   -1.3790    0.2720 n3        1 PO5     -0.739600
     29 C29        11.1650   -2.4210   -0.6120 c3        1 PO5      0.152100
     30 C30        11.3130   -0.0990    0.0250 c3        1 PO5      0.152100
     31 N31        -7.3500   -1.8350    1.0820 nh        1 PO5     -0.700300
     32 C32        -7.7030   -2.9360    0.1880 c3        1 PO5      0.135300
     33 C33        -8.7930   -2.5990   -0.8370 c3        1 PO5      0.093900
     34 O34        -9.9380   -2.0320   -0.2120 os        1 PO5     -0.411600
     35 C35        -9.6230   -0.8740    0.5570 c3        1 PO5      0.093900
     36 C36        -8.5440   -1.1780    1.6020 c3        1 PO5      0.135300
     37 H4         -4.8520   -2.6600    0.7750 ha        1 PO5      0.163000
     38 H5         -2.8930   -1.2400    0.0210 ha        1 PO5      0.183000
     39 H8         -4.0580    3.7440   -1.0780 h4        1 PO5      0.060800
     40 H15        -2.0190    3.6310   -1.9040 ha        1 PO5      0.153000
     41 H21         5.2660    0.3110   -2.0620 ha        1 PO5      0.145500
     42 H22         2.8000    0.2640   -2.3760 ha        1 PO5      0.145000
     43 H24         6.7290    0.2940    2.0980 h1        1 PO5      0.049200
     44 H24A        6.9250   -1.4850    1.6960 h1        1 PO5      0.049200
     45 H14         0.4910    3.6530   -2.3050 h4        1 PO5      0.028100
     46 HN16        0.5430   -1.0300    0.1770 hn        1 PO5      0.426800
     47 H18         2.3290   -0.8770    1.8020 ha        1 PO5      0.145000
     48 H19         4.7700   -0.8500    2.0900 ha        1 PO5      0.145500
     49 H25         8.8080    0.7960    0.6830 h1        1 PO5      0.086700
     50 HO26        9.4660   -0.9700    2.7560 ho        1 PO5      0.412000
     51 H27         8.8950   -2.3210    0.7350 h1        1 PO5      0.045200
     52 H27A        8.7800   -1.2250   -0.7160 h1        1 PO5      0.045200
     53 H29        10.9140   -2.2350   -1.6930 h1        1 PO5      0.034867
     54 H29A       12.2790   -2.4960   -0.5120 h1        1 PO5      0.034867
     55 H29B       10.7100   -3.3980   -0.3060 h1        1 PO5      0.034867
     56 H30        11.0810    0.5810    0.8880 h1        1 PO5      0.034867
     57 H30A       12.4250   -0.2370   -0.0310 h1        1 PO5      0.034867
     58 H30B       10.9660    0.3890   -0.9260 h1        1 PO5      0.034867
     59 H32        -6.7880   -3.3000   -0.3550 h1        1 PO5      0.071950
     60 H32A       -8.0750   -3.7630    0.8570 h1        1 PO5      0.071950
     61 H33        -8.4030   -1.8960   -1.6190 h1        1 PO5      0.062450
     62 H33A       -9.1750   -3.5370   -1.3200 h1        1 PO5      0.062450
     63 H35        -9.3060   -0.0430   -0.1260 h1        1 PO5      0.062450
     64 H35A      -10.5890   -0.6080    1.0620 h1        1 PO5      0.062450
     65 H36        -8.9700   -1.8990    2.3580 h1        1 PO5      0.071950
     66 H36A       -8.2690   -0.2300    2.1390 h1        1 PO5      0.071950
@<TRIPOS>BOND
     1    1    4 1   
     2    1   14 1   
     3    1   16 1   
     4    2    3 2   
     5    2   15 1   
     6    2   37 1   
     7    3    4 1   
     8    3   38 1   
     9    4    5 2   
    10    5    6 1   
    11    5    7 1   
    12    6   16 2   
    13    6   39 1   
    14    7    8 ar  
    15    7   17 ar  
    16    8   20 ar  
    17    8   40 1   
    18    9   12 ar  
    19    9   21 1   
    20    9   22 ar  
    21   10   11 ar  
    22   10   23 ar  
    23   10   24 1   
    24   11   12 ar  
    25   11   41 1   
    26   12   42 1   
    27   13   24 1   
    28   13   25 1   
    29   13   43 1   
    30   13   44 1   
    31   14   15 2   
    32   15   31 1   
    33   17   18 ar  
    34   18   19 ar  
    35   18   21 1   
    36   19   20 ar  
    37   20   45 1   
    38   21   46 1   
    39   22   23 ar  
    40   22   47 1   
    41   23   48 1   
    42   25   26 1   
    43   25   27 1   
    44   25   49 1   
    45   26   50 1   
    46   27   28 1   
    47   27   51 1   
    48   27   52 1   
    49   28   29 1   
    50   28   30 1   
    51   29   53 1   
    52   29   54 1   
    53   29   55 1   
    54   30   56 1   
    55   30   57 1   
    56   30   58 1   
    57   31   32 1   
    58   31   36 1   
    59   32   33 1   
    60   32   59 1   
    61   32   60 1   
    62   33   34 1   
    63   33   61 1   
    64   33   62 1   
    65   34   35 1   
    66   35   36 1   
    67   35   63 1   
    68   35   64 1   
    69   36   65 1   
    70   36   66 1   
@<TRIPOS>SUBSTRUCTURE
     1 PO5         1 TEMP              0 ****  ****    0 ROOT
