@<TRIPOS>MOLECULE
PO5
   66    58     1     0     0
SMALL
bcc


@<TRIPOS>ATOM
      1 N1         -6.3060   -0.8770   -0.9710 n1        1 PO5      0.000000
      2 C4         -6.2340    1.7880   -0.2900 c1        1 PO5     -0.129000
      3 C5         -5.1270    1.0040   -0.1040 c1        1 PO5     -0.129000
      4 C6         -5.1650   -0.3390   -0.4480 c1        1 PO5     -0.053000
      5 C7         -4.2200   -1.3670   -0.3250 c1        1 PO5     -0.151000
      6 C8         -4.8010   -2.5360   -0.7800 c1        1 PO5      0.021000
      7 C10        -2.9040   -1.5060    0.1770 c1        1 PO5      0.021000
      8 C15        -2.6930   -1.5720    1.5120 c1        1 PO5     -0.129000
      9 C17         1.7580   -1.2560   -0.5600 c1        1 PO5      0.008000
     10 C20         4.3720   -0.8420    0.3110 c1        1 PO5      0.076000
     11 C21         3.5380    0.2420    0.0480 c1        1 PO5     -0.150000
     12 C22         2.2220    0.0240   -0.3910 c2        1 PO5     -0.069000
     13 C24         6.7470   -0.5200   -0.0680 c3        1 PO5     -0.065000
     14 N2         -7.4270   -0.0800   -1.1590 n1        1 PO5     -0.062000
     15 C3         -7.3910    1.2410   -0.8210 c1        1 PO5      0.061000
     16 N9         -6.0860   -2.2450   -1.1800 n1        1 PO5     -0.136000
     17 N11        -1.8490   -1.5180   -0.6790 n1        1 PO5     -0.136000
     18 C12        -0.5860   -1.5960   -0.2000 c1        1 PO5      0.149000
     19 N13        -0.3700   -1.6620    1.1400 n1        1 PO5     -0.207000
     20 C14        -1.4190   -1.6500    1.9960 c1        1 PO5     -0.129000
     21 N16         0.4970   -1.4700   -1.0700 n2        1 PO5     -0.217000
     22 C18         2.5940   -2.3410   -0.2960 c1        1 PO5     -0.128000
     23 C19         3.9070   -2.1230    0.1420 c1        1 PO5     -0.191000
     24 O23         5.6710   -0.6220    0.9080 os        1 PO5     -0.224000
     25 C25         8.0670   -0.2010    0.6470 c3        1 PO5      0.031000
     26 O26         8.3010   -1.1490    1.6300 oh        1 PO5     -0.329000
     27 C27         9.1930   -0.2270   -0.3430 c3        1 PO5     -0.066000
     28 N28        10.4320   -0.1190    0.3470 n3        1 PO5     -0.267000
     29 C29        11.3180   -1.2020   -0.0710 c3        1 PO5     -0.119000
     30 C30        11.0640    1.1900    0.0290 c3        1 PO5     -0.119000
     31 N31        -8.7780    1.7890   -0.6320 n3        1 PO5     -0.217000
     32 C32        -8.7580    3.0230   -0.7840 c3        1 PO5     -0.086500
     33 C33       -10.1050    3.6340   -0.4750 c3        1 PO5     -0.032500
     34 O34       -11.2380    2.6220   -0.5320 os        1 PO5     -0.274000
     35 C35       -10.7030    1.7350    0.5940 c3        1 PO5     -0.032500
     36 C36        -9.3600    1.1430    0.2790 c3        1 PO5     -0.086500
     37 H4         -6.2080    2.7320   -0.0480 ha        1 PO5      0.159000
     38 H5         -4.2850    1.4010    0.2800 ha        1 PO5      0.159000
     39 H8         -4.3750   -3.4280   -0.8010 DU        1 PO5      0.200000
     40 H15        -3.4660   -1.5640    2.1390 ha        1 PO5      0.159000
     41 H21         3.8700    1.1590    0.1680 ha        1 PO5      0.151000
     42 H22         1.6560    0.7600   -0.5690 ha        1 PO5      0.158000
     43 H24         6.8320   -1.3490   -0.5380 h1        1 PO5      0.091000
     44 H24A        6.5560    0.1410   -0.6570 h1        1 PO5      0.091000
     45 H14        -1.2720   -1.6940    2.9140 ha        1 PO5      0.159000
     46 HN16        0.3780   -1.6340   -2.0210 hn        1 PO5      0.228000
     47 H18         2.2690   -3.2370   -0.4130 ha        1 PO5      0.134000
     48 H19         4.5070   -2.9000    0.3320 ha        1 PO5      0.139000
     49 H25         8.0110    0.7010    1.0610 h1        1 PO5      0.109000
     50 HO26        8.1260   -0.8140    2.3980 ho        1 PO5      0.215000
     51 H27         9.0980    0.5220   -0.9640 h1        1 PO5      0.088500
     52 H27A        9.1700   -1.0760   -0.8450 h1        1 PO5      0.088500
     53 H29        11.3270   -1.2580   -1.0520 h1        1 PO5      0.071833
     54 H29A       12.2490   -1.0190    0.2640 h1        1 PO5      0.071833
     55 H29B       11.0130   -2.0090    0.2840 h1        1 PO5      0.071833
     56 H30        10.4740    1.9250    0.3370 h1        1 PO5      0.071833
     57 H30A       11.2010    1.2650   -0.9740 h1        1 PO5      0.071833
     58 H30B       11.9180    1.2540    0.4770 h1        1 PO5      0.071833
     59 H32        -8.5200    3.2310   -1.7290 h1        1 PO5      0.104750
     60 H32A       -8.0680    3.4190   -0.1780 h1        1 PO5      0.104750
     61 H33       -10.2920    4.3850   -1.1570 h1        1 PO5      0.097250
     62 H33A      -10.0760    4.0320    0.4510 h1        1 PO5      0.097250
     63 H35       -10.6240    2.2950    1.4390 h1        1 PO5      0.097250
     64 H35A      -11.3410    1.0050    0.7530 h1        1 PO5      0.097250
     65 H36        -8.8010    1.1550    1.0920 h1        1 PO5      0.104750
     66 H36A       -9.4870    0.1800   -0.0270 h1        1 PO5      0.104750
@<TRIPOS>BOND
     1    1    4 1   
     2    2    3 1   
     3    2   37 1   
     4    3   38 1   
     5    5    6 1   
     6    5    7 1   
     7    6   16 1   
     8    7   17 1   
     9    8   20 1   
    10    8   40 1   
    11    9   12 1   
    12    9   22 1   
    13   10   23 1   
    14   10   24 1   
    15   11   12 1   
    16   11   41 1   
    17   12   42 1   
    18   13   24 1   
    19   13   25 1   
    20   13   43 1   
    21   13   44 1   
    22   14   15 1   
    23   15   31 1   
    24   18   19 1   
    25   18   21 1   
    26   20   45 1   
    27   21   46 1   
    28   22   47 1   
    29   23   48 1   
    30   25   26 1   
    31   25   27 1   
    32   25   49 1   
    33   26   50 1   
    34   27   28 1   
    35   27   51 1   
    36   27   52 1   
    37   28   29 1   
    38   28   30 1   
    39   29   53 1   
    40   29   54 1   
    41   29   55 1   
    42   30   56 1   
    43   30   57 1   
    44   30   58 1   
    45   31   32 1   
    46   31   36 1   
    47   32   33 1   
    48   32   59 1   
    49   32   60 1   
    50   33   34 1   
    51   33   61 1   
    52   33   62 1   
    53   34   35 1   
    54   35   36 1   
    55   35   63 1   
    56   35   64 1   
    57   36   65 1   
    58   36   66 1   
@<TRIPOS>SUBSTRUCTURE
     1 PO5         1 TEMP              0 ****  ****    0 ROOT
