@<TRIPOS>MOLECULE
PO5
   68    72     1     0     0
SMALL
bcc


@<TRIPOS>ATOM
      1 N1          1.1310   -0.4000   -0.2170 na        1 PO5      0.390500
      2 C4          2.1070    0.3180   -2.6900 cc        1 PO5     -0.185300
      3 C5          2.7290    0.8430   -1.5940 cd        1 PO5     -0.088000
      4 C6          2.2540    0.4860   -0.3010 cd        1 PO5     -0.019300
      5 C7          2.5990    0.8050    1.0440 cc        1 PO5     -0.431400
      6 C8          1.6380    0.0740    1.8460 cc        1 PO5      0.411500
      7 C10         3.6400    1.6370    1.5530 ca        1 PO5      0.625100
      8 C15         3.6070    2.0570    2.9190 ca        1 PO5     -0.326600
      9 C17         8.0130    2.6010    0.8060 ca        1 PO5     -0.072400
     10 C20        10.4260    1.4040    1.4950 ca        1 PO5      0.170100
     11 C21         9.9900    2.5480    2.1960 ca        1 PO5     -0.161000
     12 C22         8.7840    3.1420    1.8550 ca        1 PO5     -0.047500
     13 C24        12.1420   -0.2490    1.2410 c3        1 PO5      0.091400
     14 N2          0.4960   -0.9040   -1.2780 nd        1 PO5     -0.473800
     15 C3          0.9740   -0.5910   -2.5090 cc        1 PO5      0.581200
     16 N9          0.7810   -0.6380    1.0830 nd        1 PO5     -0.475100
     17 N11         4.6710    2.0260    0.7380 nb        1 PO5     -0.723000
     18 C12         5.6190    2.8160    1.3260 ca        1 PO5      0.717900
     19 N13         5.6770    3.2660    2.6160 nb        1 PO5     -0.699000
     20 C14         4.6410    2.8660    3.3940 ca        1 PO5      0.461200
     21 N16         6.7510    3.2450    0.4320 n4        1 PO5     -0.606100
     22 C18         8.4430    1.4540    0.1180 ca        1 PO5     -0.047500
     23 C19         9.6550    0.8580    0.4610 ca        1 PO5     -0.161000
     24 O23        11.6370    0.9050    1.9240 os        1 PO5     -0.328900
     25 C25        13.4760   -0.5380    1.9480 c3        1 PO5      0.126100
     26 O26        13.2660   -0.9740    3.2790 oh        1 PO5     -0.621800
     27 C27        14.1900   -1.6920    1.2180 c3        1 PO5      0.104800
     28 N28        15.3840   -2.2050    1.9660 n4        1 PO5     -0.675400
     29 C29        15.7420   -3.5740    1.5070 c3        1 PO5      0.082100
     30 C30        16.5470   -1.2870    1.8370 c3        1 PO5      0.082100
     31 N31         0.4480   -1.2050   -3.6760 nh        1 PO5     -0.702300
     32 C32        -0.1050   -0.2750   -4.6620 c3        1 PO5      0.133300
     33 C33        -1.6030    0.0090   -4.4850 c3        1 PO5      0.094400
     34 O34        -2.3540   -1.1940   -4.3990 os        1 PO5     -0.395600
     35 C35        -1.9020   -2.0490   -3.3530 c3        1 PO5      0.094400
     36 C36        -0.4130   -2.3740   -3.5170 c3        1 PO5      0.133300
     37 H4          2.4480    0.5490   -3.7110 ha        1 PO5      0.173000
     38 H5          3.5820    1.5300   -1.6780 ha        1 PO5      0.160000
     39 H8          1.5630    0.0440    2.9380 h4        1 PO5      0.069800
     40 H15         2.7750    1.7590    3.5730 ha        1 PO5      0.190000
     41 H21        10.6090    2.9600    3.0100 ha        1 PO5      0.173000
     42 H22         8.4400    4.0270    2.4200 ha        1 PO5      0.174000
     43 H24        11.4290   -1.1050    1.3650 h1        1 PO5      0.073200
     44 H24A       12.3040   -0.0150    0.1580 h1        1 PO5      0.073200
     45 H14         4.6690    3.2330    4.4400 h4        1 PO5      0.067100
     46 HN16        6.5190    3.0070   -0.5430 hn        1 PO5      0.475800
     47 H18         7.8390    1.0080   -0.6910 ha        1 PO5      0.174000
     48 H19         9.9840   -0.0370   -0.0880 ha        1 PO5      0.173000
     49 H25        14.1090    0.3950    1.9480 h1        1 PO5      0.081700
     50 HO26       12.7290   -0.3050    3.7280 ho        1 PO5      0.463000
     51 H27        14.5230   -1.3420    0.2010 hx        1 PO5      0.111700
     52 H27A       13.4670   -2.5510    1.1010 hx        1 PO5      0.111700
     53 H29        14.8870   -4.2730    1.7100 hx        1 PO5      0.109367
     54 H29A       15.9670   -3.5560    0.4080 hx        1 PO5      0.109367
     55 H29B       16.6510   -3.9240    2.0700 hx        1 PO5      0.109367
     56 H30        16.2540   -0.2640    2.1960 hx        1 PO5      0.109367
     57 H30A       16.8720   -1.2350    0.7640 hx        1 PO5      0.109367
     58 H30B       17.3940   -1.6750    2.4650 hx        1 PO5      0.109367
     59 H32         0.0580   -0.7650   -5.6640 h1        1 PO5      0.078200
     60 H32A        0.4560    0.6980   -4.6450 h1        1 PO5      0.078200
     61 H33        -1.7860    0.6370   -3.5730 h1        1 PO5      0.069200
     62 H33A       -2.0080    0.5260   -5.3960 h1        1 PO5      0.069200
     63 H35        -2.1080   -1.5750   -2.3580 h1        1 PO5      0.069200
     64 H35A       -2.5180   -2.9790   -3.4720 h1        1 PO5      0.069200
     65 H36        -0.2750   -2.9670   -4.4680 h1        1 PO5      0.078200
     66 H36A       -0.0700   -3.0090   -2.6560 h1        1 PO5      0.078200
     67 H162        6.8560    4.2670    0.5170 hn        1 PO5      0.475800
     68 H281       15.1190   -2.2520    2.9670 hn        1 PO5      0.477800
@<TRIPOS>BOND
     1    1    4 1   
     2    1   14 1   
     3    1   16 1   
     4    2    3 2   
     5    2   15 1   
     6    2   37 1   
     7    3    4 1   
     8    3   38 1   
     9    4    5 2   
    10    5    6 1   
    11    5    7 1   
    12    6   16 2   
    13    6   39 1   
    14    7    8 ar  
    15    7   17 ar  
    16    8   20 ar  
    17    8   40 1   
    18    9   12 ar  
    19    9   21 1   
    20    9   22 ar  
    21   10   11 ar  
    22   10   23 ar  
    23   10   24 1   
    24   11   12 ar  
    25   11   41 1   
    26   12   42 1   
    27   13   24 1   
    28   13   25 1   
    29   13   43 1   
    30   13   44 1   
    31   14   15 2   
    32   15   31 1   
    33   17   18 ar  
    34   18   19 ar  
    35   18   21 1   
    36   19   20 ar  
    37   20   45 1   
    38   21   46 1   
    39   21   67 1   
    40   22   23 ar  
    41   22   47 1   
    42   23   48 1   
    43   25   26 1   
    44   25   27 1   
    45   25   49 1   
    46   26   50 1   
    47   27   28 1   
    48   27   51 1   
    49   27   52 1   
    50   28   29 1   
    51   28   30 1   
    52   28   68 1   
    53   29   53 1   
    54   29   54 1   
    55   29   55 1   
    56   30   56 1   
    57   30   57 1   
    58   30   58 1   
    59   31   32 1   
    60   31   36 1   
    61   32   33 1   
    62   32   59 1   
    63   32   60 1   
    64   33   34 1   
    65   33   61 1   
    66   33   62 1   
    67   34   35 1   
    68   35   36 1   
    69   35   63 1   
    70   35   64 1   
    71   36   65 1   
    72   36   66 1   
@<TRIPOS>SUBSTRUCTURE
     1 PO5         1 TEMP              0 ****  ****    0 ROOT
