@<TRIPOS>MOLECULE
PO6
   21    21     1     0     0
SMALL
bcc


@<TRIPOS>ATOM
      1 CF          0.1970    0.0060   -0.3820 ca        1 PO6     -0.158500
      2 CD          1.3210    0.2220    0.4160 ca        1 PO6     -0.091500
      3 CC          1.3150   -0.1570    1.7590 ca        1 PO6     -0.107000
      4 CE          0.1880   -0.7660    2.3160 ca        1 PO6     -0.091500
      5 CG         -0.9490   -0.9830    1.5390 ca        1 PO6     -0.158500
      6 CK         -0.9310   -0.5850    0.1940 ca        1 PO6      0.019100
      7 OI         -2.0590   -0.9260   -0.5660 os        1 PO6     -0.320900
      8 CH         -2.6380    0.1370   -1.2880 c3        1 PO6      0.069400
      9 CJ         -3.6250    0.9380   -0.4560 c         1 PO6      0.507100
     10 OB         -4.2710    1.9110   -0.7970 o         1 PO6     -0.386100
     11 NA         -3.8480    0.4710    0.9670 nz        1 PO6     -0.762400
     12 H1          0.2130    0.2730   -1.4500 ha        1 PO6      0.145500
     13 H2          2.2210    0.6810   -0.0250 ha        1 PO6      0.162500
     14 H3          2.2110    0.0110    2.3810 ha        1 PO6      0.165000
     15 H4          0.2010   -1.0900    3.3690 ha        1 PO6      0.162500
     16 H5         -1.8110   -1.5280    1.9490 ha        1 PO6      0.145500
     17 H6         -1.8810    0.8600   -1.7010 h1        1 PO6      0.139200
     18 H7         -3.2130   -0.3560   -2.1280 h1        1 PO6      0.139200
     19 H8         -4.2350   -0.4800    0.9490 hn        1 PO6      0.474133
     20 H9         -4.4920    1.0960    1.4630 hn        1 PO6      0.474133
     21 HA3        -2.9430    0.4370    1.4560 hn        1 PO6      0.474133
@<TRIPOS>BOND
     1    1    2 ar  
     2    1    6 ar  
     3    1   12 1   
     4    2    3 ar  
     5    2   13 1   
     6    3    4 ar  
     7    3   14 1   
     8    4    5 ar  
     9    4   15 1   
    10    5    6 ar  
    11    5   16 1   
    12    6    7 1   
    13    7    8 1   
    14    8    9 1   
    15    8   17 1   
    16    8   18 1   
    17    9   10 2   
    18    9   11 1   
    19   11   19 1   
    20   11   20 1   
    21   11   21 1   
@<TRIPOS>SUBSTRUCTURE
     1 PO6         1 TEMP              0 ****  ****    0 ROOT
