@<TRIPOS>MOLECULE
PO6
   20    20     1     0     0
SMALL
bcc


@<TRIPOS>ATOM
      1 CF          0.1460    0.2710   -0.1490 ca        1 PO6     -0.176500
      2 CD          1.5160    0.1650    0.0990 ca        1 PO6     -0.096000
      3 CC          1.9810   -0.2660    1.3390 ca        1 PO6     -0.159000
      4 CE          1.0730   -0.5950    2.3490 ca        1 PO6     -0.096000
      5 CG         -0.2950   -0.4970    2.1270 ca        1 PO6     -0.176500
      6 CK         -0.7530   -0.0620    0.8690 ca        1 PO6      0.123100
      7 OI         -2.1320   -0.0060    0.7500 os        1 PO6     -0.342900
      8 CH         -2.6240    0.4740   -0.5020 c3        1 PO6      0.054400
      9 CJ         -4.1500    0.5080   -0.4650 c         1 PO6      0.657100
     10 OB         -4.7520    1.2740   -1.2450 o         1 PO6     -0.613100
     11 NA         -4.8340   -0.3390    0.3630 n         1 PO6     -0.652000
     12 H1         -0.2030    0.6140   -1.1320 ha        1 PO6      0.143500
     13 H2          2.2300    0.4260   -0.6970 ha        1 PO6      0.135500
     14 H3          3.0620   -0.3460    1.5250 ha        1 PO6      0.136000
     15 H4          1.4420   -0.9340    3.3290 ha        1 PO6      0.135500
     16 H5         -1.0220   -0.7510    2.9110 ha        1 PO6      0.143500
     17 H6         -2.3030   -0.2120   -1.3310 h1        1 PO6      0.074200
     18 H7         -2.2490    1.5150   -0.6910 h1        1 PO6      0.074200
     19 H8         -5.8210   -0.2750    0.4150 hn        1 PO6      0.318000
     20 H9         -4.3500   -0.8530    1.0560 hn        1 PO6      0.318000
@<TRIPOS>BOND
     1    1    2 ar  
     2    1    6 ar  
     3    1   12 1   
     4    2    3 ar  
     5    2   13 1   
     6    3    4 ar  
     7    3   14 1   
     8    4    5 ar  
     9    4   15 1   
    10    5    6 ar  
    11    5   16 1   
    12    6    7 1   
    13    7    8 1   
    14    8    9 1   
    15    8   17 1   
    16    8   18 1   
    17    9   10 2   
    18    9   11 1   
    19   11   19 1   
    20   11   20 1   
@<TRIPOS>SUBSTRUCTURE
     1 PO6         1 TEMP              0 ****  ****    0 ROOT
