@<TRIPOS>MOLECULE
PO6
   21    21     1     0     0
SMALL
bcc


@<TRIPOS>ATOM
      1 CF          0.2130    0.0430   -0.3510 ca        1 PO6     -0.158500
      2 CD          1.3300   -0.0200    0.4830 ca        1 PO6     -0.091500
      3 CC          1.2660    0.4790    1.7860 ca        1 PO6     -0.107000
      4 CE          0.0870    1.0550    2.2630 ca        1 PO6     -0.091500
      5 CG         -1.0430    1.1200    1.4500 ca        1 PO6     -0.158500
      6 CK         -0.9660    0.6040    0.1480 ca        1 PO6      0.019100
      7 OI         -2.0960    0.7930   -0.6600 os        1 PO6     -0.320900
      8 CH         -2.5830   -0.3690   -1.2900 c3        1 PO6      0.069400
      9 CJ         -3.5340   -1.1570   -0.4050 c         1 PO6      0.507100
     10 OB         -4.1040   -2.2010   -0.6650 o         1 PO6     -0.386100
     11 NA         -3.8220   -0.5800    0.9640 n4        1 PO6     -0.762400
     12 H1          0.2730   -0.3190   -1.3890 ha        1 PO6      0.145500
     13 H2          2.2700   -0.4530    0.1030 ha        1 PO6      0.162500
     14 H3          2.1560    0.4320    2.4350 ha        1 PO6      0.165000
     15 H4          0.0530    1.4740    3.2820 ha        1 PO6      0.162500
     16 H5         -1.9500    1.6380    1.7930 ha        1 PO6      0.145500
     17 H6         -1.7690   -1.0720   -1.6210 h1        1 PO6      0.139200
     18 H7         -3.1700    0.0030   -2.1820 h1        1 PO6      0.139200
     19 H8         -2.9330   -0.4370    1.4640 hn        1 PO6      0.474133
     20 H9         -4.4340   -1.2010    1.5050 hn        1 PO6      0.474133
     21 HA3        -4.2720    0.3360    0.8520 hn        1 PO6      0.474133
@<TRIPOS>BOND
     1    1    2 ar  
     2    1    6 ar  
     3    1   12 1   
     4    2    3 ar  
     5    2   13 1   
     6    3    4 ar  
     7    3   14 1   
     8    4    5 ar  
     9    4   15 1   
    10    5    6 ar  
    11    5   16 1   
    12    6    7 1   
    13    7    8 1   
    14    8    9 1   
    15    8   17 1   
    16    8   18 1   
    17    9   10 2   
    18    9   11 1   
    19   11   19 1   
    20   11   20 1   
    21   11   21 1   
@<TRIPOS>SUBSTRUCTURE
     1 PO6         1 TEMP              0 ****  ****    0 ROOT
