@<TRIPOS>MOLECULE
POA
   10     9     1     0     0
SMALL
bcc


@<TRIPOS>ATOM
      1 C1          0.0000    0.0640    0.1310 c3        1 POA     -0.386600
      2 C2          1.4270   -0.0160   -0.0440 c         1 POA      0.614900
      3 O2          2.2880   -0.1680    0.8520 o         1 POA     -0.723100
      4 O1P        -0.2930    2.7400   -0.0840 o         1 POA     -0.939167
      5 O2P        -2.0420    1.1850   -1.0960 o         1 POA     -0.939167
      6 O3P         0.2610    1.3670   -2.1640 o         1 POA     -0.939167
      7 P          -0.5830    1.5250   -0.9220 p5        1 POA      1.195700
      8 H11        -0.3450    0.1980    1.1690 hc        1 POA      0.053700
      9 H12        -0.5400   -0.7620   -0.3720 hc        1 POA      0.053700
     10 H2          1.7540    0.1170   -1.1090 h4        1 POA      0.009200
@<TRIPOS>BOND
     1    1    2 1   
     2    1    7 1   
     3    1    8 1   
     4    1    9 1   
     5    2    3 2   
     6    2   10 1   
     7    4    7 1   
     8    5    7 1   
     9    6    7 1   
@<TRIPOS>SUBSTRUCTURE
     1 POA         1 TEMP              0 ****  ****    0 ROOT
