@<TRIPOS>MOLECULE
POA
   10     9     1     0     0
SMALL
bcc


@<TRIPOS>ATOM
      1 C1          0.4250   -0.8410   -0.8360 c3        1 POA     -0.386600
      2 C2         -0.3830   -0.2650   -1.8810 c         1 POA      0.614900
      3 O2         -0.0030    0.0760   -3.0240 o         1 POA     -0.723100
      4 O1P         0.7690    1.3650    0.6830 o         1 POA     -0.939167
      5 O2P         0.4290   -0.9030    1.7960 o         1 POA     -0.939167
      6 O3P        -1.5180    0.2330    0.6150 o         1 POA     -0.939167
      7 P          -0.0210    0.0880    0.7520 p5        1 POA      1.195700
      8 H11         1.5140   -0.7930   -0.9960 hc        1 POA      0.053700
      9 H12         0.1010   -1.8630   -0.5580 hc        1 POA      0.053700
     10 H2         -1.4470   -0.0880   -1.5750 h4        1 POA      0.009200
@<TRIPOS>BOND
     1    1    2 1   
     2    1    7 1   
     3    1    8 1   
     4    1    9 1   
     5    2    3 2   
     6    2   10 1   
     7    4    7 1   
     8    5    7 1   
     9    6    7 1   
@<TRIPOS>SUBSTRUCTURE
     1 POA         1 TEMP              0 ****  ****    0 ROOT
