@<TRIPOS>MOLECULE
POA
   10     9     1     0     0
SMALL
bcc


@<TRIPOS>ATOM
      1 C1         -0.0030    0.0530    0.1170 c3        1 POA     -0.386600
      2 C2          1.4260   -0.0190   -0.0450 c         1 POA      0.614900
      3 O2          2.2780   -0.1880    0.8570 o         1 POA     -0.723100
      4 O1P        -0.3030    2.7320   -0.0440 o         1 POA     -0.939167
      5 O2P        -2.0360    1.1940   -1.1080 o         1 POA     -0.939167
      6 O3P         0.2780    1.4060   -2.1470 o         1 POA     -0.939167
      7 P          -0.5800    1.5340   -0.9100 p5        1 POA      1.195700
      8 H11        -0.3590    0.1640    1.1540 hc        1 POA      0.053700
      9 H12        -0.5360   -0.7630   -0.4090 hc        1 POA      0.053700
     10 H2          1.7630    0.1370   -1.1030 h4        1 POA      0.009200
@<TRIPOS>BOND
     1    1    2 1   
     2    1    7 1   
     3    1    8 1   
     4    1    9 1   
     5    2    3 2   
     6    2   10 1   
     7    4    7 1   
     8    5    7 1   
     9    6    7 1   
@<TRIPOS>SUBSTRUCTURE
     1 POA         1 TEMP              0 ****  ****    0 ROOT
