@<TRIPOS>MOLECULE
POB
   29    27     1     0     0
SMALL
bcc


@<TRIPOS>ATOM
      1 C1         -2.1440    0.8960    1.2890 c1        1 POB      0.323000
      2 O1         -2.8760   -0.0920    1.5580 o         1 POB     -0.617000
      3 O2         -2.6630    1.9870    0.9350 os        1 POB     -0.654000
      4 C2         -0.6400    0.7730    1.3930 c3        1 POB      0.091000
      5 C3         -0.2410    0.6750    2.8480 c3        1 POB     -0.204000
      6 C4         -0.1460    2.0640    3.4390 c3        1 POB     -0.195000
      7 O2P        -0.2160   -0.3820    0.7120 os        1 POB     -0.769000
      8 P1          0.0630   -0.2820   -0.8410 p5        1 POB      2.813000
      9 O1P        -0.1470    1.1420   -1.2990 o         1 POB     -1.229000
     10 O3P        -0.9290   -1.2370   -1.6170 os        1 POB     -1.196000
     11 P2         -1.8650   -0.7550   -2.7960 p5        1 POB      1.631500
     12 O4P        -1.7800   -1.7370   -3.9400 o         1 POB     -0.908167
     13 O5P        -1.4190    0.6080   -3.2680 o         1 POB     -0.908167
     14 O6P        -3.2910   -0.6760   -2.3060 o         1 POB     -0.908167
     15 C1'         1.7740   -0.7800   -1.1810 c3        1 POB     -0.682000
     16 N1'         2.1680   -0.2840   -2.4540 n3        1 POB     -0.327000
     17 C2'         1.8690   -2.2880   -1.1770 c3        1 POB     -0.172000
     18 H2         -0.2200    1.5600    0.9920 h1        1 POB      0.069000
     19 H31         0.6270    0.2300    2.9190 hc        1 POB      0.083000
     20 H32        -0.9130    0.1580    3.3360 hc        1 POB      0.083000
     21 H41        -1.0270    2.4940    3.4090 hc        1 POB      0.043667
     22 H42         0.1550    2.0040    4.3700 hc        1 POB      0.043667
     23 H43         0.4950    2.5960    2.9230 hc        1 POB      0.043667
     24 H1'         2.3630   -0.4140   -0.4920 h1        1 POB      0.119000
     25 HN11        2.6880   -0.9070   -2.8780 hn        1 POB      0.127500
     26 HN12        2.6460    0.4900   -2.3460 hn        1 POB      0.127500
     27 H2'1        2.8110   -2.5560   -1.2180 hc        1 POB      0.057000
     28 H2'2        1.4660   -2.6390   -0.3550 hc        1 POB      0.057000
     29 H2'3        1.3930   -2.6480   -1.9540 hc        1 POB      0.057000
@<TRIPOS>BOND
     1    1    2 1   
     2    1    4 1   
     3    4    5 1   
     4    4    7 1   
     5    4   18 1   
     6    5    6 1   
     7    5   19 1   
     8    5   20 1   
     9    6   21 1   
    10    6   22 1   
    11    6   23 1   
    12    7    8 1   
    13    8    9 1   
    14    8   10 1   
    15    8   15 1   
    16   10   11 1   
    17   11   12 1   
    18   11   13 1   
    19   11   14 1   
    20   15   16 1   
    21   15   17 1   
    22   15   24 1   
    23   16   25 1   
    24   16   26 1   
    25   17   27 1   
    26   17   28 1   
    27   17   29 1   
@<TRIPOS>SUBSTRUCTURE
     1 POB         1 TEMP              0 ****  ****    0 ROOT
