@<TRIPOS>MOLECULE
POC
   24    23     1     0     0
SMALL
bcc


@<TRIPOS>ATOM
      1 P1         -0.4720    0.0430   -0.3140 p5        1 POC      1.894000
      2 O3          0.9070    0.6490    0.3180 oh        1 POC     -0.816000
      3 O4         -1.1180   -0.5460    0.8810 o         1 POC     -0.834000
      4 O5         -1.0670    0.9460   -1.3110 o         1 POC     -0.834000
      5 O6          0.1800   -1.2340   -1.1490 os        1 POC     -0.743000
      6 C4          0.6920   -2.2870   -0.4000 c3        1 POC      0.040000
      7 C5         -0.1120   -3.5720   -0.6350 c3        1 POC     -0.173000
      8 N1          0.1640   -4.2580   -1.9610 n4        1 POC      0.235000
      9 C6          1.3860   -4.9660   -1.9770 c2        1 POC     -0.854000
     10 C7          0.1210   -3.2480   -3.0570 c3        1 POC     -0.160000
     11 C8         -0.9670   -5.2220   -2.1750 c3        1 POC     -0.160000
     12 H41         0.6330   -2.0480    0.7010 h1        1 POC      0.081000
     13 H42         1.7670   -2.4570   -0.6950 h1        1 POC      0.081000
     14 H51        -1.2080   -3.3310   -0.5700 hx        1 POC      0.098500
     15 H52         0.1560   -4.3110    0.1660 hx        1 POC      0.098500
     16 H61         2.2310   -4.5200   -2.4860 hx        1 POC      0.111500
     17 H62         1.0050    0.4180    1.2350 ho        1 POC      0.224000
     18 H63         1.5070   -5.7610   -1.2510 hx        1 POC      0.111500
     19 H71        -0.8270   -2.6550   -2.9840 hx        1 POC      0.100000
     20 H72         0.1890   -3.7760   -4.0400 hx        1 POC      0.100000
     21 H73         0.9880   -2.5450   -2.9410 hx        1 POC      0.100000
     22 H81        -0.7700   -5.7930   -3.1170 hx        1 POC      0.100000
     23 H82        -1.9390   -4.6710   -2.2520 hx        1 POC      0.100000
     24 H83        -1.0000   -5.9350   -1.3150 hx        1 POC      0.100000
@<TRIPOS>BOND
     1    1    2 1   
     2    1    3 1   
     3    1    4 1   
     4    1    5 1   
     5    2   17 1   
     6    5    6 1   
     7    6    7 1   
     8    6   12 1   
     9    6   13 1   
    10    7    8 1   
    11    7   14 1   
    12    7   15 1   
    13    8    9 1   
    14    8   10 1   
    15    8   11 1   
    16    9   16 1   
    17    9   18 1   
    18   10   19 1   
    19   10   20 1   
    20   10   21 1   
    21   11   22 1   
    22   11   23 1   
    23   11   24 1   
@<TRIPOS>SUBSTRUCTURE
     1 POC         1 TEMP              0 ****  ****    0 ROOT
