@<TRIPOS>MOLECULE
POC
   24    23     1     0     0
SMALL
bcc


@<TRIPOS>ATOM
      1 P1          1.5730    0.3390   -0.2770 p5        1 POC      1.908000
      2 O3          0.9940    1.8390   -0.0970 oh        1 POC     -0.824000
      3 O4          1.0870   -0.1930   -1.5730 o         1 POC     -0.837000
      4 O5          2.9600    0.2370    0.2030 o         1 POC     -0.837000
      5 O6          0.5700   -0.3410    0.8760 os        1 POC     -0.736000
      6 C4         -0.2860   -1.3510    0.4950 c3        1 POC      0.040000
      7 C5         -1.7540   -1.0170    0.8130 c3        1 POC     -0.132000
      8 N1         -2.4000    0.0900    0.0280 n4        1 POC      0.250000
      9 C6         -1.9840    0.0230   -1.4080 c3        1 POC     -0.209500
     10 C7         -2.1450    1.3590    0.5840 c2        1 POC     -0.856000
     11 C8         -3.8910   -0.1770    0.0520 c3        1 POC     -0.209500
     12 H41        -0.0610   -2.2680    1.1200 h1        1 POC      0.075000
     13 H42        -0.1580   -1.6120   -0.5930 h1        1 POC      0.075000
     14 H51        -1.8280   -0.7350    1.9000 hx        1 POC      0.092500
     15 H52        -2.3470   -1.9580    0.6340 hx        1 POC      0.092500
     16 H61        -0.8790    0.2660   -1.4780 hx        1 POC      0.098333
     17 H62        -2.1750   -1.0000   -1.8170 hx        1 POC      0.098333
     18 H63        -2.5650    0.7820   -1.9890 hx        1 POC      0.098333
     19 H71        -2.4000    2.2260   -0.0130 hx        1 POC      0.128500
     20 H72        -1.6120    1.4240    1.5230 hx        1 POC      0.128500
     21 H73         0.0620    1.8780    0.1160 ho        1 POC      0.261000
     22 H81        -4.1370   -1.1370   -0.4670 hx        1 POC      0.098333
     23 H82        -4.2240   -0.2160    1.1170 hx        1 POC      0.098333
     24 H83        -4.4050    0.6740   -0.4600 hx        1 POC      0.098333
@<TRIPOS>BOND
     1    1    2 1   
     2    1    3 1   
     3    1    4 1   
     4    1    5 1   
     5    2   21 1   
     6    5    6 1   
     7    6    7 1   
     8    6   12 1   
     9    6   13 1   
    10    7    8 1   
    11    7   14 1   
    12    7   15 1   
    13    8    9 1   
    14    8   10 1   
    15    8   11 1   
    16    9   16 1   
    17    9   17 1   
    18    9   18 1   
    19   10   19 1   
    20   10   20 1   
    21   11   22 1   
    22   11   23 1   
    23   11   24 1   
@<TRIPOS>SUBSTRUCTURE
     1 POC         1 TEMP              0 ****  ****    0 ROOT
