@<TRIPOS>MOLECULE
POC
   24    23     1     0     0
SMALL
bcc


@<TRIPOS>ATOM
      1 P1          0.3280   -0.1580   -0.4440 p5        1 POC      1.908000
      2 O3          0.4460   -0.0880   -2.0560 oh        1 POC     -0.824000
      3 O4          1.5170   -0.8750    0.0760 o         1 POC     -0.837000
      4 O5         -0.2030    1.0960    0.1120 o         1 POC     -0.837000
      5 O6         -0.9010   -1.2930   -0.4400 os        1 POC     -0.736000
      6 C4         -0.6880   -2.4960    0.1980 c3        1 POC      0.040000
      7 C5         -0.8950   -3.6960   -0.7430 c3        1 POC     -0.132000
      8 N1          0.1010   -3.8870   -1.8530 n4        1 POC      0.250000
      9 C6          1.4860   -3.5990   -1.3680 c3        1 POC     -0.209500
     10 C7         -0.2190   -3.1260   -2.9940 c2        1 POC     -0.856000
     11 C8          0.0720   -5.3590   -2.2090 c3        1 POC     -0.209500
     12 H41         0.3300   -2.5330    0.6810 h1        1 POC      0.075000
     13 H42        -1.4780   -2.6230    1.0000 h1        1 POC      0.075000
     14 H51        -0.8750   -4.6210   -0.0990 hx        1 POC      0.092500
     15 H52        -1.9080   -3.6010   -1.2220 hx        1 POC      0.092500
     16 H61         1.7050   -4.1980   -0.4490 hx        1 POC      0.098333
     17 H62         2.2140   -3.8590   -2.1750 hx        1 POC      0.098333
     18 H63         1.5670   -2.4930   -1.1340 hx        1 POC      0.098333
     19 H71         0.5350   -3.0450   -3.7670 hx        1 POC      0.128500
     20 H72        -1.1450   -2.5670   -3.0110 hx        1 POC      0.128500
     21 H73         0.2700   -0.9180   -2.5000 ho        1 POC      0.261000
     22 H81        -0.9720   -5.6310   -2.5000 hx        1 POC      0.098333
     23 H82         0.7470   -5.5180   -3.0860 hx        1 POC      0.098333
     24 H83         0.4110   -5.9890   -1.3490 hx        1 POC      0.098333
@<TRIPOS>BOND
     1    1    2 1   
     2    1    3 1   
     3    1    4 1   
     4    1    5 1   
     5    2   21 1   
     6    5    6 1   
     7    6    7 1   
     8    6   12 1   
     9    6   13 1   
    10    7    8 1   
    11    7   14 1   
    12    7   15 1   
    13    8    9 1   
    14    8   10 1   
    15    8   11 1   
    16    9   16 1   
    17    9   17 1   
    18    9   18 1   
    19   10   19 1   
    20   10   20 1   
    21   11   22 1   
    22   11   23 1   
    23   11   24 1   
@<TRIPOS>SUBSTRUCTURE
     1 POC         1 TEMP              0 ****  ****    0 ROOT
