@<TRIPOS>MOLECULE
POC
   24    23     1     0     0
SMALL
bcc


@<TRIPOS>ATOM
      1 P1         -0.4910   -0.1200   -0.1690 p5        1 POC      1.901000
      2 O3          0.9760    0.3100    0.4040 oh        1 POC     -0.816000
      3 O4         -1.5600    0.7330    0.3700 o         1 POC     -0.839000
      4 O5         -0.1920   -0.4090   -1.5930 o         1 POC     -0.839000
      5 O6         -0.6190   -1.6130    0.5420 os        1 POC     -0.738000
      6 C4          0.2870   -2.5870    0.1360 c3        1 POC      0.058000
      7 C5         -0.4550   -3.6900   -0.6440 c3        1 POC     -0.135000
      8 N1          0.1940   -4.1170   -1.9380 n4        1 POC      0.243000
      9 C6          1.4400   -4.7340   -1.7270 c2        1 POC     -0.863000
     10 C7          0.3070   -2.9540   -2.8670 c3        1 POC     -0.184000
     11 C8         -0.7720   -5.0930   -2.5750 c3        1 POC     -0.184000
     12 H41         1.1160   -2.1290   -0.4690 h1        1 POC      0.075500
     13 H42         0.7310   -3.0570    1.0590 h1        1 POC      0.075500
     14 H51        -0.5200   -4.6070    0.0020 hx        1 POC      0.095000
     15 H52        -1.5000   -3.3380   -0.8740 hx        1 POC      0.095000
     16 H61         1.5570   -5.3660   -0.8570 hx        1 POC      0.116500
     17 H62         2.2490   -4.5160   -2.4100 hx        1 POC      0.116500
     18 H63         1.6600    0.1960   -0.2470 ho        1 POC      0.225000
     19 H71         0.5830   -3.3280   -3.8850 hx        1 POC      0.099833
     20 H72        -0.6600   -2.3880   -2.9000 hx        1 POC      0.099833
     21 H73         1.1010   -2.2520   -2.4990 hx        1 POC      0.099833
     22 H81        -1.7510   -4.5970   -2.7940 hx        1 POC      0.099833
     23 H82        -0.3120   -5.4710   -3.5210 hx        1 POC      0.099833
     24 H83        -0.9240   -5.9520   -1.8770 hx        1 POC      0.099833
@<TRIPOS>BOND
     1    1    2 1   
     2    1    3 1   
     3    1    4 1   
     4    1    5 1   
     5    2   18 1   
     6    5    6 1   
     7    6    7 1   
     8    6   12 1   
     9    6   13 1   
    10    7    8 1   
    11    7   14 1   
    12    7   15 1   
    13    8    9 1   
    14    8   10 1   
    15    8   11 1   
    16    9   16 1   
    17    9   17 1   
    18   10   19 1   
    19   10   20 1   
    20   10   21 1   
    21   11   22 1   
    22   11   23 1   
    23   11   24 1   
@<TRIPOS>SUBSTRUCTURE
     1 POC         1 TEMP              0 ****  ****    0 ROOT
