@<TRIPOS>MOLECULE
POD
   52    56     1     0     0
SMALL
bcc


@<TRIPOS>ATOM
      1 O5         -0.1380    0.4630   -0.0920 o         1 POD     -0.569500
      2 C13         1.0780    0.3660   -0.1900 c         1 POD      0.731600
      3 O4          1.8100    0.5910    0.9650 os        1 POD     -0.413900
      4 C10         2.0100    0.1130   -1.3460 c3        1 POD     -0.155700
      5 C9          3.3020   -0.3250   -0.6410 c3        1 POD     -0.105700
      6 C12         3.2240    0.4020    0.7020 c3        1 POD      0.135400
      7 C11         1.6770   -0.8780   -2.4470 c3        1 POD      0.053900
      8 C5          2.8730   -0.9280   -3.3670 ca        1 POD     -0.060300
      9 C6          4.1550   -0.5160   -2.9710 ca        1 POD     -0.118300
     10 C8          4.4730   -0.0420   -1.5670 c3        1 POD      0.211400
     11 O3          5.5890   -0.7180   -1.0040 oh        1 POD     -0.591800
     12 C7          5.2290   -0.4930   -3.8930 ca        1 POD     -0.120000
     13 C2          4.9670   -0.9190   -5.1750 ca        1 POD      0.062100
     14 C3          3.6740   -1.3550   -5.5690 ca        1 POD      0.064100
     15 C4          2.6160   -1.3620   -4.6900 ca        1 POD     -0.104000
     16 O2          5.8310   -1.0000   -6.2610 os        1 POD     -0.331900
     17 C1          5.0560   -1.5070   -7.3730 c3        1 POD      0.320200
     18 O1          3.7020   -1.7220   -6.9090 os        1 POD     -0.327900
     19 C14         1.2660   -2.2240   -1.9290 ca        1 POD     -0.039300
     20 C15        -0.0410   -2.3730   -1.4530 ca        1 POD     -0.220500
     21 C16        -0.4700   -3.6130   -0.9660 ca        1 POD      0.140600
     22 O6         -1.7270   -3.8500   -0.4540 os        1 POD     -0.311400
     23 C20        -2.6060   -2.7290   -0.4030 c3        1 POD      0.109200
     24 C17         0.3970   -4.7270   -0.9820 ca        1 POD      0.045100
     25 O7         -0.0940   -5.9740   -0.6450 os        1 POD     -0.309900
     26 C21         0.3830   -6.4590    0.6120 c3        1 POD      0.115700
     27 C18         1.7160   -4.5520   -1.4490 ca        1 POD      0.140600
     28 C19         2.1490   -3.3050   -1.9180 ca        1 POD     -0.220500
     29 O8          2.5210   -5.6720   -1.3790 os        1 POD     -0.311400
     30 C22         3.8100   -5.5590   -1.9710 c3        1 POD      0.109200
     31 H10         2.1630    1.1220   -1.8330 hc        1 POD      0.091700
     32 H9          3.2760   -1.4360   -0.4480 hc        1 POD      0.103700
     33 H121        3.6190   -0.2040    1.5530 h1        1 POD      0.071200
     34 H122        3.7000    1.4130    0.6770 h1        1 POD      0.071200
     35 H11         0.8040   -0.4640   -3.0370 hc        1 POD      0.082700
     36 H8          4.6950    1.0650   -1.6050 h1        1 POD      0.048700
     37 HO3         6.3280   -0.6280   -1.6170 ho        1 POD      0.408000
     38 H7          6.2270   -0.1380   -3.6060 ha        1 POD      0.150000
     39 H4          1.6120   -1.6920   -4.9910 ha        1 POD      0.167000
     40 H11A        5.4850   -2.4900   -7.6880 h2        1 POD      0.077700
     41 H12         5.0380   -0.7320   -8.1780 h2        1 POD      0.077700
     42 H15        -0.7150   -1.5020   -1.4410 ha        1 POD      0.154000
     43 H201       -2.1690   -1.9090    0.2190 h1        1 POD      0.048367
     44 H202       -2.8330   -2.3630   -1.4330 h1        1 POD      0.048367
     45 H203       -3.5250   -3.1480    0.0800 h1        1 POD      0.048367
     46 H211        1.4960   -6.5510    0.5950 h1        1 POD      0.041700
     47 H212       -0.1010   -7.4630    0.7050 h1        1 POD      0.041700
     48 H213        0.0560   -5.7820    1.4380 h1        1 POD      0.041700
     49 H19         3.1770   -3.1730   -2.2840 ha        1 POD      0.154000
     50 H221        4.2340   -6.5890   -1.8610 h1        1 POD      0.048367
     51 H222        3.7300   -5.2780   -3.0490 h1        1 POD      0.048367
     52 H223        4.4330   -4.8150   -1.4160 h1        1 POD      0.048367
@<TRIPOS>BOND
     1    1    2 2   
     2    2    3 1   
     3    2    4 1   
     4    3    6 1   
     5    4    5 1   
     6    4    7 1   
     7    4   31 1   
     8    5    6 1   
     9    5   10 1   
    10    5   32 1   
    11    6   33 1   
    12    6   34 1   
    13    7    8 1   
    14    7   19 1   
    15    7   35 1   
    16    8    9 ar  
    17    8   15 ar  
    18    9   10 1   
    19    9   12 ar  
    20   10   11 1   
    21   10   36 1   
    22   11   37 1   
    23   12   13 ar  
    24   12   38 1   
    25   13   14 ar  
    26   13   16 1   
    27   14   15 ar  
    28   14   18 1   
    29   15   39 1   
    30   16   17 1   
    31   17   18 1   
    32   17   40 1   
    33   17   41 1   
    34   19   20 ar  
    35   19   28 ar  
    36   20   21 ar  
    37   20   42 1   
    38   21   22 1   
    39   21   24 ar  
    40   22   23 1   
    41   23   43 1   
    42   23   44 1   
    43   23   45 1   
    44   24   25 1   
    45   24   27 ar  
    46   25   26 1   
    47   26   46 1   
    48   26   47 1   
    49   26   48 1   
    50   27   28 ar  
    51   27   29 1   
    52   28   49 1   
    53   29   30 1   
    54   30   50 1   
    55   30   51 1   
    56   30   52 1   
@<TRIPOS>SUBSTRUCTURE
     1 POD         1 TEMP              0 ****  ****    0 ROOT
