@<TRIPOS>MOLECULE
POD
   52    56     1     0     0
SMALL
bcc


@<TRIPOS>ATOM
      1 O5         -2.8340   -2.0750    2.0100 o         1 POD     -0.570500
      2 C13        -2.9090   -1.1900    1.1680 c         1 POD      0.731600
      3 O4         -3.8890   -0.2310    1.3680 os        1 POD     -0.413900
      4 C10        -2.1930   -0.9270   -0.1310 c3        1 POD     -0.155700
      5 C9         -2.4810    0.5610   -0.3730 c3        1 POD     -0.105700
      6 C12        -3.8290    0.7680    0.3170 c3        1 POD      0.135400
      7 C11        -0.7060   -1.1870   -0.2960 c3        1 POD      0.053900
      8 C5         -0.3320   -0.7230   -1.6830 ca        1 POD     -0.060300
      9 C6         -1.1110    0.1860   -2.4170 ca        1 POD     -0.118300
     10 C8         -2.3640    0.8340   -1.8640 c3        1 POD      0.211400
     11 O3         -2.3520    2.2490   -2.0010 oh        1 POD     -0.591800
     12 C7         -0.7730    0.5220   -3.7500 ca        1 POD     -0.120000
     13 C2          0.3600   -0.0510   -4.2760 ca        1 POD      0.062100
     14 C3          1.1590   -0.9540   -3.5250 ca        1 POD      0.064100
     15 C4          0.8320   -1.3090   -2.2370 ca        1 POD     -0.104000
     16 O2          0.9120    0.1090   -5.5420 os        1 POD     -0.331900
     17 C1          2.1010   -0.7180   -5.5860 c3        1 POD      0.320200
     18 O1          2.2310   -1.3760   -4.3030 os        1 POD     -0.327900
     19 C14         0.1270   -0.5660    0.7860 ca        1 POD     -0.040300
     20 C15         0.1880   -1.2170    2.0220 ca        1 POD     -0.219500
     21 C16         0.9630   -0.6810    3.0570 ca        1 POD      0.139100
     22 O6          1.0640   -1.2400    4.3130 os        1 POD     -0.311900
     23 C20         0.2810   -2.4090    4.5460 c3        1 POD      0.108700
     24 C17         1.7000    0.5070    2.8590 ca        1 POD      0.046100
     25 O7          2.5880    0.9810    3.8040 os        1 POD     -0.309900
     26 C21         1.9580    1.5580    4.9500 c3        1 POD      0.114700
     27 C18         1.6070    1.1610    1.6120 ca        1 POD      0.139100
     28 C19         0.8270    0.6240    0.5800 ca        1 POD     -0.219500
     29 O8          2.3150    2.3410    1.5140 os        1 POD     -0.311900
     30 C22         2.3700    2.9340    0.2200 c3        1 POD      0.108700
     31 H10        -2.7330   -1.5530   -0.9020 hc        1 POD      0.091700
     32 H9         -1.7090    1.1920    0.1540 hc        1 POD      0.103700
     33 H121       -3.9140    1.7580    0.8260 h1        1 POD      0.071200
     34 H122       -4.6980    0.5920   -0.3640 h1        1 POD      0.071200
     35 H11        -0.5390   -2.3050   -0.2480 hc        1 POD      0.082700
     36 H8         -3.2560    0.4190   -2.4180 h1        1 POD      0.048700
     37 HO3        -2.1860    2.4540   -2.9290 ho        1 POD      0.408000
     38 H7         -1.3940    1.2030   -4.3470 ha        1 POD      0.151000
     39 H4          1.4420   -2.0120   -1.6540 ha        1 POD      0.167000
     40 H11A        1.9620   -1.4980   -6.3740 h2        1 POD      0.077700
     41 H12         2.9890   -0.0570   -5.7400 h2        1 POD      0.077700
     42 H15        -0.3930   -2.1400    2.1760 ha        1 POD      0.154500
     43 H201        0.4840   -2.6410    5.6230 h1        1 POD      0.048533
     44 H202       -0.8040   -2.2010    4.3820 h1        1 POD      0.048533
     45 H203        0.6260   -3.2450    3.8920 h1        1 POD      0.048533
     46 H211        2.8200    1.8630    5.5950 h1        1 POD      0.042367
     47 H212        1.3510    2.4460    4.6520 h1        1 POD      0.042367
     48 H213        1.3210    0.8000    5.4670 h1        1 POD      0.042367
     49 H19         0.7640    1.1330   -0.3930 ha        1 POD      0.154500
     50 H221        3.0500    3.8110    0.3700 h1        1 POD      0.048533
     51 H222        2.8000    2.2230   -0.5270 h1        1 POD      0.048533
     52 H223        1.3550    3.2730   -0.0990 h1        1 POD      0.048533
@<TRIPOS>BOND
     1    1    2 2   
     2    2    3 1   
     3    2    4 1   
     4    3    6 1   
     5    4    5 1   
     6    4    7 1   
     7    4   31 1   
     8    5    6 1   
     9    5   10 1   
    10    5   32 1   
    11    6   33 1   
    12    6   34 1   
    13    7    8 1   
    14    7   19 1   
    15    7   35 1   
    16    8    9 ar  
    17    8   15 ar  
    18    9   10 1   
    19    9   12 ar  
    20   10   11 1   
    21   10   36 1   
    22   11   37 1   
    23   12   13 ar  
    24   12   38 1   
    25   13   14 ar  
    26   13   16 1   
    27   14   15 ar  
    28   14   18 1   
    29   15   39 1   
    30   16   17 1   
    31   17   18 1   
    32   17   40 1   
    33   17   41 1   
    34   19   20 ar  
    35   19   28 ar  
    36   20   21 ar  
    37   20   42 1   
    38   21   22 1   
    39   21   24 ar  
    40   22   23 1   
    41   23   43 1   
    42   23   44 1   
    43   23   45 1   
    44   24   25 1   
    45   24   27 ar  
    46   25   26 1   
    47   26   46 1   
    48   26   47 1   
    49   26   48 1   
    50   27   28 ar  
    51   27   29 1   
    52   28   49 1   
    53   29   30 1   
    54   30   50 1   
    55   30   51 1   
    56   30   52 1   
@<TRIPOS>SUBSTRUCTURE
     1 POD         1 TEMP              0 ****  ****    0 ROOT
