@<TRIPOS>MOLECULE
POD
   52    56     1     0     0
SMALL
bcc


@<TRIPOS>ATOM
      1 O5         -0.1420    0.4530   -0.1110 o         1 POD     -0.569500
      2 C13         1.0750    0.3570   -0.2040 c         1 POD      0.731600
      3 O4          1.8020    0.5880    0.9520 os        1 POD     -0.413900
      4 C10         2.0110    0.0970   -1.3550 c3        1 POD     -0.155700
      5 C9          3.3000   -0.3370   -0.6440 c3        1 POD     -0.105700
      6 C12         3.2180    0.3990    0.6950 c3        1 POD      0.135400
      7 C11         1.6810   -0.9010   -2.4510 c3        1 POD      0.053900
      8 C5          2.8800   -0.9560   -3.3680 ca        1 POD     -0.060300
      9 C6          4.1610   -0.5420   -2.9700 ca        1 POD     -0.118300
     10 C8          4.4740   -0.0590   -1.5680 c3        1 POD      0.211400
     11 O3          5.5890   -0.7310   -0.9970 oh        1 POD     -0.591800
     12 C7          5.2370   -0.5240   -3.8890 ca        1 POD     -0.120000
     13 C2          4.9800   -0.9580   -5.1680 ca        1 POD      0.062100
     14 C3          3.6890   -1.3970   -5.5640 ca        1 POD      0.064100
     15 C4          2.6270   -1.3990   -4.6880 ca        1 POD     -0.104000
     16 O2          5.8480   -1.0460   -6.2510 os        1 POD     -0.331900
     17 C1          5.0760   -1.5600   -7.3630 c3        1 POD      0.320200
     18 O1          3.7210   -1.7730   -6.9010 os        1 POD     -0.327900
     19 C14         1.2680   -2.2440   -1.9260 ca        1 POD     -0.039300
     20 C15        -0.0400   -2.3900   -1.4540 ca        1 POD     -0.220500
     21 C16        -0.4710   -3.6270   -0.9610 ca        1 POD      0.140600
     22 O6         -1.7290   -3.8620   -0.4520 os        1 POD     -0.311400
     23 C20        -2.6070   -2.7400   -0.4090 c3        1 POD      0.109200
     24 C17         0.3970   -4.7420   -0.9670 ca        1 POD      0.045100
     25 O7         -0.0950   -5.9870   -0.6250 os        1 POD     -0.309900
     26 C21         0.3780   -6.4640    0.6370 c3        1 POD      0.115700
     27 C18         1.7180   -4.5690   -1.4310 ca        1 POD      0.140600
     28 C19         2.1520   -3.3240   -1.9060 ca        1 POD     -0.220500
     29 O8          2.5220   -5.6880   -1.3520 os        1 POD     -0.311400
     30 C22         3.8140   -5.5790   -1.9400 c3        1 POD      0.109200
     31 H10         2.1640    1.1030   -1.8480 hc        1 POD      0.091700
     32 H9          3.2740   -1.4460   -0.4440 hc        1 POD      0.103700
     33 H121        3.6100   -0.2030    1.5510 h1        1 POD      0.071200
     34 H122        3.6930    1.4100    0.6650 h1        1 POD      0.071200
     35 H11         0.8090   -0.4900   -3.0460 hc        1 POD      0.082700
     36 H8          4.6960    1.0480   -1.6120 h1        1 POD      0.048700
     37 HO3         6.3290   -0.6440   -1.6080 ho        1 POD      0.408000
     38 H7          6.2350   -0.1670   -3.6000 ha        1 POD      0.150000
     39 H4          1.6240   -1.7310   -4.9910 ha        1 POD      0.167000
     40 H11A        5.0610   -0.7900   -8.1720 h2        1 POD      0.077700
     41 H12         5.5070   -2.5450   -7.6700 h2        1 POD      0.077700
     42 H15        -0.7140   -1.5190   -1.4490 ha        1 POD      0.154000
     43 H201       -3.5280   -3.1570    0.0730 h1        1 POD      0.048367
     44 H202       -2.8320   -2.3800   -1.4420 h1        1 POD      0.048367
     45 H203       -2.1730   -1.9170    0.2090 h1        1 POD      0.048367
     46 H211       -0.1060   -7.4670    0.7340 h1        1 POD      0.041700
     47 H212        0.0480   -5.7820    1.4570 h1        1 POD      0.041700
     48 H213        1.4910   -6.5560    0.6240 h1        1 POD      0.041700
     49 H19         3.1810   -3.1950   -2.2700 ha        1 POD      0.154000
     50 H221        3.7370   -5.3040   -3.0200 h1        1 POD      0.048367
     51 H222        4.4340   -4.8320   -1.3880 h1        1 POD      0.048367
     52 H223        4.2370   -6.6080   -1.8230 h1        1 POD      0.048367
@<TRIPOS>BOND
     1    1    2 2   
     2    2    3 1   
     3    2    4 1   
     4    3    6 1   
     5    4    5 1   
     6    4    7 1   
     7    4   31 1   
     8    5    6 1   
     9    5   10 1   
    10    5   32 1   
    11    6   33 1   
    12    6   34 1   
    13    7    8 1   
    14    7   19 1   
    15    7   35 1   
    16    8    9 ar  
    17    8   15 ar  
    18    9   10 1   
    19    9   12 ar  
    20   10   11 1   
    21   10   36 1   
    22   11   37 1   
    23   12   13 ar  
    24   12   38 1   
    25   13   14 ar  
    26   13   16 1   
    27   14   15 ar  
    28   14   18 1   
    29   15   39 1   
    30   16   17 1   
    31   17   18 1   
    32   17   40 1   
    33   17   41 1   
    34   19   20 ar  
    35   19   28 ar  
    36   20   21 ar  
    37   20   42 1   
    38   21   22 1   
    39   21   24 ar  
    40   22   23 1   
    41   23   43 1   
    42   23   44 1   
    43   23   45 1   
    44   24   25 1   
    45   24   27 ar  
    46   25   26 1   
    47   26   46 1   
    48   26   47 1   
    49   26   48 1   
    50   27   28 ar  
    51   27   29 1   
    52   28   49 1   
    53   29   30 1   
    54   30   50 1   
    55   30   51 1   
    56   30   52 1   
@<TRIPOS>SUBSTRUCTURE
     1 POD         1 TEMP              0 ****  ****    0 ROOT
