@<TRIPOS>MOLECULE
POF
   61    65     1     0     0
SMALL
bcc


@<TRIPOS>ATOM
      1 O1          0.4640   -0.9510   -0.0920 o         1 POF     -0.544300
      2 O3          2.0510   -0.0130    1.5900 os        1 POF     -0.411800
      3 O4         -6.5910    3.4740    7.8700 o         1 POF     -0.594500
      4 O2          2.8840   -1.1770   -0.3870 o         1 POF     -0.544300
      5 C1          1.1550    0.7980    2.2640 ca        1 POF      0.028100
      6 C2          0.0160    0.2440    2.8560 ca        1 POF     -0.108000
      7 N1          1.8060    1.1040   -0.7970 n4        1 POF     -0.807500
      8 C3         -0.8130    1.0590    3.6380 ca        1 POF     -0.042300
      9 C4         -0.5000    2.4210    3.8170 ca        1 POF     -0.010300
     10 C5          0.6670    2.9370    3.2280 ca        1 POF     -0.108000
     11 S1          1.7600   -0.5600    0.0750 s6        1 POF      1.565400
     12 C6          1.5010    2.1460    2.4480 ca        1 POF     -0.148000
     13 C7         -2.0110    0.4300    4.2580 c3        1 POF     -0.047100
     14 C8         -2.6250    1.2700    5.3570 c3        1 POF     -0.083400
     15 C9         -2.7470    2.7150    4.9100 c3        1 POF     -0.052700
     16 C10        -1.3450    3.2990    4.6860 c3        1 POF     -0.035400
     17 C11        -3.4880    3.5790    5.9310 c3        1 POF     -0.055700
     18 C12        -3.6450    5.0160    5.4180 c3        1 POF     -0.111000
     19 C13        -2.2620    5.5920    5.1140 c3        1 POF     -0.071400
     20 C14        -1.4680    4.7240    4.1610 c3        1 POF     -0.071400
     21 C15        -4.5460    5.1360    4.1970 c3        1 POF     -0.093100
     22 C16        -4.8400    3.0110    6.3080 c3        1 POF     -0.153400
     23 C17        -5.6410    3.9270    7.2110 c         1 POF      0.704500
     24 N2         -5.3090    5.2900    7.2950 n         1 POF     -0.495400
     25 C18        -4.2890    5.8660    6.5250 c         1 POF      0.705500
     26 O5         -3.9520    7.0470    6.7040 o         1 POF     -0.599500
     27 C19        -5.9960    6.1160    8.2810 c3        1 POF      0.134300
     28 C20        -5.3650    6.1040    9.6380 ca        1 POF     -0.243600
     29 C21        -4.4520    7.0920   10.0210 ca        1 POF     -0.072000
     30 C22        -3.9250    7.0580   11.3120 ca        1 POF     -0.253300
     31 C23        -4.3290    6.0220   12.1750 ca        1 POF      0.403200
     32 N3         -5.1980    5.0550   11.8200 nb        1 POF     -0.665000
     33 C24        -5.7030    5.1030   10.5740 ca        1 POF      0.412200
     34 H2         -0.2280   -0.8220    2.7190 ha        1 POF      0.166000
     35 HN1         1.8730    1.8730   -0.1280 hn        1 POF      0.469467
     36 HN1A        0.9660    1.2590   -1.3560 hn        1 POF      0.469467
     37 H5          0.9530    3.9880    3.4000 ha        1 POF      0.165000
     38 H6          2.4420    2.5470    2.0440 ha        1 POF      0.146000
     39 H7         -2.7740    0.2560    3.4490 hc        1 POF      0.070200
     40 H7A        -1.7350   -0.5770    4.6730 hc        1 POF      0.070200
     41 H8         -3.6360    0.8480    5.5990 hc        1 POF      0.064700
     42 H8A        -2.0020    1.2090    6.2870 hc        1 POF      0.064700
     43 H9         -3.3130    2.7390    3.9370 hc        1 POF      0.061700
     44 H10        -0.8210    3.3410    5.6900 hc        1 POF      0.084700
     45 H11        -2.8560    3.6190    6.8660 hc        1 POF      0.069700
     46 H13        -1.6980    5.7080    6.0780 hc        1 POF      0.070700
     47 H13A       -2.3820    6.6200    4.6780 hc        1 POF      0.070700
     48 H14        -0.4540    5.1870    4.0430 hc        1 POF      0.046700
     49 H14A       -1.9550    4.7120    3.1510 hc        1 POF      0.046700
     50 H15        -4.6390    6.2110    3.9040 hc        1 POF      0.051033
     51 H15A       -4.1200    4.5710    3.3340 hc        1 POF      0.051033
     52 H15B       -5.5670    4.7390    4.4120 hc        1 POF      0.051033
     53 H16        -5.4580    2.8000    5.3950 hc        1 POF      0.087200
     54 H16A       -4.7160    2.0440    6.8670 hc        1 POF      0.087200
     55 H19        -6.0160    7.1750    7.8890 h1        1 POF      0.086200
     56 H19A       -7.0590    5.7400    8.3630 h1        1 POF      0.086200
     57 H21        -4.1560    7.8770    9.3070 ha        1 POF      0.153000
     58 H22        -3.2130    7.8210   11.6540 ha        1 POF      0.147000
     59 H23        -3.9380    5.9600   13.2070 h4        1 POF      0.026100
     60 H24        -6.4150    4.3000   10.3000 h4        1 POF      0.040100
     61 H131        2.6110    1.1710   -1.4220 hn        1 POF      0.469467
@<TRIPOS>BOND
     1    1   11 2   
     2    2    5 1   
     3    2   11 1   
     4    3   23 2   
     5    4   11 2   
     6    5    6 ar  
     7    5   12 ar  
     8    6    8 ar  
     9    6   34 1   
    10    7   11 1   
    11    7   35 1   
    12    7   36 1   
    13    7   61 1   
    14    8    9 ar  
    15    8   13 1   
    16    9   10 ar  
    17    9   16 1   
    18   10   12 ar  
    19   10   37 1   
    20   12   38 1   
    21   13   14 1   
    22   13   39 1   
    23   13   40 1   
    24   14   15 1   
    25   14   41 1   
    26   14   42 1   
    27   15   16 1   
    28   15   17 1   
    29   15   43 1   
    30   16   20 1   
    31   16   44 1   
    32   17   18 1   
    33   17   22 1   
    34   17   45 1   
    35   18   19 1   
    36   18   21 1   
    37   18   25 1   
    38   19   20 1   
    39   19   46 1   
    40   19   47 1   
    41   20   48 1   
    42   20   49 1   
    43   21   50 1   
    44   21   51 1   
    45   21   52 1   
    46   22   23 1   
    47   22   53 1   
    48   22   54 1   
    49   23   24 1   
    50   24   25 1   
    51   24   27 1   
    52   25   26 2   
    53   27   28 1   
    54   27   55 1   
    55   27   56 1   
    56   28   29 ar  
    57   28   33 ar  
    58   29   30 ar  
    59   29   57 1   
    60   30   31 ar  
    61   30   58 1   
    62   31   32 ar  
    63   31   59 1   
    64   32   33 ar  
    65   33   60 1   
@<TRIPOS>SUBSTRUCTURE
     1 POF         1 TEMP              0 ****  ****    0 ROOT
