@<TRIPOS>MOLECULE
POF
   60    64     1     0     0
SMALL
bcc


@<TRIPOS>ATOM
      1 O1          6.9580    1.7280   -0.1850 o         1 POF     -0.641300
      2 O3          6.2630   -0.3320   -1.3060 os        1 POF     -0.479800
      3 O4         -4.3400    2.5000    1.1030 o         1 POF     -0.611500
      4 O2          8.5890    0.1450   -1.0210 o         1 POF     -0.641300
      5 C1          4.9300   -0.3980   -1.0130 ca        1 POF      0.147100
      6 C2          4.1680    0.7630   -0.8400 ca        1 POF     -0.179000
      7 N1          7.3530   -0.3560    1.0510 n3        1 POF     -1.040700
      8 C3          2.7900    0.6630   -0.6150 ca        1 POF     -0.049300
      9 C4          2.1700   -0.5970   -0.5590 ca        1 POF     -0.083300
     10 C5          2.9510   -1.7440   -0.7600 ca        1 POF     -0.112000
     11 S1          7.4270    0.4290   -0.3220 s6        1 POF      1.716400
     12 C6          4.3210   -1.6630   -0.9790 ca        1 POF     -0.149000
     13 C7          2.0320    1.9320   -0.4360 c3        1 POF     -0.038100
     14 C8          0.5320    1.7560   -0.5380 c3        1 POF     -0.077400
     15 C9          0.0900    0.5440    0.2640 c3        1 POF     -0.052700
     16 C10         0.6910   -0.7220   -0.3640 c3        1 POF     -0.013400
     17 C11        -1.4310    0.4090    0.3210 c3        1 POF     -0.055700
     18 C12        -1.8400   -0.7930    1.1830 c3        1 POF     -0.106000
     19 C13        -1.2020   -2.0580    0.6080 c3        1 POF     -0.069400
     20 C14         0.3000   -1.9360    0.4690 c3        1 POF     -0.073400
     21 C15        -1.4750   -0.6410    2.6530 c3        1 POF     -0.093100
     22 C16        -2.1120    1.6660    0.8200 c3        1 POF     -0.151400
     23 C17        -3.6020    1.5020    1.0260 c         1 POF      0.706500
     24 N2         -4.1540    0.2140    1.1390 n         1 POF     -0.499400
     25 C18        -3.3650   -0.9480    1.1230 c         1 POF      0.706500
     26 O5         -3.9070   -2.0670    1.1110 o         1 POF     -0.610500
     27 C19        -5.6030    0.0780    1.1980 c3        1 POF      0.134300
     28 C20        -6.2680   -0.0120   -0.1400 ca        1 POF     -0.235600
     29 C21        -6.4700   -1.2480   -0.7640 ca        1 POF     -0.073000
     30 C22        -7.1330   -1.2810   -1.9920 ca        1 POF     -0.254300
     31 C23        -7.5650   -0.0670   -2.5550 ca        1 POF      0.399200
     32 N3         -7.3680    1.1340   -1.9750 nb        1 POF     -0.669000
     33 C24        -6.7290    1.1520   -0.7910 ca        1 POF      0.412200
     34 H2          4.6540    1.7520   -0.8850 ha        1 POF      0.168000
     35 HN1         6.7850   -0.0850    1.8170 hn        1 POF      0.459300
     36 HN1A        7.8570   -1.1880    1.2380 hn        1 POF      0.459300
     37 H5          2.4830   -2.7400   -0.7580 ha        1 POF      0.136000
     38 H6          4.9240   -2.5650   -1.1510 ha        1 POF      0.147000
     39 H7          2.2900    2.3570    0.5740 hc        1 POF      0.057700
     40 H7A         2.3690    2.6810   -1.2030 hc        1 POF      0.057700
     41 H8          0.0390    2.6860   -0.1520 hc        1 POF      0.049200
     42 H8A         0.2290    1.6310   -1.6110 hc        1 POF      0.049200
     43 H9          0.4850    0.6530    1.3120 hc        1 POF      0.058700
     44 H10         0.2380   -0.8460   -1.3940 hc        1 POF      0.063700
     45 H11        -1.7940    0.2100   -0.7300 hc        1 POF      0.065700
     46 H13        -1.4520   -2.9260    1.2720 hc        1 POF      0.061200
     47 H13A       -1.6570   -2.2660   -0.3970 hc        1 POF      0.061200
     48 H14         0.6730   -2.8750   -0.0190 hc        1 POF      0.048700
     49 H14A        0.7820   -1.8690    1.4790 hc        1 POF      0.048700
     50 H15        -1.9450    0.2720    3.0900 hc        1 POF      0.049700
     51 H15A       -1.8340   -1.5330    3.2230 hc        1 POF      0.049700
     52 H15B       -0.3680   -0.5660    2.7770 hc        1 POF      0.049700
     53 H16        -1.6640    2.0050    1.7910 hc        1 POF      0.087200
     54 H16A       -1.9830    2.4990    0.0760 hc        1 POF      0.087200
     55 H19        -5.8380   -0.8540    1.7900 h1        1 POF      0.081700
     56 H19A       -6.0110    0.9720    1.7550 h1        1 POF      0.081700
     57 H21        -6.1010   -2.1710   -0.2900 ha        1 POF      0.156000
     58 H22        -7.3140   -2.2310   -2.5110 ha        1 POF      0.144000
     59 H23        -8.0950   -0.0490   -3.5240 h4        1 POF      0.021100
     60 H24        -6.5650    2.1480   -0.3350 h4        1 POF      0.039100
@<TRIPOS>BOND
     1    1   11 2   
     2    2    5 1   
     3    2   11 1   
     4    3   23 2   
     5    4   11 2   
     6    5    6 ar  
     7    5   12 ar  
     8    6    8 ar  
     9    6   34 1   
    10    7   11 1   
    11    7   35 1   
    12    7   36 1   
    13    8    9 ar  
    14    8   13 1   
    15    9   10 ar  
    16    9   16 1   
    17   10   12 ar  
    18   10   37 1   
    19   12   38 1   
    20   13   14 1   
    21   13   39 1   
    22   13   40 1   
    23   14   15 1   
    24   14   41 1   
    25   14   42 1   
    26   15   16 1   
    27   15   17 1   
    28   15   43 1   
    29   16   20 1   
    30   16   44 1   
    31   17   18 1   
    32   17   22 1   
    33   17   45 1   
    34   18   19 1   
    35   18   21 1   
    36   18   25 1   
    37   19   20 1   
    38   19   46 1   
    39   19   47 1   
    40   20   48 1   
    41   20   49 1   
    42   21   50 1   
    43   21   51 1   
    44   21   52 1   
    45   22   23 1   
    46   22   53 1   
    47   22   54 1   
    48   23   24 1   
    49   24   25 1   
    50   24   27 1   
    51   25   26 2   
    52   27   28 1   
    53   27   55 1   
    54   27   56 1   
    55   28   29 ar  
    56   28   33 ar  
    57   29   30 ar  
    58   29   57 1   
    59   30   31 ar  
    60   30   58 1   
    61   31   32 ar  
    62   31   59 1   
    63   32   33 ar  
    64   33   60 1   
@<TRIPOS>SUBSTRUCTURE
     1 POF         1 TEMP              0 ****  ****    0 ROOT
