@<TRIPOS>MOLECULE
POF
   61    65     1     0     0
SMALL
bcc


@<TRIPOS>ATOM
      1 O1          0.4520   -0.9490   -0.1110 o         1 POF     -0.544300
      2 O3          2.0410   -0.0110    1.5690 os        1 POF     -0.411800
      3 O4         -6.5890    3.4760    7.8640 o         1 POF     -0.594500
      4 O2          2.8710   -1.1750   -0.4090 o         1 POF     -0.544300
      5 C1          1.1460    0.7990    2.2440 ca        1 POF      0.028100
      6 C2          0.0080    0.2450    2.8380 ca        1 POF     -0.108000
      7 N1          1.7930    1.1060   -0.8180 n4        1 POF     -0.807500
      8 C3         -0.8190    1.0610    3.6210 ca        1 POF     -0.042300
      9 C4         -0.5060    2.4220    3.7990 ca        1 POF     -0.010300
     10 C5          0.6600    2.9390    3.2090 ca        1 POF     -0.108000
     11 S1          1.7480   -0.5580    0.0530 s6        1 POF      1.565400
     12 C6          1.4920    2.1470    2.4270 ca        1 POF     -0.148000
     13 C7         -2.0170    0.4320    4.2430 c3        1 POF     -0.047100
     14 C8         -2.6280    1.2710    5.3430 c3        1 POF     -0.083400
     15 C9         -2.7510    2.7170    4.8970 c3        1 POF     -0.052700
     16 C10        -1.3490    3.3010    4.6700 c3        1 POF     -0.035400
     17 C11        -3.4910    3.5800    5.9190 c3        1 POF     -0.055700
     18 C12        -3.6480    5.0180    5.4060 c3        1 POF     -0.111000
     19 C13        -2.2660    5.5940    5.1000 c3        1 POF     -0.071400
     20 C14        -1.4740    4.7260    4.1450 c3        1 POF     -0.071400
     21 C15        -4.5520    5.1370    4.1870 c3        1 POF     -0.093100
     22 C16        -4.8420    3.0120    6.2990 c3        1 POF     -0.153400
     23 C17        -5.6400    3.9280    7.2030 c         1 POF      0.704500
     24 N2         -5.3090    5.2910    7.2870 n         1 POF     -0.495400
     25 C18        -4.2900    5.8670    6.5140 c         1 POF      0.705500
     26 O5         -3.9530    7.0490    6.6930 o         1 POF     -0.599500
     27 C19        -5.9930    6.1180    8.2750 c3        1 POF      0.134300
     28 C20        -5.3590    6.1060    9.6300 ca        1 POF     -0.243600
     29 C21        -4.4450    7.0940   10.0100 ca        1 POF     -0.072000
     30 C22        -3.9150    7.0600   11.3000 ca        1 POF     -0.253300
     31 C23        -4.3160    6.0250   12.1640 ca        1 POF      0.403200
     32 N3         -5.1860    5.0570   11.8120 nb        1 POF     -0.665000
     33 C24        -5.6940    5.1050   10.5660 ca        1 POF      0.412200
     34 H2         -0.2360   -0.8210    2.7010 ha        1 POF      0.166000
     35 HN1         2.5970    1.1730   -1.4440 hn        1 POF      0.469467
     36 HN1A        1.8610    1.8750   -0.1490 hn        1 POF      0.469467
     37 H5          0.9470    3.9900    3.3810 ha        1 POF      0.165000
     38 H6          2.4330    2.5490    2.0220 ha        1 POF      0.146000
     39 H7         -2.7810    0.2580    3.4350 hc        1 POF      0.070200
     40 H7A        -1.7390   -0.5760    4.6580 hc        1 POF      0.070200
     41 H8         -2.0030    1.2110    6.2730 hc        1 POF      0.064700
     42 H8A        -3.6390    0.8490    5.5880 hc        1 POF      0.064700
     43 H9         -3.3190    2.7410    3.9250 hc        1 POF      0.061700
     44 H10        -0.8240    3.3430    5.6730 hc        1 POF      0.084700
     45 H11        -2.8560    3.6210    6.8530 hc        1 POF      0.069700
     46 H13        -1.7000    5.7100    6.0620 hc        1 POF      0.070700
     47 H13A       -2.3880    6.6210    4.6640 hc        1 POF      0.070700
     48 H14        -1.9620    4.7130    3.1360 hc        1 POF      0.046700
     49 H14A       -0.4600    5.1890    4.0250 hc        1 POF      0.046700
     50 H15        -4.1270    4.5730    3.3230 hc        1 POF      0.051033
     51 H15A       -4.6460    6.2120    3.8940 hc        1 POF      0.051033
     52 H15B       -5.5720    4.7410    4.4040 hc        1 POF      0.051033
     53 H16        -5.4610    2.8010    5.3870 hc        1 POF      0.087200
     54 H16A       -4.7160    2.0450    6.8580 hc        1 POF      0.087200
     55 H19        -7.0550    5.7420    8.3590 h1        1 POF      0.086200
     56 H19A       -6.0150    7.1770    7.8820 h1        1 POF      0.086200
     57 H21        -4.1510    7.8800    9.2950 ha        1 POF      0.153000
     58 H22        -3.2030    7.8230   11.6400 ha        1 POF      0.147000
     59 H23        -3.9240    5.9630   13.1950 h4        1 POF      0.026100
     60 H24        -6.4070    4.3020   10.2950 h4        1 POF      0.040100
     61 H131        0.9520    1.2600   -1.3760 hn        1 POF      0.469467
@<TRIPOS>BOND
     1    1   11 2   
     2    2    5 1   
     3    2   11 1   
     4    3   23 2   
     5    4   11 2   
     6    5    6 ar  
     7    5   12 ar  
     8    6    8 ar  
     9    6   34 1   
    10    7   11 1   
    11    7   35 1   
    12    7   36 1   
    13    7   61 1   
    14    8    9 ar  
    15    8   13 1   
    16    9   10 ar  
    17    9   16 1   
    18   10   12 ar  
    19   10   37 1   
    20   12   38 1   
    21   13   14 1   
    22   13   39 1   
    23   13   40 1   
    24   14   15 1   
    25   14   41 1   
    26   14   42 1   
    27   15   16 1   
    28   15   17 1   
    29   15   43 1   
    30   16   20 1   
    31   16   44 1   
    32   17   18 1   
    33   17   22 1   
    34   17   45 1   
    35   18   19 1   
    36   18   21 1   
    37   18   25 1   
    38   19   20 1   
    39   19   46 1   
    40   19   47 1   
    41   20   48 1   
    42   20   49 1   
    43   21   50 1   
    44   21   51 1   
    45   21   52 1   
    46   22   23 1   
    47   22   53 1   
    48   22   54 1   
    49   23   24 1   
    50   24   25 1   
    51   24   27 1   
    52   25   26 2   
    53   27   28 1   
    54   27   55 1   
    55   27   56 1   
    56   28   29 ar  
    57   28   33 ar  
    58   29   30 ar  
    59   29   57 1   
    60   30   31 ar  
    61   30   58 1   
    62   31   32 ar  
    63   31   59 1   
    64   32   33 ar  
    65   33   60 1   
@<TRIPOS>SUBSTRUCTURE
     1 POF         1 TEMP              0 ****  ****    0 ROOT
