@<TRIPOS>MOLECULE
POF
   61    65     1     0     0
SMALL
bcc


@<TRIPOS>ATOM
      1 O1          0.4550   -0.9420   -0.1150 o         1 POF     -0.544300
      2 O3          2.0420   -0.0090    1.5680 os        1 POF     -0.411800
      3 O4         -6.5920    3.4750    7.8600 o         1 POF     -0.594500
      4 O2          2.8740   -1.1700   -0.4110 o         1 POF     -0.544300
      5 C1          1.1470    0.8010    2.2440 ca        1 POF      0.028100
      6 C2          0.0080    0.2470    2.8350 ca        1 POF     -0.108000
      7 N1          1.7990    1.1130   -0.8170 nz        1 POF     -0.807500
      8 C3         -0.8190    1.0620    3.6190 ca        1 POF     -0.042300
      9 C4         -0.5060    2.4230    3.8000 ca        1 POF     -0.010300
     10 C5          0.6620    2.9400    3.2110 ca        1 POF     -0.108000
     11 S1          1.7510   -0.5520    0.0510 s6        1 POF      1.565400
     12 C6          1.4950    2.1490    2.4300 ca        1 POF     -0.148000
     13 C7         -2.0180    0.4330    4.2380 c3        1 POF     -0.047100
     14 C8         -2.6300    1.2710    5.3400 c3        1 POF     -0.083400
     15 C9         -2.7520    2.7180    4.8950 c3        1 POF     -0.052700
     16 C10        -1.3490    3.3010    4.6710 c3        1 POF     -0.035400
     17 C11        -3.4910    3.5800    5.9180 c3        1 POF     -0.055700
     18 C12        -3.6470    5.0190    5.4080 c3        1 POF     -0.111000
     19 C13        -2.2640    5.5940    5.1030 c3        1 POF     -0.071400
     20 C14        -1.4720    4.7270    4.1480 c3        1 POF     -0.071400
     21 C15        -4.5490    5.1400    4.1870 c3        1 POF     -0.093100
     22 C16        -4.8430    3.0130    6.2950 c3        1 POF     -0.153400
     23 C17        -5.6420    3.9270    7.2000 c         1 POF      0.704500
     24 N2         -5.3090    5.2900    7.2870 n         1 POF     -0.495400
     25 C18        -4.2890    5.8670    6.5160 c         1 POF      0.705500
     26 O5         -3.9520    7.0480    6.6970 o         1 POF     -0.599500
     27 C19        -5.9950    6.1160    8.2750 c3        1 POF      0.134300
     28 C20        -5.3620    6.1010    9.6310 ca        1 POF     -0.243600
     29 C21        -4.4480    7.0880   10.0140 ca        1 POF     -0.072000
     30 C22        -3.9200    7.0510   11.3050 ca        1 POF     -0.253300
     31 C23        -4.3230    6.0150   12.1660 ca        1 POF      0.403200
     32 N3         -5.1930    5.0480   11.8110 nb        1 POF     -0.665000
     33 C24        -5.7000    5.0980   10.5650 ca        1 POF      0.412200
     34 H2         -0.2360   -0.8180    2.6960 ha        1 POF      0.166000
     35 HN1         0.9590    1.2700   -1.3760 hn        1 POF      0.469467
     36 HN1A        1.8670    1.8810   -0.1460 hn        1 POF      0.469467
     37 H5          0.9490    3.9900    3.3850 ha        1 POF      0.165000
     38 H6          2.4360    2.5500    2.0260 ha        1 POF      0.146000
     39 H7         -1.7420   -0.5750    4.6520 hc        1 POF      0.070200
     40 H7A        -2.7820    0.2610    3.4290 hc        1 POF      0.070200
     41 H8         -3.6410    0.8500    5.5820 hc        1 POF      0.064700
     42 H8A        -2.0060    1.2090    6.2690 hc        1 POF      0.064700
     43 H9         -3.3180    2.7440    3.9230 hc        1 POF      0.061700
     44 H10        -0.8250    3.3410    5.6750 hc        1 POF      0.084700
     45 H11        -2.8580    3.6190    6.8530 hc        1 POF      0.069700
     46 H13        -1.6990    5.7080    6.0670 hc        1 POF      0.070700
     47 H13A       -2.3850    6.6220    4.6690 hc        1 POF      0.070700
     48 H14        -0.4570    5.1900    4.0300 hc        1 POF      0.046700
     49 H14A       -1.9590    4.7160    3.1390 hc        1 POF      0.046700
     50 H15        -4.1240    4.5770    3.3230 hc        1 POF      0.051033
     51 H15A       -5.5710    4.7440    4.4030 hc        1 POF      0.051033
     52 H15B       -4.6420    6.2160    3.8960 hc        1 POF      0.051033
     53 H16        -4.7190    2.0440    6.8530 hc        1 POF      0.087200
     54 H16A       -5.4620    2.8030    5.3820 hc        1 POF      0.087200
     55 H19        -7.0570    5.7400    8.3570 h1        1 POF      0.086200
     56 H19A       -6.0150    7.1750    7.8840 h1        1 POF      0.086200
     57 H21        -4.1530    7.8740    9.3010 ha        1 POF      0.153000
     58 H22        -3.2080    7.8130   11.6470 ha        1 POF      0.147000
     59 H23        -3.9320    5.9510   13.1980 h4        1 POF      0.026100
     60 H24        -6.4130    4.2960   10.2910 h4        1 POF      0.040100
     61 H131        2.6040    1.1800   -1.4420 hn        1 POF      0.469467
@<TRIPOS>BOND
     1    1   11 2   
     2    2    5 1   
     3    2   11 1   
     4    3   23 2   
     5    4   11 2   
     6    5    6 ar  
     7    5   12 ar  
     8    6    8 ar  
     9    6   34 1   
    10    7   11 1   
    11    7   35 1   
    12    7   36 1   
    13    7   61 1   
    14    8    9 ar  
    15    8   13 1   
    16    9   10 ar  
    17    9   16 1   
    18   10   12 ar  
    19   10   37 1   
    20   12   38 1   
    21   13   14 1   
    22   13   39 1   
    23   13   40 1   
    24   14   15 1   
    25   14   41 1   
    26   14   42 1   
    27   15   16 1   
    28   15   17 1   
    29   15   43 1   
    30   16   20 1   
    31   16   44 1   
    32   17   18 1   
    33   17   22 1   
    34   17   45 1   
    35   18   19 1   
    36   18   21 1   
    37   18   25 1   
    38   19   20 1   
    39   19   46 1   
    40   19   47 1   
    41   20   48 1   
    42   20   49 1   
    43   21   50 1   
    44   21   51 1   
    45   21   52 1   
    46   22   23 1   
    47   22   53 1   
    48   22   54 1   
    49   23   24 1   
    50   24   25 1   
    51   24   27 1   
    52   25   26 2   
    53   27   28 1   
    54   27   55 1   
    55   27   56 1   
    56   28   29 ar  
    57   28   33 ar  
    58   29   30 ar  
    59   29   57 1   
    60   30   31 ar  
    61   30   58 1   
    62   31   32 ar  
    63   31   59 1   
    64   32   33 ar  
    65   33   60 1   
@<TRIPOS>SUBSTRUCTURE
     1 POF         1 TEMP              0 ****  ****    0 ROOT
