@<TRIPOS>MOLECULE
POG
   73    72     1     0     0
SMALL
bcc


@<TRIPOS>ATOM
      1 OH         -2.5220   10.8600    8.0270 oh        1 POG     -0.613800
      2 C2         -1.7810   12.0540    7.7880 c3        1 POG      0.135100
      3 C1         -2.5330   12.9960    6.8690 c3        1 POG     -0.128100
      4 C3         -0.4620   11.5820    7.1640 c3        1 POG      0.122400
      5 O2          0.4710   12.6430    7.3330 os        1 POG     -0.428600
      6 C5          1.6530   12.4920    6.5370 c3        1 POG      0.100100
      7 C4         -0.6780    7.9730    8.3230 c3        1 POG      0.126400
      8 C6         -1.2150    7.2980    7.0550 c3        1 POG      0.103100
      9 C7         -0.6200    5.4000    5.7010 c3        1 POG      0.131400
     10 C8          0.3630    5.5770    4.5330 c3        1 POG      0.108100
     11 O4         -0.2990    5.0300    3.3850 os        1 POG     -0.423600
     12 C9          0.1440    5.5620    2.1490 c3        1 POG      0.135400
     13 C10        -0.5190    6.9040    1.8030 c3        1 POG      0.110100
     14 O5          0.2490    7.9040    2.4820 os        1 POG     -0.437600
     15 C11        -0.3120    9.2110    2.4100 c3        1 POG      0.103400
     16 C12         0.8200   10.2120    2.6720 c3        1 POG      0.138100
     17 O6          1.0910   10.2800    4.0730 os        1 POG     -0.435600
     18 C13         2.1380    9.3990    4.4840 c3        1 POG      0.114400
     19 C14         2.2250    9.5110    6.0100 c3        1 POG      0.127100
     20 O7          3.1430   10.5650    6.3180 os        1 POG     -0.421600
     21 C15         2.6400   11.5370    7.2240 c3        1 POG      0.104400
     22 C16         2.2370   13.8860    6.4010 c3        1 POG     -0.090100
     23 C17         2.7440    8.2200    6.6140 c3        1 POG     -0.117100
     24 C18         0.3870   11.6040    2.2470 c3        1 POG     -0.100100
     25 C19        -1.9830    6.9150    2.1870 c3        1 POG     -0.120100
     26 C20         1.6620    4.8420    4.7930 c3        1 POG     -0.115100
     27 C21        -1.3830    8.3060    5.9380 c3        1 POG     -0.140100
     28 HOH        -3.3750   11.1310    8.3830 ho        1 POG      0.406000
     29 H2         -1.5670   12.5630    8.7700 h1        1 POG      0.052700
     30 H11        -3.4470   13.3870    7.3760 hc        1 POG      0.045700
     31 H12A       -1.8710   13.8530    6.5980 hc        1 POG      0.045700
     32 H13        -2.8430   12.4670    5.9360 hc        1 POG      0.045700
     33 H31        -0.1000   10.6700    7.7120 h1        1 POG      0.045200
     34 H32        -0.5990   11.3330    6.0780 h1        1 POG      0.045200
     35 H5          1.3870   12.0810    5.5190 h1        1 POG      0.077700
     36 HO1        -0.1520    6.3150    9.1540 ho        1 POG      0.409000
     37 H42        -1.3570    8.8180    8.6230 h1        1 POG      0.060700
     38 H6         -2.1960    6.7940    7.2830 h1        1 POG      0.049700
     39 H72        -0.5330    4.3680    6.1340 h1        1 POG      0.053700
     40 H8          0.5570    6.6770    4.3800 h1        1 POG      0.073700
     41 H91        -0.1800    4.7950    1.3940 h1        1 POG      0.058700
     42 H92         1.2590    5.6770    2.1350 h1        1 POG      0.058700
     43 H10        -0.4130    7.0820    0.6940 h1        1 POG      0.037700
     44 H111       -1.1050    9.3030    3.2000 h1        1 POG      0.041200
     45 H112       -0.7560    9.3980    1.3970 h1        1 POG      0.041200
     46 H12         1.7400    9.8960    2.1070 h1        1 POG      0.056700
     47 H131        3.1040    9.7150    4.0100 h1        1 POG      0.052200
     48 H132        1.8840    8.3490    4.1800 h1        1 POG      0.052200
     49 H14         1.2000    9.7420    6.4180 h1        1 POG      0.059700
     50 H151        3.5620   12.0850    7.5570 h1        1 POG      0.057700
     51 H152        2.1580   11.0460    8.1100 h1        1 POG      0.057700
     52 H161        3.1770   13.8340    5.8020 hc        1 POG      0.044700
     53 H162        1.5090   14.5570    5.8880 hc        1 POG      0.044700
     54 H163        2.4630   14.3150    7.4060 hc        1 POG      0.044700
     55 H171        2.9040    8.3550    7.7100 hc        1 POG      0.050033
     56 H172        1.9960    7.4030    6.4520 hc        1 POG      0.050033
     57 H173        3.7150    7.9310    6.1470 hc        1 POG      0.050033
     58 H181        1.1760   12.3450    2.5210 hc        1 POG      0.046367
     59 H182        0.2260   11.6290    1.1440 hc        1 POG      0.046367
     60 H183       -0.5600   11.8920    2.7620 hc        1 POG      0.046367
     61 H191       -2.4770    7.8570    1.8510 hc        1 POG      0.047367
     62 H192       -2.4970    6.0460    1.7110 hc        1 POG      0.047367
     63 H193       -2.0870    6.8230    3.2960 hc        1 POG      0.047367
     64 H201        2.3960    5.0440    3.9770 hc        1 POG      0.044033
     65 H202        2.0900    5.1890    5.7640 hc        1 POG      0.044033
     66 H203        1.4840    3.7410    4.8450 hc        1 POG      0.044033
     67 H211       -2.0170    7.8850    5.1220 hc        1 POG      0.053367
     68 H212       -1.8710    9.2310    6.3370 hc        1 POG      0.053367
     69 H213       -0.3900    8.5830    5.5000 hc        1 POG      0.053367
     70 H71        -1.6690    5.5720    5.3490 h1        1 POG      0.053700
     71 O3         -0.2410    6.2940    6.7400 os        1 POG     -0.444600
     72 H41         0.3600    8.3600    8.1300 h1        1 POG      0.060700
     73 O1         -0.6720    7.0840    9.4190 oh        1 POG     -0.600800
@<TRIPOS>BOND
     1    1    2 1   
     2    1   28 1   
     3    2    3 1   
     4    2    4 1   
     5    2   29 1   
     6    3   30 1   
     7    3   31 1   
     8    3   32 1   
     9    4    5 1   
    10    4   33 1   
    11    4   34 1   
    12    5    6 1   
    13    6   21 1   
    14    6   22 1   
    15    6   35 1   
    16    7    8 1   
    17    7   37 1   
    18    7   72 1   
    19    7   73 1   
    20    8   27 1   
    21    8   38 1   
    22    8   71 1   
    23    9   10 1   
    24    9   39 1   
    25    9   70 1   
    26    9   71 1   
    27   10   11 1   
    28   10   26 1   
    29   10   40 1   
    30   11   12 1   
    31   12   13 1   
    32   12   41 1   
    33   12   42 1   
    34   13   14 1   
    35   13   25 1   
    36   13   43 1   
    37   14   15 1   
    38   15   16 1   
    39   15   44 1   
    40   15   45 1   
    41   16   17 1   
    42   16   24 1   
    43   16   46 1   
    44   17   18 1   
    45   18   19 1   
    46   18   47 1   
    47   18   48 1   
    48   19   20 1   
    49   19   23 1   
    50   19   49 1   
    51   20   21 1   
    52   21   50 1   
    53   21   51 1   
    54   22   52 1   
    55   22   53 1   
    56   22   54 1   
    57   23   55 1   
    58   23   56 1   
    59   23   57 1   
    60   24   58 1   
    61   24   59 1   
    62   24   60 1   
    63   25   61 1   
    64   25   62 1   
    65   25   63 1   
    66   26   64 1   
    67   26   65 1   
    68   26   66 1   
    69   27   67 1   
    70   27   68 1   
    71   27   69 1   
    72   36   73 1   
@<TRIPOS>SUBSTRUCTURE
     1 POG         1 TEMP              0 ****  ****    0 ROOT
