@<TRIPOS>MOLECULE
POG
   73    72     1     0     0
SMALL
bcc


@<TRIPOS>ATOM
      1 OH         -2.1140  -10.5740    2.3820 oh        1 POG     -0.604800
      2 C2         -1.5670  -10.3870    1.0670 c3        1 POG      0.137100
      3 C1         -0.5950  -11.5010    0.7640 c3        1 POG     -0.130100
      4 C3         -0.8530   -9.0670    1.0020 c3        1 POG      0.133400
      5 O2         -1.8290   -7.9820    0.9970 os        1 POG     -0.432600
      6 C5         -1.2950   -6.7520    0.6320 c3        1 POG      0.141100
      7 O1          5.6020    9.5650   -2.8390 oh        1 POG     -0.607800
      8 C4          4.5160    8.7890   -3.2900 c3        1 POG      0.097400
      9 C6          3.4300    8.7650   -2.2180 c3        1 POG      0.141100
     10 O3          2.6060    7.6320   -2.4080 os        1 POG     -0.428600
     11 C7          2.4660    6.8200   -1.2450 c3        1 POG      0.123400
     12 C8          1.3160    5.8620   -1.4330 c3        1 POG      0.138100
     13 O4          1.2680    4.9400   -0.3230 os        1 POG     -0.427600
     14 C9         -0.0230    4.7260    0.1770 c3        1 POG      0.128400
     15 C10        -0.0040    3.5530    1.1510 c3        1 POG      0.138100
     16 O5         -0.6770    2.4550    0.5850 os        1 POG     -0.430600
     17 C11        -0.5020    1.2380    1.3140 c3        1 POG      0.128400
     18 C12        -0.9630    0.0710    0.4680 c3        1 POG      0.138100
     19 O6         -1.1310   -1.0620    1.2850 os        1 POG     -0.429600
     20 C13        -2.0730   -1.9950    0.7810 c3        1 POG      0.128400
     21 C14        -2.0680   -3.2540    1.6560 c3        1 POG      0.138100
     22 O7         -1.9800   -4.3980    0.8340 os        1 POG     -0.430600
     23 C15        -1.8180   -5.6630    1.5810 c3        1 POG      0.130400
     24 C16        -1.7080   -6.4190   -0.8040 c3        1 POG     -0.120100
     25 C17        -3.3270   -3.3110    2.4490 c3        1 POG     -0.119100
     26 C18         0.0670   -0.2210   -0.5860 c3        1 POG     -0.118100
     27 C19        -0.6880    3.9520    2.4260 c3        1 POG     -0.118100
     28 C20         1.5060    5.0980   -2.7080 c3        1 POG     -0.117100
     29 C21         2.6100    9.9950   -2.3190 c3        1 POG     -0.095100
     30 HOH        -2.6460  -11.2940    2.3840 ho        1 POG      0.403000
     31 H2         -2.2850  -10.3970    0.4130 h1        1 POG      0.050700
     32 H11        -1.0720  -12.3540    0.7520 hc        1 POG      0.046033
     33 H12A       -0.1790  -11.3440   -0.1160 hc        1 POG      0.046033
     34 H13         0.1060  -11.5240    1.4610 hc        1 POG      0.046033
     35 H31        -0.2660   -8.9750    1.7800 h1        1 POG      0.043200
     36 H32        -0.3140   -9.0270    0.1790 h1        1 POG      0.043200
     37 H5         -0.3110   -6.7920    0.6880 h1        1 POG      0.058700
     38 HO1         6.2190    9.6200   -3.4860 ho        1 POG      0.401000
     39 H41         4.1490    9.1850   -4.1230 h1        1 POG      0.033700
     40 H42         4.8170    7.8780   -3.4680 h1        1 POG      0.033700
     41 H6          3.8460    8.7220   -1.3310 h1        1 POG      0.059700
     42 H71         3.3060    6.3050   -1.0970 h1        1 POG      0.053200
     43 H72         2.2920    7.3880   -0.4730 h1        1 POG      0.053200
     44 H8          0.4710    6.3670   -1.4750 h1        1 POG      0.058700
     45 H91        -0.6430    4.5240   -0.5780 h1        1 POG      0.042700
     46 H92        -0.3320    5.5390    0.6490 h1        1 POG      0.042700
     47 H10         0.9220    3.3040    1.3410 h1        1 POG      0.062700
     48 H111        0.4540    1.1240    1.5410 h1        1 POG      0.043700
     49 H112       -1.0360    1.2720    2.1470 h1        1 POG      0.043700
     50 H12        -1.8320    0.2990    0.0310 h1        1 POG      0.060700
     51 H131       -1.8350   -2.2360   -0.1380 h1        1 POG      0.043700
     52 H132       -2.9610   -1.5970    0.7930 h1        1 POG      0.043700
     53 H14        -1.2980   -3.2280    2.2650 h1        1 POG      0.064700
     54 H151       -2.6930   -5.9400    1.9540 h1        1 POG      0.041700
     55 H152       -1.1750   -5.5310    2.3160 h1        1 POG      0.041700
     56 H161       -2.6850   -6.2700   -0.8420 hc        1 POG      0.045367
     57 H162       -1.4640   -7.1740   -1.4030 hc        1 POG      0.045367
     58 H163       -1.2360   -5.5970   -1.1000 hc        1 POG      0.045367
     59 H171       -3.2740   -4.0500    3.0950 hc        1 POG      0.044033
     60 H172       -3.4490   -2.4620    2.9300 hc        1 POG      0.044033
     61 H173       -4.0800   -3.4570    1.8510 hc        1 POG      0.044033
     62 H181        0.8080   -0.7260   -0.1880 hc        1 POG      0.044700
     63 H182       -0.3400   -0.7510   -1.3020 hc        1 POG      0.044700
     64 H183        0.4050    0.6180   -0.9540 hc        1 POG      0.044700
     65 H191       -0.5270    3.2650    3.1130 hc        1 POG      0.044033
     66 H192       -1.6500    4.0350    2.2670 hc        1 POG      0.044033
     67 H193       -0.3310    4.8130    2.7330 hc        1 POG      0.044033
     68 H201        1.3840    5.6980   -3.4690 hc        1 POG      0.043700
     69 H202        2.4120    4.7190   -2.7320 hc        1 POG      0.043700
     70 H203        0.8580    4.3840   -2.7540 hc        1 POG      0.043700
     71 H211        2.0970   10.1080   -1.5050 hc        1 POG      0.046033
     72 H212        3.1940   10.7640   -2.4450 hc        1 POG      0.046033
     73 H213        2.0020    9.9190   -3.0810 hc        1 POG      0.046033
@<TRIPOS>BOND
     1    1    2 1   
     2    1   30 1   
     3    2    3 1   
     4    2    4 1   
     5    2   31 1   
     6    3   32 1   
     7    3   33 1   
     8    3   34 1   
     9    4    5 1   
    10    4   35 1   
    11    4   36 1   
    12    5    6 1   
    13    6   23 1   
    14    6   24 1   
    15    6   37 1   
    16    7    8 1   
    17    7   38 1   
    18    8    9 1   
    19    8   39 1   
    20    8   40 1   
    21    9   10 1   
    22    9   29 1   
    23    9   41 1   
    24   10   11 1   
    25   11   12 1   
    26   11   42 1   
    27   11   43 1   
    28   12   13 1   
    29   12   28 1   
    30   12   44 1   
    31   13   14 1   
    32   14   15 1   
    33   14   45 1   
    34   14   46 1   
    35   15   16 1   
    36   15   27 1   
    37   15   47 1   
    38   16   17 1   
    39   17   18 1   
    40   17   48 1   
    41   17   49 1   
    42   18   19 1   
    43   18   26 1   
    44   18   50 1   
    45   19   20 1   
    46   20   21 1   
    47   20   51 1   
    48   20   52 1   
    49   21   22 1   
    50   21   25 1   
    51   21   53 1   
    52   22   23 1   
    53   23   54 1   
    54   23   55 1   
    55   24   56 1   
    56   24   57 1   
    57   24   58 1   
    58   25   59 1   
    59   25   60 1   
    60   25   61 1   
    61   26   62 1   
    62   26   63 1   
    63   26   64 1   
    64   27   65 1   
    65   27   66 1   
    66   27   67 1   
    67   28   68 1   
    68   28   69 1   
    69   28   70 1   
    70   29   71 1   
    71   29   72 1   
    72   29   73 1   
@<TRIPOS>SUBSTRUCTURE
     1 POG         1 TEMP              0 ****  ****    0 ROOT
