@<TRIPOS>MOLECULE
POI
   48    48     1     0     0
SMALL
bcc


@<TRIPOS>ATOM
      1 CM          6.3900    2.9290    1.6860 c3        1 POI     -0.178100
      2 CT          5.8380    1.5320    1.4630 c         1 POI      0.641100
      3 OT          5.6910    0.7680    2.4440 o         1 POI     -0.650100
      4 N           5.4490    1.2230    0.1810 n         1 POI     -0.499900
      5 CA          5.2150   -0.1420   -0.2600 c3        1 POI     -0.051300
      6 C           6.3380   -0.6230   -1.2500 c         1 POI      0.901600
      7 OA          6.5030   -1.8650   -1.3710 o         1 POI     -0.844300
      8 OB          7.0160    0.2530   -1.8650 o         1 POI     -0.844300
      9 CB          3.8700   -0.3040   -0.9800 c3        1 POI     -0.066400
     10 CG          2.6710   -0.0010   -0.1080 c3        1 POI     -0.080400
     11 CD          1.3750   -0.1650   -0.9070 c3        1 POI      0.165800
     12 N4          0.2180    0.4040   -0.2440 n3        1 POI     -0.851200
     13 C4A        -0.9940    0.3490   -1.0490 c3        1 POI      0.209100
     14 C4         -2.1830    0.9880   -0.3930 ca        1 POI     -0.164300
     15 C3         -2.1560    2.3740   -0.0940 ca        1 POI     -0.005200
     16 O3         -1.0650    3.1860   -0.3430 oh        1 POI     -0.545100
     17 C2         -3.2940    3.0080    0.4460 ca        1 POI      0.308600
     18 C2A        -3.2290    4.4670    0.7510 c3        1 POI     -0.108400
     19 N1         -4.4540    2.3240    0.6660 nb        1 POI     -0.678000
     20 C6         -4.4800    1.0230    0.3800 ca        1 POI      0.376200
     21 C5         -3.3620    0.2900   -0.1290 ca        1 POI     -0.139600
     22 C5A        -3.5640   -1.1870   -0.3800 c3        1 POI      0.242700
     23 P          -6.0200   -2.1740   -0.2210 p5        1 POI      1.314900
     24 OP1        -5.6590   -2.4570   -1.6550 o         1 POI     -0.921167
     25 OP2        -6.4520   -3.3470    0.6070 o         1 POI     -0.921167
     26 OP3        -6.7560   -0.8760    0.0120 o         1 POI     -0.921167
     27 OP4        -4.4760   -1.7550    0.4670 os        1 POI     -0.560200
     28 HM1         7.3320    3.0680    1.1040 hc        1 POI      0.045700
     29 HM2         5.6470    3.6980    1.3680 hc        1 POI      0.045700
     30 HM3         6.6090    3.0620    2.7720 hc        1 POI      0.045700
     31 HN          5.8390    1.7900   -0.5470 hn        1 POI      0.306500
     32 HA          5.2290   -0.8210    0.6400 h1        1 POI      0.074700
     33 HB1         3.8530    0.3560   -1.8870 hc        1 POI      0.045200
     34 HB2         3.8260   -1.3680   -1.3360 hc        1 POI      0.045200
     35 HG1         2.6610   -0.6900    0.7760 hc        1 POI      0.043200
     36 HG2         2.7430    1.0460    0.2870 hc        1 POI      0.043200
     37 HD1         1.4940    0.3680   -1.8950 h1        1 POI      0.019700
     38 HD2         1.2370   -1.2620   -1.1430 h1        1 POI      0.019700
     39 HN4         0.0690   -0.0260    0.6480 hn        1 POI      0.367800
     40 H4A1       -0.7820    0.9160   -2.0050 h1        1 POI      0.037700
     41 H4A2       -1.2520   -0.7090   -1.3500 h1        1 POI      0.037700
     42 HO3        -0.2800    2.6240   -0.4010 ho        1 POI      0.431000
     43 H2A1       -3.3710    5.0530   -0.1900 hc        1 POI      0.020700
     44 H2A2       -4.0120    4.7770    1.4840 hc        1 POI      0.020700
     45 H2A3       -2.2220    4.7170    1.1680 hc        1 POI      0.020700
     46 H6         -5.4550    0.4380    0.5070 h4        1 POI      0.155100
     47 H5A1       -3.8850   -1.3160   -1.4600 h1        1 POI      0.020200
     48 H5A2       -2.5640   -1.7000   -0.2310 h1        1 POI      0.020200
@<TRIPOS>BOND
     1    1    2 1   
     2    1   28 1   
     3    1   29 1   
     4    1   30 1   
     5    2    3 2   
     6    2    4 1   
     7    4    5 1   
     8    4   31 1   
     9    5    6 1   
    10    5    9 1   
    11    5   32 1   
    12    6    7 1   
    13    6    8 1   
    14    9   10 1   
    15    9   33 1   
    16    9   34 1   
    17   10   11 1   
    18   10   35 1   
    19   10   36 1   
    20   11   12 1   
    21   11   37 1   
    22   11   38 1   
    23   12   13 1   
    24   12   39 1   
    25   13   14 1   
    26   13   40 1   
    27   13   41 1   
    28   14   15 ar  
    29   14   21 ar  
    30   15   16 1   
    31   15   17 ar  
    32   16   42 1   
    33   17   18 1   
    34   17   19 ar  
    35   18   43 1   
    36   18   44 1   
    37   18   45 1   
    38   19   20 ar  
    39   20   21 ar  
    40   20   46 1   
    41   21   22 1   
    42   22   27 1   
    43   22   47 1   
    44   22   48 1   
    45   23   24 1   
    46   23   25 1   
    47   23   26 1   
    48   23   27 1   
@<TRIPOS>SUBSTRUCTURE
     1 POI         1 TEMP              0 ****  ****    0 ROOT
