@<TRIPOS>MOLECULE
POI
   50    50     1     0     0
SMALL
bcc


@<TRIPOS>ATOM
      1 CM          5.6710   -1.7850   -0.5740 c3        1 POI     -0.177100
      2 CT          4.4800   -1.4590    0.2670 c         1 POI      0.594100
      3 OT          4.4940   -1.2350    1.4750 o         1 POI     -0.486100
      4 N           3.1550   -1.4280   -0.4130 n4        1 POI     -0.660800
      5 CA          3.0740   -0.4160   -1.5120 c3        1 POI     -0.038500
      6 C           2.3330    0.9000   -1.0070 c         1 POI      0.925600
      7 OA          2.5680    1.9270   -1.6770 o         1 POI     -0.784300
      8 OB          1.5890    0.7660   -0.0020 o         1 POI     -0.784300
      9 CB          2.3170   -0.9190   -2.7350 c3        1 POI     -0.085400
     10 CG          2.9580   -2.1310   -3.3710 c3        1 POI     -0.107400
     11 CD          2.4220   -2.3390   -4.7900 c3        1 POI      0.180800
     12 N4          2.6450   -3.6740   -5.2980 n3        1 POI     -0.838200
     13 C4A         4.0240   -4.0180   -5.5740 c3        1 POI      0.222100
     14 C4          4.2510   -5.4990   -5.4620 ca        1 POI     -0.072300
     15 C3          3.9830   -6.3280   -6.5720 ca        1 POI     -0.000200
     16 O3          3.5080   -5.6990   -7.7040 oh        1 POI     -0.507100
     17 C2          4.2030   -7.7250   -6.4890 ca        1 POI      0.318600
     18 C2A         3.9280   -8.5880   -7.6770 c3        1 POI     -0.144400
     19 N1          4.6530   -8.3000   -5.3450 nb        1 POI     -0.649000
     20 C6          4.8880   -7.5100   -4.2900 ca        1 POI      0.397200
     21 C5          4.7060   -6.1060   -4.2890 ca        1 POI     -0.159600
     22 C5A         5.0300   -5.3060   -3.0640 c3        1 POI      0.225700
     23 P           3.9550   -5.6310   -0.7100 p5        1 POI      1.479800
     24 OP1         2.5750   -6.1680   -1.3700 oh        1 POI     -0.776400
     25 OP2         4.3230   -6.3360    0.5200 o         1 POI     -0.859500
     26 OP3         3.8150   -4.1490   -0.8490 o         1 POI     -0.859500
     27 OP4         5.0080   -6.0760   -1.9070 os        1 POI     -0.572200
     28 HM1         6.0360   -0.8610   -1.0850 hc        1 POI      0.093367
     29 HM2         6.4780   -2.1810    0.0930 hc        1 POI      0.093367
     30 HM3         5.4140   -2.5690   -1.3350 hc        1 POI      0.093367
     31 HN          2.9780   -2.3860   -0.7770 hn        1 POI      0.491800
     32 HA          4.1190   -0.1310   -1.8150 hx        1 POI      0.074700
     33 HB1         2.2960   -0.0570   -3.4570 hc        1 POI      0.070700
     34 HB2         1.2530   -1.1470   -2.4590 hc        1 POI      0.070700
     35 HG1         4.0710   -1.9980   -3.4030 hc        1 POI      0.058700
     36 HG2         2.7530   -3.0450   -2.7480 hc        1 POI      0.058700
     37 HD1         2.8700   -1.5440   -5.4570 h1        1 POI      0.024700
     38 HD2         1.3060   -2.1750   -4.7770 h1        1 POI      0.024700
     39 HN4         2.1710   -5.5460   -1.9640 ho        1 POI      0.436000
     40 H4A1        4.3380   -3.6930   -6.6120 h1        1 POI      0.039200
     41 H4A2        4.7000   -3.4840   -4.8460 h1        1 POI      0.039200
     42 HO3         3.3680   -6.3720   -8.3850 ho        1 POI      0.415000
     43 H2A1        4.1580   -9.6630   -7.4730 hc        1 POI      0.044367
     44 H2A2        2.8480   -8.5100   -7.9580 hc        1 POI      0.044367
     45 H2A3        4.5530   -8.2540   -8.5420 hc        1 POI      0.044367
     46 H6          5.2300   -8.0090   -3.3610 h4        1 POI      0.055100
     47 H5A1        6.0780   -4.8990   -3.1980 h1        1 POI      0.042200
     48 H5A2        4.3130   -4.4380   -2.9670 h1        1 POI      0.042200
     49 HN3         2.4210   -1.1730    0.2770 hn        1 POI      0.491800
     50 H42         2.0730   -3.8580   -6.0980 hn        1 POI      0.372800
@<TRIPOS>BOND
     1    1    2 1   
     2    1   28 1   
     3    1   29 1   
     4    1   30 1   
     5    2    3 2   
     6    2    4 1   
     7    4    5 1   
     8    4   31 1   
     9    4   49 1   
    10    5    6 1   
    11    5    9 1   
    12    5   32 1   
    13    6    7 1   
    14    6    8 1   
    15    9   10 1   
    16    9   33 1   
    17    9   34 1   
    18   10   11 1   
    19   10   35 1   
    20   10   36 1   
    21   11   12 1   
    22   11   37 1   
    23   11   38 1   
    24   12   13 1   
    25   12   50 1   
    26   13   14 1   
    27   13   40 1   
    28   13   41 1   
    29   14   15 ar  
    30   14   21 ar  
    31   15   16 1   
    32   15   17 ar  
    33   16   42 1   
    34   17   18 1   
    35   17   19 ar  
    36   18   43 1   
    37   18   44 1   
    38   18   45 1   
    39   19   20 ar  
    40   20   21 ar  
    41   20   46 1   
    42   21   22 1   
    43   22   27 1   
    44   22   47 1   
    45   22   48 1   
    46   23   24 1   
    47   23   25 1   
    48   23   26 1   
    49   23   27 1   
    50   24   39 1   
@<TRIPOS>SUBSTRUCTURE
     1 POI         1 TEMP              0 ****  ****    0 ROOT
