@<TRIPOS>MOLECULE
POI
   50    50     1     0     0
SMALL
bcc


@<TRIPOS>ATOM
      1 CM          5.6760   -1.6820   -0.6600 c3        1 POI     -0.177100
      2 CT          4.5050   -1.4070    0.2250 c         1 POI      0.594100
      3 OT          4.5550   -1.1760    1.4310 o         1 POI     -0.486100
      4 N           3.1550   -1.4420   -0.4020 n4        1 POI     -0.660800
      5 CA          2.9830   -0.4410   -1.5000 c3        1 POI     -0.038500
      6 C           2.1970    0.8400   -0.9710 c         1 POI      0.925600
      7 OA          2.3560    1.8740   -1.6540 o         1 POI     -0.784300
      8 OB          1.5010    0.6750    0.0620 o         1 POI     -0.784300
      9 CB          2.2050   -0.9860   -2.6920 c3        1 POI     -0.085400
     10 CG          2.8800   -2.1690   -3.3480 c3        1 POI     -0.107400
     11 CD          2.3010   -2.4090   -4.7450 c3        1 POI      0.180800
     12 N4          2.5680   -3.7350   -5.2560 n3        1 POI     -0.838200
     13 C4A         3.9510   -4.0150   -5.5820 c3        1 POI      0.222100
     14 C4          4.2520   -5.4840   -5.4740 ca        1 POI     -0.072300
     15 C3          3.9820   -6.3300   -6.5710 ca        1 POI     -0.000200
     16 O3          3.4360   -5.7290   -7.6860 oh        1 POI     -0.507100
     17 C2          4.2710   -7.7140   -6.4910 ca        1 POI      0.318600
     18 C2A         3.9920   -8.5950   -7.6650 c3        1 POI     -0.144400
     19 N1          4.7900   -8.2610   -5.3620 nb        1 POI     -0.649000
     20 C6          5.0260   -7.4570   -4.3190 ca        1 POI      0.397200
     21 C5          4.7780   -6.0630   -4.3170 ca        1 POI     -0.159600
     22 C5A         5.1100   -5.2410   -3.1080 c3        1 POI      0.225700
     23 P           4.1390   -5.6050   -0.7140 p5        1 POI      1.479800
     24 OP1         2.7620   -6.2100   -1.3200 oh        1 POI     -0.776400
     25 OP2         4.5850   -6.2850    0.5040 o         1 POI     -0.859500
     26 OP3         3.9240   -4.1310   -0.8520 o         1 POI     -0.859500
     27 OP4         5.1660   -6.0060   -1.9480 os        1 POI     -0.572200
     28 HM1         6.5260   -2.0350   -0.0250 hc        1 POI      0.093367
     29 HM2         5.9760   -0.7440   -1.1900 hc        1 POI      0.093367
     30 HM3         5.4260   -2.4820   -1.4080 hc        1 POI      0.093367
     31 HN          3.0080   -2.4100   -0.7560 hn        1 POI      0.491800
     32 HA          4.0000   -0.1070   -1.8440 hx        1 POI      0.074700
     33 HB1         2.1150   -0.1300   -3.4150 hc        1 POI      0.070700
     34 HB2         1.1650   -1.2640   -2.3750 hc        1 POI      0.070700
     35 HG1         3.9830   -1.9820   -3.4230 hc        1 POI      0.058700
     36 HG2         2.7430   -3.0880   -2.7140 hc        1 POI      0.058700
     37 HD1         2.6860   -1.5970   -5.4310 h1        1 POI      0.024700
     38 HD2         1.1800   -2.2980   -4.6900 h1        1 POI      0.024700
     39 HN4         2.3070   -5.6110   -1.9010 ho        1 POI      0.436000
     40 H4A1        4.6270   -3.4460   -4.8810 h1        1 POI      0.039200
     41 H4A2        4.2100   -3.6810   -6.6320 h1        1 POI      0.039200
     42 HO3         3.3030   -6.4110   -8.3590 ho        1 POI      0.415000
     43 H2A1        4.2800   -9.6570   -7.4670 hc        1 POI      0.044367
     44 H2A2        4.5690   -8.2360   -8.5540 hc        1 POI      0.044367
     45 H2A3        2.9000   -8.5690   -7.9060 hc        1 POI      0.044367
     46 H6          5.4250   -7.9340   -3.4030 h4        1 POI      0.055100
     47 H5A1        4.3570   -4.4080   -2.9860 h1        1 POI      0.042200
     48 H5A2        6.1310   -4.7870   -3.2810 h1        1 POI      0.042200
     49 HN3         2.4370   -1.2180    0.3160 hn        1 POI      0.491800
     50 H42         1.9760   -3.9500   -6.0340 hn        1 POI      0.372800
@<TRIPOS>BOND
     1    1    2 1   
     2    1   28 1   
     3    1   29 1   
     4    1   30 1   
     5    2    3 2   
     6    2    4 1   
     7    4    5 1   
     8    4   31 1   
     9    4   49 1   
    10    5    6 1   
    11    5    9 1   
    12    5   32 1   
    13    6    7 1   
    14    6    8 1   
    15    9   10 1   
    16    9   33 1   
    17    9   34 1   
    18   10   11 1   
    19   10   35 1   
    20   10   36 1   
    21   11   12 1   
    22   11   37 1   
    23   11   38 1   
    24   12   13 1   
    25   12   50 1   
    26   13   14 1   
    27   13   40 1   
    28   13   41 1   
    29   14   15 ar  
    30   14   21 ar  
    31   15   16 1   
    32   15   17 ar  
    33   16   42 1   
    34   17   18 1   
    35   17   19 ar  
    36   18   43 1   
    37   18   44 1   
    38   18   45 1   
    39   19   20 ar  
    40   20   21 ar  
    41   20   46 1   
    42   21   22 1   
    43   22   27 1   
    44   22   47 1   
    45   22   48 1   
    46   23   24 1   
    47   23   25 1   
    48   23   26 1   
    49   23   27 1   
    50   24   39 1   
@<TRIPOS>SUBSTRUCTURE
     1 POI         1 TEMP              0 ****  ****    0 ROOT
