@<TRIPOS>MOLECULE
POI
   50    50     1     0     0
SMALL
bcc


@<TRIPOS>ATOM
      1 CM          5.9380   -1.7860    0.0230 c3        1 POI     -0.179100
      2 CT          4.5480   -1.4730    0.4660 c         1 POI      0.603100
      3 OT          4.1790   -1.3210    1.6280 o         1 POI     -0.490100
      4 N           3.4940   -1.3770   -0.5850 ny        1 POI     -0.656800
      5 CA          3.8080   -0.4000   -1.6710 c3        1 POI     -0.037500
      6 C           3.4360    1.0770   -1.2110 c         1 POI      0.921600
      7 OA          4.1630    1.9790   -1.6770 o         1 POI     -0.786800
      8 OB          2.4470    1.1770   -0.4420 o         1 POI     -0.786800
      9 CB          3.0250   -0.6760   -2.9500 c3        1 POI     -0.088400
     10 CG          3.3090   -2.0370   -3.5430 c3        1 POI     -0.104400
     11 CD          2.8370   -2.0890   -4.9980 c3        1 POI      0.183800
     12 N4          2.7450   -3.4320   -5.5240 n7        1 POI     -0.839200
     13 C4A         4.0050   -4.1130   -5.7350 c3        1 POI      0.224100
     14 C4          3.8630   -5.5980   -5.5540 ca        1 POI     -0.071300
     15 C3          3.3640   -6.3830   -6.6140 ca        1 POI      0.002800
     16 O3          3.0240   -5.7080   -7.7680 oh        1 POI     -0.506100
     17 C2          3.2410   -7.7870   -6.4650 ca        1 POI      0.315600
     18 C2A         2.7190   -8.6070   -7.5990 c3        1 POI     -0.144400
     19 N1          3.5820   -8.4040   -5.3050 nb        1 POI     -0.651000
     20 C6          4.0400   -7.6500   -4.2980 ca        1 POI      0.392200
     21 C5          4.1970   -6.2450   -4.3610 ca        1 POI     -0.149600
     22 C5A         4.7320   -5.4820   -3.1890 c3        1 POI      0.230700
     23 P           4.0460   -5.5770   -0.6810 p5        1 POI      1.474800
     24 OP1         2.4960   -5.9600   -0.9630 oh        1 POI     -0.784400
     25 OP2         4.4600   -6.3760    0.4800 o         1 POI     -0.859500
     26 OP3         4.1790   -4.0990   -0.8210 o         1 POI     -0.859500
     27 OP4         4.7360   -6.2430   -2.0230 os        1 POI     -0.574200
     28 HM1         5.9220   -2.6320   -0.7140 hc        1 POI      0.096033
     29 HM2         6.5340   -2.0940    0.9180 hc        1 POI      0.096033
     30 HM3         6.4070   -0.8820   -0.4380 hc        1 POI      0.096033
     31 HN          2.6150   -1.0540   -0.1450 hn        1 POI      0.486800
     32 HA          4.9100   -0.4520   -1.8890 hx        1 POI      0.079700
     33 HB1         3.3210    0.1350   -3.6700 hc        1 POI      0.069200
     34 HB2         1.9260   -0.5610   -2.7540 hc        1 POI      0.069200
     35 HG1         4.4090   -2.2500   -3.4910 hc        1 POI      0.058700
     36 HG2         2.7900   -2.8370   -2.9480 hc        1 POI      0.058700
     37 HD1         1.8020   -1.6420   -5.0510 h1        1 POI      0.023200
     38 HD2         3.5190   -1.4310   -5.6140 h1        1 POI      0.023200
     39 HN4         2.1850   -3.4640   -6.3520 hn        1 POI      0.372800
     40 H4A1        4.4090   -3.9290   -6.7770 h1        1 POI      0.039200
     41 H4A2        4.7750   -3.7230   -5.0100 h1        1 POI      0.039200
     42 HO3         2.6730   -6.3510   -8.3990 ho        1 POI      0.414000
     43 H2A1        1.6790   -8.2820   -7.8530 hc        1 POI      0.043700
     44 H2A2        2.6940   -9.6960   -7.3490 hc        1 POI      0.043700
     45 H2A3        3.3720   -8.4700   -8.4970 hc        1 POI      0.043700
     46 H6          4.2980   -8.1800   -3.3600 h4        1 POI      0.052100
     47 H5A1        4.1260   -4.5410   -3.0350 h1        1 POI      0.045200
     48 H5A2        5.8000   -5.1950   -3.4340 h1        1 POI      0.045200
     49 HN3         3.3710   -2.3320   -0.9810 hn        1 POI      0.486800
     50 H42         2.2290   -6.7730   -0.5500 ho        1 POI      0.441000
@<TRIPOS>BOND
     1    1    2 1   
     2    1   28 1   
     3    1   29 1   
     4    1   30 1   
     5    2    3 2   
     6    2    4 1   
     7    4    5 1   
     8    4   31 1   
     9    4   49 1   
    10    5    6 1   
    11    5    9 1   
    12    5   32 1   
    13    6    7 1   
    14    6    8 1   
    15    9   10 1   
    16    9   33 1   
    17    9   34 1   
    18   10   11 1   
    19   10   35 1   
    20   10   36 1   
    21   11   12 1   
    22   11   37 1   
    23   11   38 1   
    24   12   13 1   
    25   12   39 1   
    26   13   14 1   
    27   13   40 1   
    28   13   41 1   
    29   14   15 ar  
    30   14   21 ar  
    31   15   16 1   
    32   15   17 ar  
    33   16   42 1   
    34   17   18 1   
    35   17   19 ar  
    36   18   43 1   
    37   18   44 1   
    38   18   45 1   
    39   19   20 ar  
    40   20   21 ar  
    41   20   46 1   
    42   21   22 1   
    43   22   27 1   
    44   22   47 1   
    45   22   48 1   
    46   23   24 1   
    47   23   25 1   
    48   23   26 1   
    49   23   27 1   
    50   24   50 1   
@<TRIPOS>SUBSTRUCTURE
     1 POI         1 TEMP              0 ****  ****    0 ROOT
