@<TRIPOS>MOLECULE
POL
   12    11     1     0     0
SMALL
bcc


@<TRIPOS>ATOM
      1 O           0.2050    0.0000   -1.7540 oh        1 POL     -0.602800
      2 C1         -0.5100    0.0000   -0.5280 c3        1 POL      0.131400
      3 C2          0.5180    0.0000    0.5900 c3        1 POL     -0.085400
      4 C3         -0.1550   -0.0000    1.9370 c3        1 POL     -0.094100
      5 HO         -0.4540   -0.0000   -2.4570 ho        1 POL      0.398000
      6 H11        -1.1620   -0.9130   -0.4650 h1        1 POL      0.019700
      7 H12        -1.1620    0.9130   -0.4650 h1        1 POL      0.019700
      8 H21         1.1760    0.9020    0.4830 hc        1 POL      0.054700
      9 H22         1.1760   -0.9020    0.4830 hc        1 POL      0.054700
     10 H31         0.6110   -0.0000    2.7490 hc        1 POL      0.034367
     11 H32        -0.7980    0.9050    2.0590 hc        1 POL      0.034367
     12 H33        -0.7980   -0.9050    2.0590 hc        1 POL      0.034367
@<TRIPOS>BOND
     1    1    2 1   
     2    1    5 1   
     3    2    3 1   
     4    2    6 1   
     5    2    7 1   
     6    3    4 1   
     7    3    8 1   
     8    3    9 1   
     9    4   10 1   
    10    4   11 1   
    11    4   12 1   
@<TRIPOS>SUBSTRUCTURE
     1 POL         1 TEMP              0 ****  ****    0 ROOT
