@<TRIPOS>MOLECULE
POM
   18    18     1     0     0
SMALL
bcc


@<TRIPOS>ATOM
      1 N           0.9560   -0.7370    0.1490 n3        1 POM     -0.780200
      2 CA         -0.2470   -0.4910   -0.6610 c3        1 POM      0.038500
      3 C           0.1010    0.1710   -2.0360 c         1 POM      0.937600
      4 O          -0.1720    1.3910   -2.1930 o         1 POM     -0.831300
      5 OXT         0.5880   -0.5900   -2.9130 o         1 POM     -0.831300
      6 CB         -1.2020    0.3700    0.1830 c3        1 POM     -0.190400
      7 CG         -0.7190    0.2170    1.5940 c         1 POM      0.574100
      8 CD          0.6100   -0.5520    1.5630 c3        1 POM      0.058500
      9 OG         -1.2750    0.6020    2.6240 o         1 POM     -0.577100
     10 CD1         1.6800    0.2060    2.3370 c3        1 POM     -0.073100
     11 H           1.3080   -1.6580   -0.0190 hn        1 POM      0.353800
     12 HA         -0.7650   -1.4660   -0.9040 h1        1 POM      0.008700
     13 HB2        -1.1190    1.4420   -0.1500 hc        1 POM      0.091700
     14 HB3        -2.2640    0.0480    0.0720 hc        1 POM      0.091700
     15 HD          0.4350   -1.5390    2.0900 h1        1 POM      0.022700
     16 HD11        1.3000    0.4160    3.3660 hc        1 POM      0.035700
     17 HD12        2.6120   -0.4030    2.4070 hc        1 POM      0.035700
     18 HD13        1.9250    1.1720    1.8360 hc        1 POM      0.035700
@<TRIPOS>BOND
     1    1    2 1   
     2    1    8 1   
     3    1   11 1   
     4    2    3 1   
     5    2    6 1   
     6    2   12 1   
     7    3    4 1   
     8    3    5 1   
     9    6    7 1   
    10    6   13 1   
    11    6   14 1   
    12    7    8 1   
    13    7    9 2   
    14    8   10 1   
    15    8   15 1   
    16   10   16 1   
    17   10   17 1   
    18   10   18 1   
@<TRIPOS>SUBSTRUCTURE
     1 POM         1 TEMP              0 ****  ****    0 ROOT
