@<TRIPOS>MOLECULE
PON
   11    10     1     0     0
SMALL
bcc


@<TRIPOS>ATOM
      1 P1          0.0610    0.3120    0.1130 p5        1 PON      1.462900
      2 O1          1.5260    0.6690    0.0810 o         1 PON     -0.973833
      3 O2         -0.2740   -0.8130    1.0610 o         1 PON     -0.973833
      4 O3         -0.2170   -0.3800   -1.4700 os        1 PON     -0.843800
      5 O4         -0.8740    1.4910    0.2090 o         1 PON     -0.973833
      6 P2         -0.4960   -1.1040   -2.8610 p5        1 PON      1.509600
      7 O5          1.0790   -1.6900   -3.0240 oh        1 PON     -0.841400
      8 O6         -0.5810   -0.1420   -4.0100 o         1 PON     -0.922500
      9 N7         -1.4720   -2.2580   -2.8080 n2        1 PON     -1.214700
     10 HO5         1.6670   -1.2150   -2.4520 ho        1 PON      0.412000
     11 H7         -1.6060   -2.7750   -1.9950 hn        1 PON      0.358400
@<TRIPOS>BOND
     1    1    2 1   
     2    1    3 1   
     3    1    4 1   
     4    1    5 1   
     5    4    6 1   
     6    6    7 1   
     7    6    8 1   
     8    6    9 2   
     9    7   10 1   
    10    9   11 1   
@<TRIPOS>SUBSTRUCTURE
     1 PON         1 TEMP              0 ****  ****    0 ROOT
