@<TRIPOS>MOLECULE
PON
   11    10     1     0     0
SMALL
bcc


@<TRIPOS>ATOM
      1 P1          0.1130    0.2760    0.1280 p5        1 PON      1.462900
      2 O1          1.5610    0.6890    0.0300 o         1 PON     -0.973833
      3 O2         -0.1300   -0.8830    1.0630 o         1 PON     -0.973833
      4 O3         -0.2240   -0.3860   -1.4560 os        1 PON     -0.843800
      5 O4         -0.8580    1.4160    0.3050 o         1 PON     -0.973833
      6 P2         -0.5500   -1.0850   -2.8490 p5        1 PON      1.509600
      7 O5          1.0330   -1.6130   -3.1080 oh        1 PON     -0.841400
      8 O6         -0.7270   -0.1000   -3.9670 o         1 PON     -0.922500
      9 N7         -1.4820   -2.2740   -2.7760 n2        1 PON     -1.214700
     10 HO5         1.6340   -1.1310   -2.5540 ho        1 PON      0.412000
     11 H7         -1.5570   -2.8150   -1.9720 hn        1 PON      0.358400
@<TRIPOS>BOND
     1    1    2 1   
     2    1    3 1   
     3    1    4 1   
     4    1    5 1   
     5    4    6 1   
     6    6    7 1   
     7    6    8 1   
     8    6    9 2   
     9    7   10 1   
    10    9   11 1   
@<TRIPOS>SUBSTRUCTURE
     1 PON         1 TEMP              0 ****  ****    0 ROOT
