@<TRIPOS>MOLECULE
PON
   11    10     1     0     0
SMALL
bcc


@<TRIPOS>ATOM
      1 P1          1.6360    0.0290    0.0070 p5        1 PON      1.464900
      2 O1          1.9730    1.1030    1.0110 o         1 PON     -0.969167
      3 O2          2.0240    0.3820   -1.4050 o         1 PON     -0.969167
      4 O3         -0.1290    0.0340    0.0120 os        1 PON     -0.824800
      5 O4          2.0190   -1.3690    0.4180 o         1 PON     -0.969167
      6 P2         -1.7090    0.0040    0.0210 p5        1 PON      1.519600
      7 O5         -1.8770    1.6700    0.1820 oh        1 PON     -0.828400
      8 O6         -2.2800   -0.5010    1.3210 o         1 PON     -0.961500
      9 N7         -2.4220   -0.4690   -1.2340 n2        1 PON     -1.206700
     10 HO5        -1.0430    2.0620    0.4090 ho        1 PON      0.414000
     11 H7         -3.1880   -1.0680   -1.1410 hn        1 PON      0.330400
@<TRIPOS>BOND
     1    1    2 1   
     2    1    3 1   
     3    1    4 1   
     4    1    5 1   
     5    4    6 1   
     6    6    7 1   
     7    6    8 1   
     8    6    9 2   
     9    7   10 1   
    10    9   11 1   
@<TRIPOS>SUBSTRUCTURE
     1 PON         1 TEMP              0 ****  ****    0 ROOT
