@<TRIPOS>MOLECULE
POO
   76    80     1     0     0
SMALL
bcc


@<TRIPOS>ATOM
      1 C28        -0.3600   -0.0010    1.6530 c3        1 POO     -0.085400
      2 C29         0.8110   -0.6390    0.9360 c3        1 POO     -0.075400
      3 C30         2.0720   -0.6120    1.8000 c3        1 POO      0.165800
      4 N3          2.3940    0.7240    2.2810 n3        1 POO     -0.731600
      5 C31         3.6270    0.7670    3.0340 c3        1 POO      0.157100
      6 C27         1.2880    1.3440    2.9950 c3        1 POO      0.159800
      7 C26         0.0110    1.3900    2.1350 c3        1 POO     -0.082700
      8 C25        -1.0970    2.0050    2.9920 c3        1 POO      0.079800
      9 N2         -2.1690    2.6650    2.1590 n4        1 POO     -0.576200
     10 C24        -1.7570    4.0350    1.7740 c3        1 POO      0.070100
     11 C23        -3.5240    2.5510    2.8240 c         1 POO      0.505100
     12 O3         -4.0540    1.4560    2.6790 o         1 POO     -0.447100
     13 C22        -4.1840    3.7340    3.5620 c3        1 POO     -0.008700
     14 N1         -4.1900    3.6660    4.9860 na        1 POO     -0.047400
     15 C1         -2.9250    3.6630    5.6490 ca        1 POO     -0.102200
     16 C6         -1.7550    4.3110    5.2760 ca        1 POO     -0.146000
     17 C5         -0.5820    3.9930    5.9640 ca        1 POO     -0.110600
     18 C8          0.7180    4.3650    5.2640 c         1 POO      0.912200
     19 O2          1.7530    4.6030    5.9200 o         1 POO     -0.818300
     20 O1          0.6450    4.3470    3.9880 o         1 POO     -0.818300
     21 C4         -0.6320    3.2100    7.1250 ca        1 POO     -0.113000
     22 C3         -1.8290    2.6450    7.5680 ca        1 POO     -0.097000
     23 C2         -2.9850    2.8190    6.8090 ca        1 POO     -0.095800
     24 C7         -4.3420    2.2730    6.8430 cc        1 POO     -0.036400
     25 C16        -4.9100    1.4150    7.9060 c3        1 POO     -0.010500
     26 C17        -4.2050    0.0620    7.9520 c3        1 POO     -0.070900
     27 C20        -4.7790   -0.8130    9.0470 c3        1 POO     -0.076900
     28 C21        -4.7180   -0.1260   10.3950 c3        1 POO     -0.078400
     29 C19        -5.4110    1.2210   10.3540 c3        1 POO     -0.076900
     30 C18        -4.8380    2.1050    9.2660 c3        1 POO     -0.070900
     31 C9         -5.0130    2.7320    5.7150 cd        1 POO     -0.061300
     32 C10        -6.3830    2.4600    5.3020 ca        1 POO     -0.043800
     33 C11        -7.2480    3.5110    4.9640 ca        1 POO     -0.116500
     34 C12        -8.5610    3.2410    4.5840 ca        1 POO     -0.131500
     35 C13        -9.0230    1.9260    4.5370 ca        1 POO     -0.122000
     36 C14        -8.1660    0.8770    4.8720 ca        1 POO     -0.131500
     37 C15        -6.8510    1.1390    5.2520 ca        1 POO     -0.116500
     38 H281       -1.2440    0.0480    0.9650 hc        1 POO      0.034700
     39 H282       -0.6520   -0.6390    2.5300 hc        1 POO      0.034700
     40 H291        0.5700   -1.7050    0.6890 hc        1 POO      0.048700
     41 H292        1.0030   -0.0990   -0.0280 hc        1 POO      0.048700
     42 H301        1.9360   -1.3420    2.6520 h1        1 POO      0.033200
     43 H302        2.9420   -0.9700    1.1810 h1        1 POO      0.033200
     44 H311        3.6010    0.1320    3.9630 h1        1 POO      0.040033
     45 H312        4.4600    0.4040    2.3770 h1        1 POO      0.040033
     46 H313        3.8330    1.8290    3.3320 h1        1 POO      0.040033
     47 H271        1.0470    0.7940    3.9530 h1        1 POO      0.073700
     48 H272        1.5820    2.4050    3.2650 h1        1 POO      0.073700
     49 H26         0.2280    2.0460    1.2450 hc        1 POO      0.070700
     50 H251       -0.6390    2.7990    3.6790 hx        1 POO      0.140200
     51 H252       -1.5920    1.2080    3.6140 hx        1 POO      0.140200
     52 H241       -1.2340    4.5500    2.6390 hx        1 POO      0.111700
     53 H242       -1.0060    3.9600    0.9410 hx        1 POO      0.111700
     54 H243       -2.6460    4.6190    1.4260 hx        1 POO      0.111700
     55 H221       -3.6730    4.6960    3.2690 h1        1 POO      0.104700
     56 H222       -5.2550    3.7370    3.1960 h1        1 POO      0.104700
     57 H6         -1.7150    5.0300    4.4450 ha        1 POO      0.141000
     58 H4          0.3060    3.0400    7.6780 ha        1 POO      0.162000
     59 H3         -1.8530    2.0460    8.4910 ha        1 POO      0.137000
     60 H16        -6.0010    1.2300    7.6730 hc        1 POO      0.059700
     61 H171       -4.3200   -0.4500    6.9620 hc        1 POO      0.045950
     62 H172       -3.1090    0.2200    8.1280 hc        1 POO      0.045950
     63 H201       -4.2070   -1.7760    9.0900 hc        1 POO      0.040200
     64 H202       -5.8450   -1.0660    8.8050 hc        1 POO      0.040200
     65 H211       -5.2030   -0.7750   11.1700 hc        1 POO      0.041200
     66 H212       -3.6470    0.0150   10.6950 hc        1 POO      0.041200
     67 H191       -6.5090    1.0710   10.1760 hc        1 POO      0.040200
     68 H192       -5.2980    1.7320   11.3450 hc        1 POO      0.040200
     69 H181       -3.7710    2.3550    9.5030 hc        1 POO      0.045950
     70 H182       -5.4090    3.0690    9.2230 hc        1 POO      0.045950
     71 H11        -6.8940    4.5520    5.0210 ha        1 POO      0.142000
     72 H12        -9.2370    4.0710    4.3290 ha        1 POO      0.136500
     73 H13       -10.0600    1.7160    4.2390 ha        1 POO      0.136000
     74 H14        -8.5280   -0.1610    4.8380 ha        1 POO      0.136500
     75 H15        -6.1750    0.3100    5.5150 ha        1 POO      0.142000
     76 H21        -2.2420    2.1070    1.2920 hn        1 POO      0.432800
@<TRIPOS>BOND
     1    1    2 1   
     2    1    7 1   
     3    1   38 1   
     4    1   39 1   
     5    2    3 1   
     6    2   40 1   
     7    2   41 1   
     8    3    4 1   
     9    3   42 1   
    10    3   43 1   
    11    4    5 1   
    12    4    6 1   
    13    5   44 1   
    14    5   45 1   
    15    5   46 1   
    16    6    7 1   
    17    6   47 1   
    18    6   48 1   
    19    7    8 1   
    20    7   49 1   
    21    8    9 1   
    22    8   50 1   
    23    8   51 1   
    24    9   10 1   
    25    9   11 1   
    26    9   76 1   
    27   10   52 1   
    28   10   53 1   
    29   10   54 1   
    30   11   12 2   
    31   11   13 1   
    32   13   14 1   
    33   13   55 1   
    34   13   56 1   
    35   14   15 1   
    36   14   31 1   
    37   15   16 ar  
    38   15   23 ar  
    39   16   17 ar  
    40   16   57 1   
    41   17   18 1   
    42   17   21 ar  
    43   18   19 1   
    44   18   20 1   
    45   21   22 ar  
    46   21   58 1   
    47   22   23 ar  
    48   22   59 1   
    49   23   24 1   
    50   24   25 1   
    51   24   31 2   
    52   25   26 1   
    53   25   30 1   
    54   25   60 1   
    55   26   27 1   
    56   26   61 1   
    57   26   62 1   
    58   27   28 1   
    59   27   63 1   
    60   27   64 1   
    61   28   29 1   
    62   28   65 1   
    63   28   66 1   
    64   29   30 1   
    65   29   67 1   
    66   29   68 1   
    67   30   69 1   
    68   30   70 1   
    69   31   32 1   
    70   32   33 ar  
    71   32   37 ar  
    72   33   34 ar  
    73   33   71 1   
    74   34   35 ar  
    75   34   72 1   
    76   35   36 ar  
    77   35   73 1   
    78   36   37 ar  
    79   36   74 1   
    80   37   75 1   
@<TRIPOS>SUBSTRUCTURE
     1 POO         1 TEMP              0 ****  ****    0 ROOT
