@<TRIPOS>MOLECULE
POO
   76    80     1     0     0
SMALL
bcc


@<TRIPOS>ATOM
      1 C28        -0.3710   -0.0060    1.6440 c3        1 POO     -0.085400
      2 C29         0.7960   -0.6470    0.9230 c3        1 POO     -0.075400
      3 C30         2.0580   -0.6270    1.7850 c3        1 POO      0.165800
      4 N3          2.3870    0.7060    2.2690 n3        1 POO     -0.731600
      5 C31         3.6210    0.7410    3.0210 c3        1 POO      0.157100
      6 C27         1.2850    1.3280    2.9870 c3        1 POO      0.159800
      7 C26         0.0070    1.3830    2.1290 c3        1 POO     -0.082700
      8 C25        -1.0970    1.9990    2.9890 c3        1 POO      0.079800
      9 N2         -2.1680    2.6660    2.1600 n4        1 POO     -0.576200
     10 C24        -1.7520    4.0350    1.7770 c3        1 POO      0.070100
     11 C23        -3.5230    2.5560    2.8270 c         1 POO      0.505100
     12 O3         -4.0580    1.4640    2.6810 o         1 POO     -0.447100
     13 C22        -4.1770    3.7400    3.5680 c3        1 POO     -0.008700
     14 N1         -4.1810    3.6700    4.9920 na        1 POO     -0.047400
     15 C1         -2.9150    3.6590    5.6530 ca        1 POO     -0.102200
     16 C6         -1.7430    4.3030    5.2790 ca        1 POO     -0.146000
     17 C5         -0.5700    3.9790    5.9660 ca        1 POO     -0.110600
     18 C8          0.7300    4.3470    5.2640 c         1 POO      0.912200
     19 O2          1.7670    4.5790    5.9200 o         1 POO     -0.818300
     20 O1          0.6550    4.3310    3.9880 o         1 POO     -0.818300
     21 C4         -0.6230    3.1940    7.1250 ca        1 POO     -0.113000
     22 C3         -1.8220    2.6340    7.5700 ca        1 POO     -0.097000
     23 C2         -2.9770    2.8140    6.8120 ca        1 POO     -0.095800
     24 C7         -4.3370    2.2740    6.8470 cc        1 POO     -0.036400
     25 C16        -4.9070    1.4180    7.9100 c3        1 POO     -0.010500
     26 C17        -4.2090    0.0620    7.9540 c3        1 POO     -0.070900
     27 C20        -4.7850   -0.8130    9.0480 c3        1 POO     -0.076900
     28 C21        -4.7200   -0.1270   10.3970 c3        1 POO     -0.078400
     29 C19        -5.4060    1.2230   10.3580 c3        1 POO     -0.076900
     30 C18        -4.8310    2.1060    9.2700 c3        1 POO     -0.070900
     31 C9         -5.0080    2.7380    5.7200 cd        1 POO     -0.061300
     32 C10        -6.3780    2.4720    5.3080 ca        1 POO     -0.043800
     33 C11        -7.2390    3.5280    4.9730 ca        1 POO     -0.116500
     34 C12        -8.5550    3.2640    4.5950 ca        1 POO     -0.131500
     35 C13        -9.0210    1.9510    4.5460 ca        1 POO     -0.122000
     36 C14        -8.1690    0.8980    4.8780 ca        1 POO     -0.131500
     37 C15        -6.8530    1.1530    5.2580 ca        1 POO     -0.116500
     38 H281       -1.2550    0.0490    0.9570 hc        1 POO      0.034700
     39 H282       -0.6640   -0.6450    2.5190 hc        1 POO      0.034700
     40 H291        0.5510   -1.7110    0.6740 hc        1 POO      0.048700
     41 H292        0.9890   -0.1050   -0.0390 hc        1 POO      0.048700
     42 H301        2.9260   -0.9880    1.1640 h1        1 POO      0.033200
     43 H302        1.9210   -1.3590    2.6360 h1        1 POO      0.033200
     44 H311        4.4520    0.3770    2.3610 h1        1 POO      0.040033
     45 H312        3.5940    0.1040    3.9480 h1        1 POO      0.040033
     46 H313        3.8320    1.8020    3.3210 h1        1 POO      0.040033
     47 H271        1.0430    0.7770    3.9430 h1        1 POO      0.073700
     48 H272        1.5830    2.3880    3.2590 h1        1 POO      0.073700
     49 H26         0.2250    2.0390    1.2400 hc        1 POO      0.070700
     50 H251       -1.5950    1.2030    3.6100 hx        1 POO      0.140200
     51 H252       -0.6350    2.7900    3.6780 hx        1 POO      0.140200
     52 H241       -2.6390    4.6230    1.4320 hx        1 POO      0.111700
     53 H242       -1.0020    3.9590    0.9420 hx        1 POO      0.111700
     54 H243       -1.2250    4.5450    2.6420 hx        1 POO      0.111700
     55 H221       -3.6620    4.7000    3.2760 h1        1 POO      0.104700
     56 H222       -5.2480    3.7480    3.2040 h1        1 POO      0.104700
     57 H6         -1.7010    5.0230    4.4500 ha        1 POO      0.141000
     58 H4          0.3150    3.0190    7.6770 ha        1 POO      0.162000
     59 H3         -1.8460    2.0340    8.4910 ha        1 POO      0.137000
     60 H16        -5.9990    1.2380    7.6780 hc        1 POO      0.059700
     61 H171       -3.1110    0.2140    8.1280 hc        1 POO      0.045950
     62 H172       -4.3270   -0.4490    6.9630 hc        1 POO      0.045950
     63 H201       -5.8520   -1.0600    8.8060 hc        1 POO      0.040200
     64 H202       -4.2170   -1.7780    9.0890 hc        1 POO      0.040200
     65 H211       -5.2060   -0.7750   11.1710 hc        1 POO      0.041200
     66 H212       -3.6470    0.0080   10.6950 hc        1 POO      0.041200
     67 H191       -6.5050    1.0780   10.1810 hc        1 POO      0.040200
     68 H192       -5.2890    1.7320   11.3500 hc        1 POO      0.040200
     69 H181       -5.3970    3.0720    9.2300 hc        1 POO      0.045950
     70 H182       -3.7620    2.3500    9.5060 hc        1 POO      0.045950
     71 H11        -6.8810    4.5670    5.0310 ha        1 POO      0.142000
     72 H12        -9.2270    4.0970    4.3420 ha        1 POO      0.136500
     73 H13       -10.0610    1.7460    4.2490 ha        1 POO      0.136000
     74 H14        -8.5360   -0.1390    4.8430 ha        1 POO      0.136500
     75 H15        -6.1800    0.3220    5.5190 ha        1 POO      0.142000
     76 H21        -2.2450    2.1100    1.2920 hn        1 POO      0.432800
@<TRIPOS>BOND
     1    1    2 1   
     2    1    7 1   
     3    1   38 1   
     4    1   39 1   
     5    2    3 1   
     6    2   40 1   
     7    2   41 1   
     8    3    4 1   
     9    3   42 1   
    10    3   43 1   
    11    4    5 1   
    12    4    6 1   
    13    5   44 1   
    14    5   45 1   
    15    5   46 1   
    16    6    7 1   
    17    6   47 1   
    18    6   48 1   
    19    7    8 1   
    20    7   49 1   
    21    8    9 1   
    22    8   50 1   
    23    8   51 1   
    24    9   10 1   
    25    9   11 1   
    26    9   76 1   
    27   10   52 1   
    28   10   53 1   
    29   10   54 1   
    30   11   12 2   
    31   11   13 1   
    32   13   14 1   
    33   13   55 1   
    34   13   56 1   
    35   14   15 1   
    36   14   31 1   
    37   15   16 ar  
    38   15   23 ar  
    39   16   17 ar  
    40   16   57 1   
    41   17   18 1   
    42   17   21 ar  
    43   18   19 1   
    44   18   20 1   
    45   21   22 ar  
    46   21   58 1   
    47   22   23 ar  
    48   22   59 1   
    49   23   24 1   
    50   24   25 1   
    51   24   31 2   
    52   25   26 1   
    53   25   30 1   
    54   25   60 1   
    55   26   27 1   
    56   26   61 1   
    57   26   62 1   
    58   27   28 1   
    59   27   63 1   
    60   27   64 1   
    61   28   29 1   
    62   28   65 1   
    63   28   66 1   
    64   29   30 1   
    65   29   67 1   
    66   29   68 1   
    67   30   69 1   
    68   30   70 1   
    69   31   32 1   
    70   32   33 ar  
    71   32   37 ar  
    72   33   34 ar  
    73   33   71 1   
    74   34   35 ar  
    75   34   72 1   
    76   35   36 ar  
    77   35   73 1   
    78   36   37 ar  
    79   36   74 1   
    80   37   75 1   
@<TRIPOS>SUBSTRUCTURE
     1 POO         1 TEMP              0 ****  ****    0 ROOT
