@<TRIPOS>MOLECULE
POO
   76    80     1     0     0
SMALL
bcc


@<TRIPOS>ATOM
      1 C28        -0.3780   -0.0000    1.6420 c3        1 POO     -0.085400
      2 C29         0.7900   -0.6370    0.9180 c3        1 POO     -0.075400
      3 C30         2.0550   -0.6090    1.7760 c3        1 POO      0.165800
      4 N3          2.3800    0.7270    2.2540 n3        1 POO     -0.731600
      5 C31         3.6170    0.7710    3.0010 c3        1 POO      0.157100
      6 C27         1.2780    1.3460    2.9750 c3        1 POO      0.159800
      7 C26        -0.0040    1.3920    2.1220 c3        1 POO     -0.082700
      8 C25        -1.1080    2.0060    2.9840 c3        1 POO      0.079800
      9 N2         -2.1850    2.6660    2.1560 nx        1 POO     -0.576200
     10 C24        -1.7760    4.0360    1.7690 c3        1 POO      0.070100
     11 C23        -3.5370    2.5510    2.8290 c         1 POO      0.505100
     12 O3         -4.0670    1.4560    2.6860 o         1 POO     -0.447100
     13 C22        -4.1930    3.7340    3.5700 c3        1 POO     -0.008700
     14 N1         -4.1910    3.6650    4.9940 na        1 POO     -0.047400
     15 C1         -2.9230    3.6630    5.6500 ca        1 POO     -0.102200
     16 C6         -1.7550    4.3120    5.2710 ca        1 POO     -0.146000
     17 C5         -0.5780    3.9950    5.9530 ca        1 POO     -0.110600
     18 C8          0.7170    4.3690    5.2450 c         1 POO      0.912200
     19 O2          1.7560    4.6080    5.8960 o         1 POO     -0.818300
     20 O1          0.6370    4.3500    3.9700 o         1 POO     -0.818300
     21 C4         -0.6220    3.2120    7.1140 ca        1 POO     -0.113000
     22 C3         -1.8160    2.6460    7.5640 ca        1 POO     -0.097000
     23 C2         -2.9750    2.8190    6.8100 ca        1 POO     -0.095800
     24 C7         -4.3320    2.2720    6.8520 cc        1 POO     -0.036400
     25 C16        -4.8940    1.4140    7.9180 c3        1 POO     -0.010500
     26 C17        -4.1870    0.0610    7.9610 c3        1 POO     -0.070900
     27 C20        -4.7540   -0.8150    9.0580 c3        1 POO     -0.076900
     28 C21        -4.6870   -0.1270   10.4060 c3        1 POO     -0.078400
     29 C19        -5.3810    1.2190   10.3680 c3        1 POO     -0.076900
     30 C18        -4.8150    2.1040    9.2770 c3        1 POO     -0.070900
     31 C9         -5.0100    2.7310    5.7270 cd        1 POO     -0.061300
     32 C10        -6.3810    2.4570    5.3220 ca        1 POO     -0.043800
     33 C11        -7.2490    3.5070    4.9880 ca        1 POO     -0.116500
     34 C12        -8.5640    3.2370    4.6160 ca        1 POO     -0.131500
     35 C13        -9.0250    1.9210    4.5710 ca        1 POO     -0.122000
     36 C14        -8.1660    0.8730    4.9020 ca        1 POO     -0.131500
     37 C15        -6.8490    1.1360    5.2750 ca        1 POO     -0.116500
     38 H281       -0.6640   -0.6370    2.5200 hc        1 POO      0.034700
     39 H282       -1.2650    0.0490    0.9580 hc        1 POO      0.034700
     40 H291        0.9770   -0.0980   -0.0460 hc        1 POO      0.048700
     41 H292        0.5490   -1.7040    0.6740 hc        1 POO      0.048700
     42 H301        2.9220   -0.9680    1.1520 h1        1 POO      0.033200
     43 H302        1.9250   -1.3390    2.6290 h1        1 POO      0.033200
     44 H311        3.5960    0.1370    3.9300 h1        1 POO      0.040033
     45 H312        3.8240    1.8330    3.2980 h1        1 POO      0.040033
     46 H313        4.4460    0.4080    2.3390 h1        1 POO      0.040033
     47 H271        1.0420    0.7970    3.9330 h1        1 POO      0.073700
     48 H272        1.5720    2.4080    3.2420 h1        1 POO      0.073700
     49 H26         0.2070    2.0470    1.2290 hc        1 POO      0.070700
     50 H251       -0.6470    2.8010    3.6680 hx        1 POO      0.140200
     51 H252       -1.5990    1.2090    3.6090 hx        1 POO      0.140200
     52 H241       -1.2490    4.5510    2.6310 hx        1 POO      0.111700
     53 H242       -2.6670    4.6190    1.4260 hx        1 POO      0.111700
     54 H243       -1.0290    3.9620    0.9320 hx        1 POO      0.111700
     55 H221       -3.6850    4.6950    3.2750 h1        1 POO      0.104700
     56 H222       -5.2660    3.7360    3.2100 h1        1 POO      0.104700
     57 H6         -1.7210    5.0310    4.4400 ha        1 POO      0.141000
     58 H4          0.3190    3.0430    7.6620 ha        1 POO      0.162000
     59 H3         -1.8340    2.0480    8.4860 ha        1 POO      0.137000
     60 H16        -5.9850    1.2280    7.6910 hc        1 POO      0.059700
     61 H171       -4.3070   -0.4510    6.9710 hc        1 POO      0.045950
     62 H172       -3.0900    0.2200    8.1300 hc        1 POO      0.045950
     63 H201       -4.1810   -1.7770    9.0980 hc        1 POO      0.040200
     64 H202       -5.8210   -1.0680    8.8220 hc        1 POO      0.040200
     65 H211       -5.1670   -0.7760   11.1840 hc        1 POO      0.041200
     66 H212       -3.6140    0.0150   10.7000 hc        1 POO      0.041200
     67 H191       -5.2630    1.7300   11.3590 hc        1 POO      0.040200
     68 H192       -6.4790    1.0680   10.1960 hc        1 POO      0.040200
     69 H181       -5.3870    3.0670    9.2380 hc        1 POO      0.045950
     70 H182       -3.7470    2.3540    9.5090 hc        1 POO      0.045950
     71 H11        -6.8960    4.5480    5.0430 ha        1 POO      0.142000
     72 H12        -9.2420    4.0660    4.3640 ha        1 POO      0.136500
     73 H13       -10.0640    1.7100    4.2790 ha        1 POO      0.136000
     74 H14        -8.5270   -0.1660    4.8690 ha        1 POO      0.136500
     75 H15        -6.1710    0.3080    5.5340 ha        1 POO      0.142000
     76 H21        -2.2620    2.1070    1.2900 hn        1 POO      0.432800
@<TRIPOS>BOND
     1    1    2 1   
     2    1    7 1   
     3    1   38 1   
     4    1   39 1   
     5    2    3 1   
     6    2   40 1   
     7    2   41 1   
     8    3    4 1   
     9    3   42 1   
    10    3   43 1   
    11    4    5 1   
    12    4    6 1   
    13    5   44 1   
    14    5   45 1   
    15    5   46 1   
    16    6    7 1   
    17    6   47 1   
    18    6   48 1   
    19    7    8 1   
    20    7   49 1   
    21    8    9 1   
    22    8   50 1   
    23    8   51 1   
    24    9   10 1   
    25    9   11 1   
    26    9   76 1   
    27   10   52 1   
    28   10   53 1   
    29   10   54 1   
    30   11   12 2   
    31   11   13 1   
    32   13   14 1   
    33   13   55 1   
    34   13   56 1   
    35   14   15 1   
    36   14   31 1   
    37   15   16 ar  
    38   15   23 ar  
    39   16   17 ar  
    40   16   57 1   
    41   17   18 1   
    42   17   21 ar  
    43   18   19 1   
    44   18   20 1   
    45   21   22 ar  
    46   21   58 1   
    47   22   23 ar  
    48   22   59 1   
    49   23   24 1   
    50   24   25 1   
    51   24   31 2   
    52   25   26 1   
    53   25   30 1   
    54   25   60 1   
    55   26   27 1   
    56   26   61 1   
    57   26   62 1   
    58   27   28 1   
    59   27   63 1   
    60   27   64 1   
    61   28   29 1   
    62   28   65 1   
    63   28   66 1   
    64   29   30 1   
    65   29   67 1   
    66   29   68 1   
    67   30   69 1   
    68   30   70 1   
    69   31   32 1   
    70   32   33 ar  
    71   32   37 ar  
    72   33   34 ar  
    73   33   71 1   
    74   34   35 ar  
    75   34   72 1   
    76   35   36 ar  
    77   35   73 1   
    78   36   37 ar  
    79   36   74 1   
    80   37   75 1   
@<TRIPOS>SUBSTRUCTURE
     1 POO         1 TEMP              0 ****  ****    0 ROOT
