@<TRIPOS>MOLECULE
POO
   75    79     1     0     0
SMALL
bcc


@<TRIPOS>ATOM
      1 C28        -1.6550    1.6380    5.5880 c3        1 POO     -0.071400
      2 C29        -0.6650    1.7090    6.7300 c3        1 POO     -0.075400
      3 C30         0.7720    1.7390    6.2110 c3        1 POO      0.169800
      4 N3          1.0700    0.6390    5.3070 n3        1 POO     -0.730600
      5 C31         2.4490    0.6440    4.8650 c3        1 POO      0.130100
      6 C27         0.1300    0.5610    4.1960 c3        1 POO      0.169800
      7 C26        -1.3270    0.4710    4.6680 c3        1 POO     -0.089700
      8 C25        -2.3060    0.4940    3.4850 c3        1 POO      0.090000
      9 N2         -2.1880   -0.5910    2.5370 n         1 POO     -0.474800
     10 C24        -2.0940   -1.9210    3.0640 c3        1 POO      0.076300
     11 C23        -1.8550   -0.3140    1.2110 c         1 POO      0.632100
     12 O3         -1.9490    0.8470    0.7720 o         1 POO     -0.589100
     13 C22        -1.4680   -1.4970    0.3010 c3        1 POO     -0.022700
     14 N1         -0.6040   -1.1980   -0.7960 na        1 POO     -0.060400
     15 C1          0.7530   -0.8370   -0.6060 ca        1 POO     -0.055200
     16 C6          1.6130   -1.1120    0.4640 ca        1 POO     -0.126000
     17 C5          2.9360   -0.6920    0.3700 ca        1 POO     -0.104600
     18 C8          3.8860   -0.9560    1.5290 c         1 POO      0.908200
     19 O2          3.4040   -1.4770    2.5780 o         1 POO     -0.831800
     20 O1          5.1000   -0.6400    1.3920 o         1 POO     -0.831800
     21 C4          3.3930   -0.0180   -0.7790 ca        1 POO     -0.119000
     22 C3          2.5500    0.2610   -1.8440 ca        1 POO     -0.124000
     23 C2          1.2120   -0.1350   -1.7760 ca        1 POO     -0.097800
     24 C7          0.0640   -0.0070   -2.6590 cc        1 POO     -0.088400
     25 C16         0.0430    0.6190   -3.9980 c3        1 POO      0.007500
     26 C17         0.3730    2.1060   -3.9090 c3        1 POO     -0.073900
     27 C20         0.3680    2.7530   -5.2790 c3        1 POO     -0.075400
     28 C21         1.3140    2.0460   -6.2280 c3        1 POO     -0.075400
     29 C19         0.9910    0.5690   -6.3210 c3        1 POO     -0.075400
     30 C18         1.0010   -0.0850   -4.9550 c3        1 POO     -0.073900
     31 C9         -1.0230   -0.6120   -2.0230 cd        1 POO     -0.036300
     32 C10        -2.3830   -0.7450   -2.5270 ca        1 POO     -0.011800
     33 C11        -2.9880   -2.0060   -2.6340 ca        1 POO     -0.116500
     34 C12        -4.2820   -2.1220   -3.1370 ca        1 POO     -0.138500
     35 C13        -4.9860   -0.9860   -3.5360 ca        1 POO     -0.140000
     36 C14        -4.3900    0.2710   -3.4300 ca        1 POO     -0.138500
     37 C15        -3.0960    0.3950   -2.9270 ca        1 POO     -0.116500
     38 H281       -2.6950    1.5250    5.9910 hc        1 POO      0.032700
     39 H282       -1.6220    2.5950    5.0020 hc        1 POO      0.032700
     40 H291       -0.8040    0.8240    7.4040 hc        1 POO      0.035700
     41 H292       -0.8470    2.6330    7.3360 hc        1 POO      0.035700
     42 H301        1.4760    1.6590    7.0860 h1        1 POO      0.021700
     43 H302        0.9520    2.7440    5.7240 h1        1 POO      0.021700
     44 H311        3.1060    0.5090    5.7630 h1        1 POO      0.054367
     45 H312        2.6290   -0.2120    4.1520 h1        1 POO      0.054367
     46 H313        2.7390    1.6020    4.3520 h1        1 POO      0.054367
     47 H271        0.2250    1.4480    3.5030 h1        1 POO      0.048200
     48 H272        0.3920   -0.3630    3.6060 h1        1 POO      0.048200
     49 H26        -1.4590   -0.4870    5.2440 hc        1 POO      0.054700
     50 H251       -3.3530    0.4620    3.9060 h1        1 POO      0.055200
     51 H252       -2.1830    1.4710    2.9330 h1        1 POO      0.055200
     52 H241       -2.5770   -2.6480    2.3580 h1        1 POO      0.039033
     53 H242       -1.0250   -2.2280    3.2340 h1        1 POO      0.039033
     54 H243       -2.6380   -1.9720    4.0450 h1        1 POO      0.039033
     55 H221       -0.9360   -2.2860    0.9090 h1        1 POO      0.077700
     56 H222       -2.4340   -1.9180   -0.1020 h1        1 POO      0.077700
     57 H6          1.2800   -1.6340    1.3740 ha        1 POO      0.151000
     58 H4          4.4540    0.2840   -0.8000 ha        1 POO      0.153000
     59 H3          2.9250    0.7900   -2.7310 ha        1 POO      0.114000
     60 H16        -1.0000    0.5220   -4.4240 hc        1 POO      0.043700
     61 H171       -0.3810    2.6110   -3.2500 hc        1 POO      0.049700
     62 H172        1.3790    2.2340   -3.4300 hc        1 POO      0.049700
     63 H201       -0.6710    2.7270   -5.7020 hc        1 POO      0.030450
     64 H202        0.6660    3.8290   -5.1840 hc        1 POO      0.030450
     65 H211        1.2470    2.5130   -7.2450 hc        1 POO      0.032700
     66 H212        2.3680    2.1750   -5.8660 hc        1 POO      0.032700
     67 H191       -0.0190    0.4380   -6.7920 hc        1 POO      0.030450
     68 H192        1.7400    0.0620   -6.9830 hc        1 POO      0.030450
     69 H181        2.0380   -0.0600   -4.5280 hc        1 POO      0.049700
     70 H182        0.7030   -1.1610   -5.0510 hc        1 POO      0.049700
     71 H11        -2.4310   -2.9050   -2.3300 ha        1 POO      0.144000
     72 H12        -4.7480   -3.1140   -3.2210 ha        1 POO      0.123000
     73 H13        -6.0060   -1.0800   -3.9310 ha        1 POO      0.120000
     74 H14        -4.9440    1.1690   -3.7380 ha        1 POO      0.123000
     75 H15        -2.6260    1.3860   -2.8300 ha        1 POO      0.144000
@<TRIPOS>BOND
     1    1    2 1   
     2    1    7 1   
     3    1   38 1   
     4    1   39 1   
     5    2    3 1   
     6    2   40 1   
     7    2   41 1   
     8    3    4 1   
     9    3   42 1   
    10    3   43 1   
    11    4    5 1   
    12    4    6 1   
    13    5   44 1   
    14    5   45 1   
    15    5   46 1   
    16    6    7 1   
    17    6   47 1   
    18    6   48 1   
    19    7    8 1   
    20    7   49 1   
    21    8    9 1   
    22    8   50 1   
    23    8   51 1   
    24    9   10 1   
    25    9   11 1   
    26   10   52 1   
    27   10   53 1   
    28   10   54 1   
    29   11   12 2   
    30   11   13 1   
    31   13   14 1   
    32   13   55 1   
    33   13   56 1   
    34   14   15 1   
    35   14   31 1   
    36   15   16 ar  
    37   15   23 ar  
    38   16   17 ar  
    39   16   57 1   
    40   17   18 1   
    41   17   21 ar  
    42   18   19 1   
    43   18   20 1   
    44   21   22 ar  
    45   21   58 1   
    46   22   23 ar  
    47   22   59 1   
    48   23   24 1   
    49   24   25 1   
    50   24   31 2   
    51   25   26 1   
    52   25   30 1   
    53   25   60 1   
    54   26   27 1   
    55   26   61 1   
    56   26   62 1   
    57   27   28 1   
    58   27   63 1   
    59   27   64 1   
    60   28   29 1   
    61   28   65 1   
    62   28   66 1   
    63   29   30 1   
    64   29   67 1   
    65   29   68 1   
    66   30   69 1   
    67   30   70 1   
    68   31   32 1   
    69   32   33 ar  
    70   32   37 ar  
    71   33   34 ar  
    72   33   71 1   
    73   34   35 ar  
    74   34   72 1   
    75   35   36 ar  
    76   35   73 1   
    77   36   37 ar  
    78   36   74 1   
    79   37   75 1   
@<TRIPOS>SUBSTRUCTURE
     1 POO         1 TEMP              0 ****  ****    0 ROOT
