@<TRIPOS>MOLECULE
POP
    9     8     1     0     0
SMALL
bcc


@<TRIPOS>ATOM
      1 P1          1.6720   -0.0150    0.0190 p5        1 POP      1.493900
      2 O1          2.1480   -1.3490   -0.5510 o         1 POP     -1.021500
      3 O2          2.1610    1.1420   -0.8490 o         1 POP     -1.021500
      4 O3          2.1550    0.1540    1.4580 o         1 POP     -1.021500
      5 O           0.0000   -0.0060    0.0190 os        1 POP     -0.855800
      6 P2         -1.6720    0.0020    0.0180 p5        1 POP      1.493900
      7 O4         -2.1600   -1.1550    0.8860 o         1 POP     -1.021500
      8 O5         -2.1550   -0.1670   -1.4200 o         1 POP     -1.021500
      9 O6         -2.1470    1.3360    0.5890 o         1 POP     -1.021500
@<TRIPOS>BOND
     1    1    2 1   
     2    1    3 1   
     3    1    4 1   
     4    1    5 1   
     5    5    6 1   
     6    6    7 1   
     7    6    8 1   
     8    6    9 1   
@<TRIPOS>SUBSTRUCTURE
     1 POP         1 TEMP              0 ****  ****    0 ROOT
