@<TRIPOS>MOLECULE
POS
   73    74     1     0     0
SMALL
bcc


@<TRIPOS>ATOM
      1 C1         -2.8520    1.5470   -1.3070 ca        1 POS      0.000100
      2 C2         -2.8640    2.5610   -0.3450 ca        1 POS     -0.112500
      3 C3         -3.9500    2.6220    0.5290 ca        1 POS     -0.108000
      4 C4         -4.9860    1.6900    0.4320 ca        1 POS     -0.086000
      5 C5         -4.9510    0.6870   -0.5400 ca        1 POS     -0.108000
      6 C6         -3.8780    0.6040   -1.4270 ca        1 POS     -0.112500
      7 O7         -1.8460    1.5970   -2.3030 os        1 POS     -0.165200
      8 C8         -0.8000    0.7670   -2.2000 ca        1 POS      0.325100
      9 C9          0.1550    0.8500   -3.2640 ca        1 POS     -0.206000
     10 C10         1.2450    0.0310   -3.2560 ca        1 POS      0.059000
     11 C11         1.4880   -0.9270   -2.2100 ca        1 POS     -0.723500
     12 C12         0.5160   -0.9640   -1.1510 ca        1 POS      0.059000
     13 C13        -0.5860   -0.1580   -1.1390 ca        1 POS     -0.206000
     14 S14         2.6620   -1.8760   -2.2570 s4        1 POS      1.691300
     15 O15         3.5000   -1.8620   -3.3310 o         1 POS     -0.449400
     16 O16         2.8210   -2.8060   -1.2780 o         1 POS     -0.449400
     17 N17         4.8410   -0.7920   -1.0730 n3        1 POS     -0.964800
     18 C18         5.8870   -1.7640   -1.2830 c3        1 POS      0.109800
     19 C19         7.2980   -1.3310   -0.8340 c3        1 POS      0.085100
     20 O20         7.7990   -0.2200   -1.5470 oh        1 POS     -0.610800
     21 C21         8.2730   -2.5170   -1.0140 c3        1 POS      0.075800
     22 N22         9.6860   -2.1000   -0.7230 n4        1 POS     -0.656800
     23 C23        10.7060   -3.1120   -1.1360 c         1 POS      0.521100
     24 O24        10.3360   -4.2310   -1.4500 o         1 POS     -0.368100
     25 C25        12.1740   -2.6530   -1.1370 c3        1 POS      0.070500
     26 C26        12.6290   -2.5570   -2.6040 c3        1 POS     -0.115400
     27 C27        14.0910   -2.1580   -2.7700 c3        1 POS     -0.075700
     28 C28        14.3680   -1.9600   -4.2510 c3        1 POS     -0.110100
     29 C29        14.4400   -0.9020   -2.0020 c3        1 POS     -0.110100
     30 N30        13.0090   -3.6110   -0.3400 n4        1 POS     -0.693800
     31 C31        12.6230   -3.6530    1.1440 c         1 POS      0.622700
     32 O32        11.5390   -3.1200    1.3710 o         1 POS     -0.520100
     33 C33        13.5630   -4.2870    2.0500 ca        1 POS     -0.181600
     34 C34        13.3230   -4.1370    3.4290 ca        1 POS     -0.181300
     35 C35        14.2230   -4.7500    4.3310 ca        1 POS      0.432200
     36 N36        15.2860   -5.4680    3.9380 nb        1 POS     -0.551000
     37 C37        14.6750   -5.0430    1.6270 ca        1 POS     -0.181300
     38 C38        15.5020   -5.6110    2.6120 ca        1 POS      0.432200
     39 H2         -2.0550    3.3050   -0.2970 ha        1 POS      0.156500
     40 H3         -3.9930    3.4180    1.2900 ha        1 POS      0.166500
     41 H4         -5.8450    1.7520    1.1230 ha        1 POS      0.168000
     42 H5         -5.7800   -0.0350   -0.6190 ha        1 POS      0.166500
     43 H6         -3.8530   -0.1630   -2.2150 ha        1 POS      0.156500
     44 H9         -0.0240    1.5760   -4.0790 ha        1 POS      0.203000
     45 H10         1.9730    0.0860   -4.0900 ha        1 POS      0.172000
     46 H12         0.6730   -1.6870   -0.3260 ha        1 POS      0.172000
     47 H13        -1.3280   -0.2130   -0.3200 ha        1 POS      0.203000
     48 HN7         4.6660   -0.6530   -0.0930 hn        1 POS      0.390800
     49 H181        5.6100   -2.7080   -0.7310 h1        1 POS      0.099700
     50 H182        5.9170   -1.9980   -2.3890 h1        1 POS      0.099700
     51 H19         7.2870   -1.0030    0.2470 h1        1 POS      0.105700
     52 H20         7.3910   -0.1870   -2.4250 ho        1 POS      0.444000
     53 H211        7.9950   -3.3590   -0.3190 hx        1 POS      0.127700
     54 H212        8.2350   -2.8940   -2.0760 hx        1 POS      0.127700
     55 HN2         9.8570   -1.2020   -1.2080 hn        1 POS      0.488800
     56 H25        12.2910   -1.6370   -0.6440 hx        1 POS      0.143700
     57 H261       12.4480   -3.5350   -3.1280 hc        1 POS      0.098700
     58 H262       11.9850   -1.7780   -3.0970 hc        1 POS      0.098700
     59 H27        14.7490   -3.0030   -2.4160 hc        1 POS      0.045700
     60 H281       15.4570   -1.7550   -4.4060 hc        1 POS      0.062700
     61 H282       14.0970   -2.8750   -4.8310 hc        1 POS      0.062700
     62 H283       13.7900   -1.0920   -4.6510 hc        1 POS      0.062700
     63 H291       15.4810   -0.5780   -2.2600 hc        1 POS      0.062700
     64 H292       14.3990   -1.0710   -0.8990 hc        1 POS      0.062700
     65 H293       13.7500   -0.0650   -2.2670 hc        1 POS      0.062700
     66 HN3        13.9960   -3.3120   -0.4240 hn        1 POS      0.491300
     67 H34        12.4640   -3.5600    3.8050 ha        1 POS      0.162500
     68 H35        14.0750   -4.6560    5.4290 h4        1 POS      0.082600
     69 H37        14.9180   -5.2260    0.5730 ha        1 POS      0.162500
     70 H38        16.3890   -6.2180    2.3330 h4        1 POS      0.082600
     71 H172        5.0810    0.0910   -1.4890 hn        1 POS      0.390800
     72 H222        9.7910   -1.9400    0.2940 hn        1 POS      0.488800
     73 H302       12.9290   -4.5600   -0.7360 hn        1 POS      0.491300
@<TRIPOS>BOND
     1    1    2 ar  
     2    1    6 ar  
     3    1    7 1   
     4    2    3 ar  
     5    2   39 1   
     6    3    4 ar  
     7    3   40 1   
     8    4    5 ar  
     9    4   41 1   
    10    5    6 ar  
    11    5   42 1   
    12    6   43 1   
    13    7    8 1   
    14    8    9 ar  
    15    8   13 ar  
    16    9   10 ar  
    17    9   44 1   
    18   10   11 ar  
    19   10   45 1   
    20   11   12 ar  
    21   11   14 1   
    22   12   13 ar  
    23   12   46 1   
    24   13   47 1   
    25   14   15 1   
    26   14   16 1   
    27   17   18 1   
    28   17   48 1   
    29   17   71 1   
    30   18   19 1   
    31   18   49 1   
    32   18   50 1   
    33   19   20 1   
    34   19   21 1   
    35   19   51 1   
    36   20   52 1   
    37   21   22 1   
    38   21   53 1   
    39   21   54 1   
    40   22   23 1   
    41   22   55 1   
    42   22   72 1   
    43   23   24 2   
    44   23   25 1   
    45   25   26 1   
    46   25   30 1   
    47   25   56 1   
    48   26   27 1   
    49   26   57 1   
    50   26   58 1   
    51   27   28 1   
    52   27   29 1   
    53   27   59 1   
    54   28   60 1   
    55   28   61 1   
    56   28   62 1   
    57   29   63 1   
    58   29   64 1   
    59   29   65 1   
    60   30   31 1   
    61   30   66 1   
    62   30   73 1   
    63   31   32 2   
    64   31   33 1   
    65   33   34 ar  
    66   33   37 ar  
    67   34   35 ar  
    68   34   67 1   
    69   35   36 ar  
    70   35   68 1   
    71   36   38 ar  
    72   37   38 ar  
    73   37   69 1   
    74   38   70 1   
@<TRIPOS>SUBSTRUCTURE
     1 POS         1 TEMP              0 ****  ****    0 ROOT
