@<TRIPOS>MOLECULE
POS
   73    74     1     0     0
SMALL
bcc


@<TRIPOS>ATOM
      1 C1         -2.8510    1.5530   -1.2780 ca        1 POS      0.000100
      2 C2         -2.8560    2.5680   -0.3160 ca        1 POS     -0.112500
      3 C3         -3.9380    2.6330    0.5620 ca        1 POS     -0.108000
      4 C4         -4.9780    1.7050    0.4700 ca        1 POS     -0.086000
      5 C5         -4.9510    0.7020   -0.5020 ca        1 POS     -0.108000
      6 C6         -3.8810    0.6150   -1.3930 ca        1 POS     -0.112500
      7 O7         -1.8500    1.6000   -2.2780 os        1 POS     -0.165200
      8 C8         -0.8040    0.7700   -2.1770 ca        1 POS      0.325100
      9 C9          0.1470    0.8480   -3.2450 ca        1 POS     -0.206000
     10 C10         1.2360    0.0280   -3.2390 ca        1 POS      0.059000
     11 C11         1.4830   -0.9270   -2.1900 ca        1 POS     -0.723500
     12 C12         0.5160   -0.9580   -1.1270 ca        1 POS      0.059000
     13 C13        -0.5860   -0.1520   -1.1130 ca        1 POS     -0.206000
     14 S14         2.6560   -1.8760   -2.2390 s4        1 POS      1.691300
     15 O15         3.4900   -1.8670   -3.3160 o         1 POS     -0.449400
     16 O16         2.8190   -2.8030   -1.2560 o         1 POS     -0.449400
     17 N17         4.8410   -0.7890   -1.0690 n8        1 POS     -0.964800
     18 C18         5.8860   -1.7630   -1.2780 c3        1 POS      0.109800
     19 C19         7.2980   -1.3300   -0.8380 c3        1 POS      0.085100
     20 O20         7.7980   -0.2240   -1.5590 oh        1 POS     -0.610800
     21 C21         8.2710   -2.5180   -1.0140 c3        1 POS      0.075800
     22 N22         9.6860   -2.1010   -0.7330 ny        1 POS     -0.656800
     23 C23        10.7030   -3.1180   -1.1430 c         1 POS      0.521100
     24 O24        10.3300   -4.2390   -1.4460 o         1 POS     -0.368100
     25 C25        12.1720   -2.6620   -1.1550 c3        1 POS      0.070500
     26 C26        12.6200   -2.5780   -2.6240 c3        1 POS     -0.115400
     27 C27        14.0820   -2.1820   -2.8010 c3        1 POS     -0.075700
     28 C28        14.3520   -1.9970   -4.2850 c3        1 POS     -0.110100
     29 C29        14.4350   -0.9210   -2.0450 c3        1 POS     -0.110100
     30 N30        13.0090   -3.6140   -0.3540 ny        1 POS     -0.693800
     31 C31        12.6300   -3.6430    1.1320 c         1 POS      0.622700
     32 O32        11.5480   -3.1070    1.3600 o         1 POS     -0.520100
     33 C33        13.5740   -4.2710    2.0390 ca        1 POS     -0.181600
     34 C34        13.3410   -4.1090    3.4180 ca        1 POS     -0.181300
     35 C35        14.2440   -4.7160    4.3210 ca        1 POS      0.432200
     36 N36        15.3050   -5.4390    3.9290 nb        1 POS     -0.551000
     37 C37        14.6830   -5.0310    1.6170 ca        1 POS     -0.181300
     38 C38        15.5130   -5.5920    2.6030 ca        1 POS      0.432200
     39 H2         -2.0440    3.3090   -0.2720 ha        1 POS      0.156500
     40 H3         -3.9750    3.4300    1.3230 ha        1 POS      0.166500
     41 H4         -5.8330    1.7710    1.1640 ha        1 POS      0.168000
     42 H5         -5.7830   -0.0170   -0.5770 ha        1 POS      0.166500
     43 H6         -3.8620   -0.1520   -2.1810 ha        1 POS      0.156500
     44 H9         -0.0350    1.5700   -4.0620 ha        1 POS      0.203000
     45 H10         1.9600    0.0790   -4.0760 ha        1 POS      0.172000
     46 H12         0.6760   -1.6780   -0.2990 ha        1 POS      0.172000
     47 H13        -1.3240   -0.2030   -0.2900 ha        1 POS      0.203000
     48 HN7         5.0800    0.0910   -1.4910 hn        1 POS      0.390800
     49 H181        5.6090   -2.7040   -0.7190 h1        1 POS      0.099700
     50 H182        5.9100   -2.0040   -2.3830 h1        1 POS      0.099700
     51 H19         7.2930   -0.9950    0.2420 h1        1 POS      0.105700
     52 H20         7.3860   -0.1960   -2.4360 ho        1 POS      0.444000
     53 H211        8.2280   -2.9020   -2.0740 hx        1 POS      0.127700
     54 H212        7.9960   -3.3560   -0.3130 hx        1 POS      0.127700
     55 HN2         9.8560   -1.2070   -1.2250 hn        1 POS      0.488800
     56 H25        12.2920   -1.6420   -0.6710 hx        1 POS      0.143700
     57 H261       12.4340   -3.5600   -3.1390 hc        1 POS      0.098700
     58 H262       11.9740   -1.8020   -3.1200 hc        1 POS      0.098700
     59 H27        14.7390   -3.0250   -2.4430 hc        1 POS      0.045700
     60 H281       14.0770   -2.9160   -4.8560 hc        1 POS      0.062700
     61 H282       15.4410   -1.7950   -4.4470 hc        1 POS      0.062700
     62 H283       13.7730   -1.1320   -4.6890 hc        1 POS      0.062700
     63 H291       15.4760   -0.6000   -2.3110 hc        1 POS      0.062700
     64 H292       13.7450   -0.0840   -2.3130 hc        1 POS      0.062700
     65 H293       14.4000   -1.0800   -0.9400 hc        1 POS      0.062700
     66 HN3        12.9260   -4.5660   -0.7410 hn        1 POS      0.491300
     67 H34        12.4840   -3.5280    3.7930 ha        1 POS      0.162500
     68 H35        14.1010   -4.6130    5.4180 h4        1 POS      0.082600
     69 H37        14.9200   -5.2230    0.5630 ha        1 POS      0.162500
     70 H38        16.3990   -6.2030    2.3240 h4        1 POS      0.082600
     71 H172        4.6710   -0.6450   -0.0890 hn        1 POS      0.390800
     72 H222        9.7960   -1.9350    0.2820 hn        1 POS      0.488800
     73 H302       13.9960   -3.3170   -0.4450 hn        1 POS      0.491300
@<TRIPOS>BOND
     1    1    2 ar  
     2    1    6 ar  
     3    1    7 1   
     4    2    3 ar  
     5    2   39 1   
     6    3    4 ar  
     7    3   40 1   
     8    4    5 ar  
     9    4   41 1   
    10    5    6 ar  
    11    5   42 1   
    12    6   43 1   
    13    7    8 1   
    14    8    9 ar  
    15    8   13 ar  
    16    9   10 ar  
    17    9   44 1   
    18   10   11 ar  
    19   10   45 1   
    20   11   12 ar  
    21   11   14 1   
    22   12   13 ar  
    23   12   46 1   
    24   13   47 1   
    25   14   15 1   
    26   14   16 1   
    27   17   18 1   
    28   17   48 1   
    29   17   71 1   
    30   18   19 1   
    31   18   49 1   
    32   18   50 1   
    33   19   20 1   
    34   19   21 1   
    35   19   51 1   
    36   20   52 1   
    37   21   22 1   
    38   21   53 1   
    39   21   54 1   
    40   22   23 1   
    41   22   55 1   
    42   22   72 1   
    43   23   24 2   
    44   23   25 1   
    45   25   26 1   
    46   25   30 1   
    47   25   56 1   
    48   26   27 1   
    49   26   57 1   
    50   26   58 1   
    51   27   28 1   
    52   27   29 1   
    53   27   59 1   
    54   28   60 1   
    55   28   61 1   
    56   28   62 1   
    57   29   63 1   
    58   29   64 1   
    59   29   65 1   
    60   30   31 1   
    61   30   66 1   
    62   30   73 1   
    63   31   32 2   
    64   31   33 1   
    65   33   34 ar  
    66   33   37 ar  
    67   34   35 ar  
    68   34   67 1   
    69   35   36 ar  
    70   35   68 1   
    71   36   38 ar  
    72   37   38 ar  
    73   37   69 1   
    74   38   70 1   
@<TRIPOS>SUBSTRUCTURE
     1 POS         1 TEMP              0 ****  ****    0 ROOT
