@<TRIPOS>MOLECULE
POS
   70    72     1     0     0
SMALL
bcc


@<TRIPOS>ATOM
      1 C1         -3.8560    0.7440   -3.5890 ca        1 POS      0.073100
      2 C2         -3.7880    0.9500   -2.2060 ca        1 POS     -0.131000
      3 C3         -4.8670    0.5570   -1.4160 ca        1 POS     -0.119000
      4 C4         -5.9900   -0.0320   -2.0000 ca        1 POS     -0.128000
      5 C5         -6.0430   -0.2310   -3.3800 ca        1 POS     -0.119000
      6 C6         -4.9740    0.1510   -4.1890 ca        1 POS     -0.131000
      7 O7         -2.8630    1.2530   -4.4330 os        1 POS     -0.245200
      8 C8         -1.6340    0.6220   -4.4020 ca        1 POS      0.190100
      9 C9         -0.6320    1.2430   -5.1730 ca        1 POS     -0.203000
     10 C10         0.6300    0.6710   -5.2130 ca        1 POS      0.015000
     11 C11         0.9250   -0.5040   -4.5030 ca        1 POS     -0.431500
     12 C12        -0.0940   -1.1070   -3.7560 ca        1 POS      0.015000
     13 C13        -1.3690   -0.5580   -3.6930 ca        1 POS     -0.203000
     14 S14         2.4570   -1.1890   -4.5830 sy        1 POS      1.523200
     15 O15         3.0620   -0.7920   -5.7940 o         1 POS     -0.655300
     16 O16         2.3510   -2.5760   -4.3330 o         1 POS     -0.655300
     17 N17         3.2450   -0.4810   -3.3560 n3        1 POS     -0.913100
     18 C18         3.4810   -1.0810   -2.0810 c3        1 POS      0.200800
     19 C19         3.0770   -0.1850   -0.8930 c3        1 POS      0.088100
     20 O20         3.7680    1.0510   -0.9180 oh        1 POS     -0.596800
     21 C21         3.3580   -0.9500    0.4170 c3        1 POS      0.052000
     22 N22         2.9860   -0.2170    1.5940 n         1 POS     -0.552900
     23 C23         2.0390   -0.6850    2.4810 c         1 POS      0.630100
     24 O24         1.5730   -1.8390    2.3950 o         1 POS     -0.616100
     25 C25         1.6330    0.2670    3.6400 c3        1 POS      0.035700
     26 C26         2.7000    0.1060    4.7350 c3        1 POS     -0.081400
     27 C27         2.4850    1.0190    5.9310 c3        1 POS     -0.064700
     28 C28         3.5830    0.7780    6.9490 c3        1 POS     -0.097100
     29 C29         2.4500    2.4790    5.5310 c3        1 POS     -0.097100
     30 N30         0.2950   -0.0220    4.0880 n         1 POS     -0.545900
     31 C31        -0.7450    0.8710    3.9090 c         1 POS      0.669700
     32 O32        -0.5380    2.0460    3.5440 o         1 POS     -0.600100
     33 C33        -2.1190    0.3870    4.2330 ca        1 POS     -0.103600
     34 C34        -3.0070    1.2600    4.8710 ca        1 POS     -0.209300
     35 C35        -4.3060    0.8000    5.1540 ca        1 POS      0.387700
     36 N36        -4.7440   -0.4340    4.8380 nb        1 POS     -0.648000
     37 C37        -2.5560   -0.8980    3.8920 ca        1 POS     -0.209300
     38 C38        -3.8780   -1.2570    4.2170 ca        1 POS      0.387700
     39 H2         -2.9000    1.4200   -1.7600 ha        1 POS      0.151000
     40 H3         -4.8320    0.7160   -0.3280 ha        1 POS      0.140500
     41 H4         -6.8380   -0.3380   -1.3690 ha        1 POS      0.139000
     42 H5         -6.9320   -0.6930   -3.8360 ha        1 POS      0.140500
     43 H6         -5.0030    0.0080   -5.2790 ha        1 POS      0.151000
     44 H9         -0.8650    2.1610   -5.7310 ha        1 POS      0.158500
     45 H10         1.4190    1.1380   -5.8310 ha        1 POS      0.155500
     46 H12         0.1180   -2.0500   -3.2200 ha        1 POS      0.155500
     47 H13        -2.1610   -1.0420   -3.1030 ha        1 POS      0.158500
     48 HN7         3.5830    0.4520   -3.4160 hn        1 POS      0.453800
     49 H181        4.5800   -1.3210   -1.9780 h1        1 POS      0.061700
     50 H182        2.9090   -2.0520   -2.0140 h1        1 POS      0.061700
     51 H19         1.9920    0.1090   -0.9610 h1        1 POS      0.093700
     52 H20         4.7130    0.8550   -0.9130 ho        1 POS      0.402000
     53 H211        4.4650   -1.1650    0.4740 h1        1 POS      0.070700
     54 H212        2.8070   -1.9330    0.3940 h1        1 POS      0.070700
     55 HN2         3.2120    0.7520    1.5970 hn        1 POS      0.320500
     56 H25         1.6520    1.3390    3.2720 h1        1 POS      0.103700
     57 H261        3.6970    0.3320    4.2730 hc        1 POS      0.055200
     58 H262        2.7190   -0.9600    5.0850 hc        1 POS      0.055200
     59 H27         1.4990    0.7600    6.4120 hc        1 POS      0.055700
     60 H281        3.4090    1.4020    7.8580 hc        1 POS      0.038200
     61 H282        3.6050   -0.2960    7.2540 hc        1 POS      0.038200
     62 H283        4.5800    1.0460    6.5220 hc        1 POS      0.038200
     63 H291        3.3510    2.7460    4.9290 hc        1 POS      0.038200
     64 H292        1.5350    2.7000    4.9260 hc        1 POS      0.038200
     65 H293        2.4310    3.1260    6.4420 hc        1 POS      0.038200
     66 HN3         0.0920   -0.9780    4.2760 hn        1 POS      0.328500
     67 H34        -2.6950    2.2820    5.1320 ha        1 POS      0.160000
     68 H35        -5.0380    1.4560    5.6600 h4        1 POS      0.029600
     69 H37        -1.9060   -1.6150    3.3720 ha        1 POS      0.160000
     70 H38        -4.2650   -2.2610    3.9650 h4        1 POS      0.029600
@<TRIPOS>BOND
     1    1    2 ar  
     2    1    6 ar  
     3    1    7 1   
     4    2    3 ar  
     5    2   39 1   
     6    3    4 ar  
     7    3   40 1   
     8    4    5 ar  
     9    4   41 1   
    10    5    6 ar  
    11    5   42 1   
    12    6   43 1   
    13    7    8 1   
    14    8    9 ar  
    15    8   13 ar  
    16    9   10 ar  
    17    9   44 1   
    18   10   11 ar  
    19   10   45 1   
    20   11   12 ar  
    21   11   14 1   
    22   12   13 ar  
    23   12   46 1   
    24   13   47 1   
    25   14   15 2   
    26   14   16 2   
    27   14   17 1   
    28   17   18 1   
    29   17   48 1   
    30   18   19 1   
    31   18   49 1   
    32   18   50 1   
    33   19   20 1   
    34   19   21 1   
    35   19   51 1   
    36   20   52 1   
    37   21   22 1   
    38   21   53 1   
    39   21   54 1   
    40   22   23 1   
    41   22   55 1   
    42   23   24 2   
    43   23   25 1   
    44   25   26 1   
    45   25   30 1   
    46   25   56 1   
    47   26   27 1   
    48   26   57 1   
    49   26   58 1   
    50   27   28 1   
    51   27   29 1   
    52   27   59 1   
    53   28   60 1   
    54   28   61 1   
    55   28   62 1   
    56   29   63 1   
    57   29   64 1   
    58   29   65 1   
    59   30   31 1   
    60   30   66 1   
    61   31   32 2   
    62   31   33 1   
    63   33   34 ar  
    64   33   37 ar  
    65   34   35 ar  
    66   34   67 1   
    67   35   36 ar  
    68   35   68 1   
    69   36   38 ar  
    70   37   38 ar  
    71   37   69 1   
    72   38   70 1   
@<TRIPOS>SUBSTRUCTURE
     1 POS         1 TEMP              0 ****  ****    0 ROOT
