@<TRIPOS>MOLECULE
POS
   73    74     1     0     0
SMALL
bcc


@<TRIPOS>ATOM
      1 C1         -2.8580    1.5400   -1.1900 ca        1 POS     -0.000900
      2 C2         -2.8610    2.5290   -0.2020 ca        1 POS     -0.112500
      3 C3         -3.9420    2.5710    0.6790 ca        1 POS     -0.108000
      4 C4         -4.9830    1.6460    0.5640 ca        1 POS     -0.086000
      5 C5         -4.9570    0.6690   -0.4340 ca        1 POS     -0.108000
      6 C6         -3.8890    0.6050   -1.3290 ca        1 POS     -0.112500
      7 O7         -1.8590    1.6120   -2.1900 os        1 POS     -0.165200
      8 C8         -0.8100    0.7820   -2.1100 ca        1 POS      0.325100
      9 C9          0.1390    0.8870   -3.1780 ca        1 POS     -0.206000
     10 C10         1.2290    0.0690   -3.1920 ca        1 POS      0.059000
     11 C11         1.4800   -0.9090   -2.1660 ca        1 POS     -0.723500
     12 C12         0.5140   -0.9670   -1.1030 ca        1 POS      0.059000
     13 C13        -0.5890   -0.1640   -1.0680 ca        1 POS     -0.206000
     14 S14         2.6550   -1.8550   -2.2390 s4        1 POS      1.691300
     15 O15         3.4860   -1.8190   -3.3170 o         1 POS     -0.449400
     16 O16         2.8210   -2.8030   -1.2790 o         1 POS     -0.449400
     17 N17         4.8390   -0.7900   -1.0480 n3        1 POS     -0.964800
     18 C18         5.8850   -1.7570   -1.2810 c3        1 POS      0.109800
     19 C19         7.2980   -1.3300   -0.8330 c3        1 POS      0.085100
     20 O20         7.7940   -0.2070   -1.5310 oh        1 POS     -0.610800
     21 C21         8.2730   -2.5120   -1.0380 c3        1 POS      0.075800
     22 N22         9.6870   -2.0990   -0.7500 n4        1 POS     -0.656800
     23 C23        10.7060   -3.1040   -1.1830 c         1 POS      0.521100
     24 O24        10.3350   -4.2190   -1.5100 o         1 POS     -0.368100
     25 C25        12.1740   -2.6440   -1.1880 c3        1 POS      0.071500
     26 C26        12.6190   -2.5280   -2.6560 c3        1 POS     -0.115400
     27 C27        14.0800   -2.1260   -2.8270 c3        1 POS     -0.075700
     28 C28        14.3470   -1.9090   -4.3070 c3        1 POS     -0.110100
     29 C29        14.4320   -0.8800   -2.0450 c3        1 POS     -0.110100
     30 N30        13.0140   -3.6120   -0.4090 n4        1 POS     -0.693800
     31 C31        12.6380   -3.6740    1.0770 c         1 POS      0.622700
     32 O32        11.5550   -3.1460    1.3180 o         1 POS     -0.520100
     33 C33        13.5850   -4.3200    1.9680 ca        1 POS     -0.181600
     34 C34        13.3530   -4.1880    3.3500 ca        1 POS     -0.181300
     35 C35        14.2590   -4.8120    4.2380 ca        1 POS      0.432200
     36 N36        15.3210   -5.5240    3.8290 nb        1 POS     -0.551000
     37 C37        14.6940   -5.0690    1.5280 ca        1 POS     -0.181300
     38 C38        15.5270   -5.6490    2.5000 ca        1 POS      0.432200
     39 H2         -2.0490    3.2680   -0.1390 ha        1 POS      0.156500
     40 H3         -3.9770    3.3480    1.4610 ha        1 POS      0.166500
     41 H4         -5.8370    1.6940    1.2610 ha        1 POS      0.168000
     42 H5         -5.7900   -0.0470   -0.5270 ha        1 POS      0.166500
     43 H6         -3.8720   -0.1410   -2.1370 ha        1 POS      0.156500
     44 H9         -0.0460    1.6280   -3.9770 ha        1 POS      0.203000
     45 H10         1.9520    0.1410   -4.0290 ha        1 POS      0.172000
     46 H12         0.6770   -1.7060   -0.2930 ha        1 POS      0.172000
     47 H13        -1.3260   -0.2350   -0.2460 ha        1 POS      0.203000
     48 HN7         5.0760    0.1000   -1.4510 hn        1 POS      0.390800
     49 H181        5.6120   -2.7110   -0.7420 h1        1 POS      0.099700
     50 H182        5.9080   -1.9730   -2.3910 h1        1 POS      0.099700
     51 H19         7.2940   -1.0200    0.2530 h1        1 POS      0.105700
     52 H20         7.3800   -0.1610   -2.4060 ho        1 POS      0.444000
     53 H211        8.0010   -3.3660   -0.3550 hx        1 POS      0.127700
     54 H212        8.2290   -2.8730   -2.1060 hx        1 POS      0.127700
     55 HN2         9.7990   -1.9540    0.2680 hn        1 POS      0.488800
     56 H25        12.2930   -1.6350   -0.6830 hx        1 POS      0.143700
     57 H261       11.9710   -1.7430   -3.1350 hc        1 POS      0.098700
     58 H262       12.4340   -3.4990   -3.1920 hc        1 POS      0.098700
     59 H27        14.7400   -2.9750   -2.4880 hc        1 POS      0.045700
     60 H281       15.4350   -1.7010   -4.4660 hc        1 POS      0.062700
     61 H282       13.7650   -1.0360   -4.6910 hc        1 POS      0.062700
     62 H283       14.0730   -2.8160   -4.8970 hc        1 POS      0.062700
     63 H291       14.3990   -1.0640   -0.9430 hc        1 POS      0.062700
     64 H292       15.4720   -0.5530   -2.3050 hc        1 POS      0.062700
     65 H293       13.7410   -0.0400   -2.2940 hc        1 POS      0.062700
     66 HN3        14.0000   -3.3110   -0.4950 hn        1 POS      0.491300
     67 H34        12.4960   -3.6170    3.7400 ha        1 POS      0.162500
     68 H35        14.1180   -4.7330    5.3380 h4        1 POS      0.082600
     69 H37        14.9300   -5.2370    0.4690 ha        1 POS      0.162500
     70 H38        16.4130   -6.2520    2.2070 h4        1 POS      0.082600
     71 H172        4.6700   -0.6680   -0.0650 hn        1 POS      0.390800
     72 H222        9.8550   -1.1930   -1.2230 hn        1 POS      0.488800
     73 H302       12.9320   -4.5560   -0.8170 hn        1 POS      0.491300
@<TRIPOS>BOND
     1    1    2 ar  
     2    1    6 ar  
     3    1    7 1   
     4    2    3 ar  
     5    2   39 1   
     6    3    4 ar  
     7    3   40 1   
     8    4    5 ar  
     9    4   41 1   
    10    5    6 ar  
    11    5   42 1   
    12    6   43 1   
    13    7    8 1   
    14    8    9 ar  
    15    8   13 ar  
    16    9   10 ar  
    17    9   44 1   
    18   10   11 ar  
    19   10   45 1   
    20   11   12 ar  
    21   11   14 1   
    22   12   13 ar  
    23   12   46 1   
    24   13   47 1   
    25   14   15 1   
    26   14   16 1   
    27   17   18 1   
    28   17   48 1   
    29   17   71 1   
    30   18   19 1   
    31   18   49 1   
    32   18   50 1   
    33   19   20 1   
    34   19   21 1   
    35   19   51 1   
    36   20   52 1   
    37   21   22 1   
    38   21   53 1   
    39   21   54 1   
    40   22   23 1   
    41   22   55 1   
    42   22   72 1   
    43   23   24 2   
    44   23   25 1   
    45   25   26 1   
    46   25   30 1   
    47   25   56 1   
    48   26   27 1   
    49   26   57 1   
    50   26   58 1   
    51   27   28 1   
    52   27   29 1   
    53   27   59 1   
    54   28   60 1   
    55   28   61 1   
    56   28   62 1   
    57   29   63 1   
    58   29   64 1   
    59   29   65 1   
    60   30   31 1   
    61   30   66 1   
    62   30   73 1   
    63   31   32 2   
    64   31   33 1   
    65   33   34 ar  
    66   33   37 ar  
    67   34   35 ar  
    68   34   67 1   
    69   35   36 ar  
    70   35   68 1   
    71   36   38 ar  
    72   37   38 ar  
    73   37   69 1   
    74   38   70 1   
@<TRIPOS>SUBSTRUCTURE
     1 POS         1 TEMP              0 ****  ****    0 ROOT
