@<TRIPOS>MOLECULE
POT
   32    32     1     0     0
SMALL
bcc


@<TRIPOS>ATOM
      1 P           1.2900    0.4100   -0.1380 p5        1 POT      1.341200
      2 C1          1.1910   -0.9230   -1.0750 c3        1 POT     -0.426300
      3 O1          2.4840    1.2410   -0.2170 o         1 POT     -0.767300
      4 O2         -0.0330    1.2520   -0.5210 os        1 POT     -0.573200
      5 C2          0.0020    2.6640   -0.4060 c3        1 POT      0.176100
      6 C3         -0.3550    3.2950   -1.7500 c3        1 POT     -0.091400
      7 C4          0.7800    3.2600   -2.7380 c3        1 POT     -0.096100
      8 C5         -1.0470    3.0600    0.6510 c3        1 POT      0.109400
      9 O3         -0.7380    4.4130    0.9960 os        1 POT     -0.332900
     10 C6         -3.3730    5.0420    3.5300 ca        1 POT     -0.097000
     11 C7         -3.0380    6.3480    3.8770 ca        1 POT     -0.162000
     12 C8         -1.9510    6.9750    3.2630 ca        1 POT     -0.097000
     13 C9         -1.1980    6.3060    2.3050 ca        1 POT     -0.177500
     14 C10        -1.5470    4.9860    1.9620 ca        1 POT      0.124100
     15 C11        -2.6330    4.3490    2.5710 ca        1 POT     -0.177500
     16 Cl1         0.9110   -0.2620    1.6800 cl        1 POT     -0.250300
     17 H41         0.9400    2.2270   -3.1280 hc        1 POT      0.039033
     18 H42         0.5490    3.9250   -3.6060 hc        1 POT      0.039033
     19 H43         1.7310    3.6100   -2.2680 hc        1 POT      0.039033
     20 H31        -1.2500    2.7690   -2.1740 hc        1 POT      0.061200
     21 H32        -0.6440    4.3610   -1.5440 hc        1 POT      0.061200
     22 H2          1.0320    2.9930   -0.0770 h1        1 POT      0.094700
     23 H51        -2.0800    2.9980    0.2220 h1        1 POT      0.052700
     24 H52        -0.9740    2.4080    1.5600 h1        1 POT      0.052700
     25 H11        -2.9100    3.3180    2.3110 ha        1 POT      0.143500
     26 H7         -3.6260    6.8860    4.6330 ha        1 POT      0.133000
     27 H8         -1.6850    8.0070    3.5380 ha        1 POT      0.133000
     28 H9         -0.3390    6.7840    1.8140 ha        1 POT      0.143500
     29 H11A        0.1450   -1.1480   -1.4090 hc        1 POT      0.123367
     30 H12         1.7940   -0.8070   -2.0130 hc        1 POT      0.123367
     31 H13         1.5650   -1.8590   -0.5900 hc        1 POT      0.123367
     32 H6         -4.2280    4.5460    4.0140 ha        1 POT      0.133000
@<TRIPOS>BOND
     1    1    2 1   
     2    1    3 2   
     3    1    4 1   
     4    1   16 1   
     5    2   29 1   
     6    2   30 1   
     7    2   31 1   
     8    4    5 1   
     9    5    6 1   
    10    5    8 1   
    11    5   22 1   
    12    6    7 1   
    13    6   20 1   
    14    6   21 1   
    15    7   17 1   
    16    7   18 1   
    17    7   19 1   
    18    8    9 1   
    19    8   23 1   
    20    8   24 1   
    21    9   14 1   
    22   10   11 ar  
    23   10   15 ar  
    24   10   32 1   
    25   11   12 ar  
    26   11   26 1   
    27   12   13 ar  
    28   12   27 1   
    29   13   14 ar  
    30   13   28 1   
    31   14   15 ar  
    32   15   25 1   
@<TRIPOS>SUBSTRUCTURE
     1 POT         1 TEMP              0 ****  ****    0 ROOT
