@<TRIPOS>MOLECULE
POT
   32    32     1     0     0
SMALL
bcc


@<TRIPOS>ATOM
      1 P           3.9640    0.6940    2.8210 p5        1 POT      1.341200
      2 C1          4.3060    0.5100    1.2350 c3        1 POT     -0.426300
      3 O1          2.5750    0.6180    3.2560 o         1 POT     -0.767300
      4 O2          4.8650   -0.4310    3.5450 os        1 POT     -0.573200
      5 C2          4.4100   -0.9830    4.7690 c3        1 POT      0.176100
      6 C3          4.3060   -2.5000    4.6370 c3        1 POT     -0.091400
      7 C4          3.0820   -2.9440    3.8820 c3        1 POT     -0.096100
      8 C5          5.4540   -0.6240    5.8440 c3        1 POT      0.109400
      9 O3          4.8030   -0.8700    7.0940 os        1 POT     -0.332900
     10 C6          7.5150    0.1070    9.4290 ca        1 POT     -0.097000
     11 C7          6.8530   -0.1050   10.6360 ca        1 POT     -0.162000
     12 C8          5.5320   -0.5600   10.6360 ca        1 POT     -0.097000
     13 C9          4.8700   -0.8060    9.4390 ca        1 POT     -0.177500
     14 C10         5.5490   -0.5900    8.2250 ca        1 POT      0.124100
     15 C11         6.8720   -0.1330    8.2140 ca        1 POT     -0.177500
     16 CL1         4.8520    2.3910    3.3010 cl        1 POT     -0.250300
     17 H41         2.1690   -2.4180    4.2550 hc        1 POT      0.039033
     18 H42         3.1860   -2.7350    2.7910 hc        1 POT      0.039033
     19 H43         2.9340   -4.0440    4.0100 hc        1 POT      0.039033
     20 H31         4.2780   -2.9180    5.6800 hc        1 POT      0.061200
     21 H32         5.2300   -2.8880    4.1340 hc        1 POT      0.061200
     22 H2          3.4060   -0.5400    5.0350 h1        1 POT      0.094700
     23 H51         6.3590   -1.2760    5.7480 h1        1 POT      0.052700
     24 H52         5.7540    0.4540    5.7760 h1        1 POT      0.052700
     25 H11         7.4080    0.0400    7.2710 ha        1 POT      0.143500
     26 H7          7.3670    0.0870   11.5880 ha        1 POT      0.133000
     27 H8          5.0090   -0.7250   11.5900 ha        1 POT      0.133000
     28 H9          3.8300   -1.1620    9.4220 ha        1 POT      0.143500
     29 H11A        5.2930    0.0100    1.0540 hc        1 POT      0.123367
     30 H12         3.5400   -0.1300    0.7240 hc        1 POT      0.123367
     31 H13         4.3370    1.4650    0.6530 hc        1 POT      0.123367
     32 H6          8.5550    0.4670    9.4270 ha        1 POT      0.133000
@<TRIPOS>BOND
     1    1    2 1   
     2    1    3 2   
     3    1    4 1   
     4    1   16 1   
     5    2   29 1   
     6    2   30 1   
     7    2   31 1   
     8    4    5 1   
     9    5    6 1   
    10    5    8 1   
    11    5   22 1   
    12    6    7 1   
    13    6   20 1   
    14    6   21 1   
    15    7   17 1   
    16    7   18 1   
    17    7   19 1   
    18    8    9 1   
    19    8   23 1   
    20    8   24 1   
    21    9   14 1   
    22   10   11 ar  
    23   10   15 ar  
    24   10   32 1   
    25   11   12 ar  
    26   11   26 1   
    27   12   13 ar  
    28   12   27 1   
    29   13   14 ar  
    30   13   28 1   
    31   14   15 ar  
    32   15   25 1   
@<TRIPOS>SUBSTRUCTURE
     1 POT         1 TEMP              0 ****  ****    0 ROOT
