@<TRIPOS>MOLECULE
POT
   32    32     1     0     0
SMALL
bcc


@<TRIPOS>ATOM
      1 P           1.2860    0.4200   -0.1830 p5        1 POT      1.341200
      2 C1          1.1620   -0.9250   -1.1000 c3        1 POT     -0.426300
      3 O1          2.4700    1.2600   -0.3200 o         1 POT     -0.767300
      4 O2         -0.0580    1.2460   -0.5220 os        1 POT     -0.573200
      5 C2         -0.0310    2.6600   -0.4260 c3        1 POT      0.176100
      6 C3         -0.4480    3.2710   -1.7600 c3        1 POT     -0.091400
      7 C4          0.6470    3.2350   -2.7930 c3        1 POT     -0.096100
      8 C5         -1.0400    3.0590    0.6680 c3        1 POT      0.109400
      9 O3         -0.7280    4.4180    0.9870 os        1 POT     -0.332900
     10 C6         -3.2620    5.0540    3.6200 ca        1 POT     -0.097000
     11 C7         -2.9210    6.3650    3.9420 ca        1 POT     -0.162000
     12 C8         -1.8640    6.9930    3.2790 ca        1 POT     -0.097000
     13 C9         -1.1460    6.3200    2.2980 ca        1 POT     -0.177500
     14 C10        -1.5000    4.9940    1.9800 ca        1 POT      0.124100
     15 C11        -2.5570    4.3560    2.6380 ca        1 POT     -0.177500
     16 CL1         0.9880   -0.2330    1.6560 cl        1 POT     -0.250300
     17 H41         0.3750    3.8870   -3.6590 hc        1 POT      0.039033
     18 H42         0.8000    2.1980   -3.1780 hc        1 POT      0.039033
     19 H43         1.6130    3.5980   -2.3660 hc        1 POT      0.039033
     20 H31        -0.7370    4.3380   -1.5550 hc        1 POT      0.061200
     21 H32        -1.3540    2.7330   -2.1420 hc        1 POT      0.061200
     22 H2          1.0080    3.0010   -0.1420 h1        1 POT      0.094700
     23 H51        -2.0890    2.9860    0.2820 h1        1 POT      0.052700
     24 H52        -0.9260    2.4180    1.5800 h1        1 POT      0.052700
     25 H11        -2.8380    3.3220    2.3980 ha        1 POT      0.143500
     26 H7         -3.4820    6.9070    4.7170 ha        1 POT      0.133000
     27 H8         -1.5940    8.0290    3.5340 ha        1 POT      0.133000
     28 H9         -0.3100    6.7980    1.7680 ha        1 POT      0.143500
     29 H11A        1.5650   -1.8520   -0.6200 hc        1 POT      0.123367
     30 H12         0.1060   -1.1640   -1.3880 hc        1 POT      0.123367
     31 H13         1.7250   -0.8150   -2.0630 hc        1 POT      0.123367
     32 H6         -4.0940    4.5570    4.1430 ha        1 POT      0.133000
@<TRIPOS>BOND
     1    1    2 1   
     2    1    3 2   
     3    1    4 1   
     4    1   16 1   
     5    2   29 1   
     6    2   30 1   
     7    2   31 1   
     8    4    5 1   
     9    5    6 1   
    10    5    8 1   
    11    5   22 1   
    12    6    7 1   
    13    6   20 1   
    14    6   21 1   
    15    7   17 1   
    16    7   18 1   
    17    7   19 1   
    18    8    9 1   
    19    8   23 1   
    20    8   24 1   
    21    9   14 1   
    22   10   11 ar  
    23   10   15 ar  
    24   10   32 1   
    25   11   12 ar  
    26   11   26 1   
    27   12   13 ar  
    28   12   27 1   
    29   13   14 ar  
    30   13   28 1   
    31   14   15 ar  
    32   15   25 1   
@<TRIPOS>SUBSTRUCTURE
     1 POT         1 TEMP              0 ****  ****    0 ROOT
