@<TRIPOS>MOLECULE
POV
  134   122     1     0     0
SMALL
bcc


@<TRIPOS>ATOM
      1 N          -4.7440   -1.4550   -0.1690 n4        1 POV      0.058000
      2 P          -3.5850   -5.0120    1.3400 p5        1 POV      1.915000
      3 C1         -1.4200   -5.3170   -0.0110 cx        1 POV      0.051000
      4 C2         -0.6110   -6.5810   -0.2630 cx        1 POV     -0.025000
      5 C3         -0.6900   -5.5030   -1.3330 cx        1 POV     -0.067000
      6 C210       -9.9500   -7.0670    1.1820 c1        1 POV     -0.206000
      7 C310        2.8660    2.4030   -7.9620 c3        1 POV     -0.159000
      8 C11        -3.7340   -2.4890    1.9940 c3        1 POV      0.039000
      9 O11        -2.7890   -5.3420   -0.0630 os        1 POV     -0.684000
     10 C211       -7.0390   -8.4550    2.9280 c2        1 POV     -0.252000
     11 C311        3.2330    3.8090   -8.3870 c3        1 POV     -0.158000
     12 C12        -3.8010   -1.3200    0.9980 c3        1 POV     -0.145000
     13 O12        -2.9140   -3.4960    1.5190 os        1 POV     -0.747000
     14 C212       -6.3630   -7.4220    3.4250 c2        1 POV     -0.128000
     15 C312        3.1850    3.9640   -9.8850 c3        1 POV     -0.214000
     16 C13        -6.1130   -1.8250    0.2870 c3        1 POV     -0.205333
     17 O13        -4.9740   -4.6870    0.9380 o         1 POV     -0.817000
     18 C213       -5.2850   -7.5470    4.4440 c3        1 POV     -0.059000
     19 C313        3.3390    7.3790  -11.5230 c3        1 POV     -0.218000
     20 C14        -4.7890   -0.1340   -0.8640 c3        1 POV     -0.205333
     21 O14        -3.1350   -5.8790    2.4300 o         1 POV     -0.817000
     22 C214       -5.5870   -6.8270    5.6460 c1        1 POV     -0.128000
     23 C314        1.9930    6.8820  -11.9610 c3        1 POV     -0.218000
     24 C15        -4.2500   -2.4760   -1.1400 c3        1 POV     -0.205333
     25 C215       -5.8240   -6.2300    6.6580 c1        1 POV     -0.205000
     26 C315        4.6850    6.5000  -15.8460 c1        1 POV      0.176000
     27 C216       -6.1000   -5.5230    7.8640 c3        1 POV     -0.095000
     28 C316        4.2400    7.5120  -15.1550 c2        1 POV     -0.564000
     29 C217       -7.9480   -4.6670   -0.4660 c2        1 POV     -0.202000
     30 C218       -9.1860   -5.1670   -0.4240 c2        1 POV     -0.080000
     31 O21        -1.3680   -7.7500   -0.4300 os        1 POV     -0.212000
     32 C22        -1.6390  -10.0560   -0.9370 c3        1 POV     -0.218000
     33 O22         0.5170   -8.8590   -0.9600 o         1 POV     -0.353000
     34 C23        -2.4000  -10.0140   -2.1820 c1        1 POV     -0.026000
     35 C24        -3.6440  -10.7560   -2.3120 c3        1 POV     -0.200000
     36 C25        -4.1140  -11.5750   -1.1680 c2        1 POV     -0.223000
     37 C26        -5.9100   -7.8160   -3.2430 c3        1 POV     -0.281000
     38 C27        -4.8200  -11.1150   -0.1300 c2        1 POV     -0.141000
     39 C28        -5.2350   -9.7130    0.0650 c3        1 POV     -0.211000
     40 C29        -9.5930   -6.1920    0.4460 c1        1 POV     -0.132000
     41 C31        -2.1150   -4.9260   -3.1510 c2        1 POV      0.337000
     42 O31        -1.4320   -5.8870   -2.4680 os        1 POV     -0.206000
     43 C32        -2.9920   -5.5050   -4.2080 c3        1 POV     -0.226000
     44 O32        -1.9460   -3.7330   -2.8680 o         1 POV     -0.422000
     45 C33        -1.6320   -0.3550   -1.4800 c1        1 POV     -0.123000
     46 C34        -1.2010   -0.5190   -2.8350 c3        1 POV     -0.318000
     47 C35         2.3000   -0.4600   -3.9180 c2        1 POV     -0.179000
     48 C36         1.9130   -1.7350   -4.5500 c3        1 POV     -0.191000
     49 C37         2.5830    0.6760   -4.5620 c2        1 POV     -0.163000
     50 C38         2.5500    0.8450   -6.0350 c3        1 POV     -0.133000
     51 C39         2.9100    2.2550   -6.4560 c3        1 POV     -0.156000
     52 H29        -5.1220  -11.8100    0.6730 ha        1 POV      0.119000
     53 H1         -2.5550   -8.2780    2.1670 ha        1 POV      0.001700
     54 H1A        -2.4550   -8.7240    1.6640 ha        1 POV      0.001700
     55 H2         -1.0230   -4.5940    0.7360 h1        1 POV      0.134000
     56 H3          0.3550   -6.7530    0.2490 h1        1 POV      0.148000
     57 H3A         0.1810   -4.8790   -1.5960 h1        1 POV      0.129000
     58 H310        3.5740    1.6720   -8.4330 hc        1 POV      0.079500
     59 H31A        1.8370    2.1550   -8.3350 hc        1 POV      0.079500
     60 H210      -10.2630   -7.8400    1.8370 ha        1 POV      0.224000
     61 H11        -4.7610   -2.8800    2.2430 h1        1 POV      0.096500
     62 H11A       -3.2610   -2.0530    2.9250 h1        1 POV      0.096500
     63 H211       -7.8100   -8.3260    2.1550 ha        1 POV      0.106500
     64 H21A       -6.8720   -9.4910    3.2510 ha        1 POV      0.106500
     65 H311        4.2630    4.0550   -8.0160 hc        1 POV      0.077500
     66 H31B        2.5270    4.5400   -7.9100 hc        1 POV      0.077500
     67 H12        -2.7720   -1.1580    0.5610 hx        1 POV      0.129000
     68 H12A       -4.1190   -0.4000    1.5640 hx        1 POV      0.129000
     69 H22        -2.2910  -10.0850   -0.0150 hc        1 POV      0.147000
     70 H212       -7.1160   -5.0120    0.1760 ha        1 POV      0.136000
     71 H22A       -3.5730   -7.9710   -1.6410 ha        1 POV      0.001700
     72 H21B       -7.6870   -3.8670   -1.1730 ha        1 POV      0.136000
     73 H32        -3.8160   -6.0860   -3.7170 hc        1 POV      0.118333
     74 H312        2.1580    3.7530  -10.2710 hc        1 POV      0.073000
     75 H32A       -3.4210   -4.6870   -4.8320 hc        1 POV      0.118333
     76 H31C        3.8950    3.2570  -10.3770 hc        1 POV      0.073000
     77 H13        -6.8360   -1.6570   -0.5520 hx        1 POV      0.140889
     78 H13A       -6.3960   -1.1900    1.1650 hx        1 POV      0.140889
     79 H13B       -6.1410   -2.9210    0.5800 hx        1 POV      0.140889
     80 H23        -1.0180  -11.0010   -0.9560 hc        1 POV      0.147000
     81 H213       -6.3400   -7.2090    0.6300 ha        1 POV      0.001700
     82 H23A       -4.4230   -9.9760   -2.5850 hc        1 POV      0.144500
     83 H21C       -6.1960   -7.1210   -0.0270 ha        1 POV      0.001700
     84 H33        -2.4030   -6.2060   -4.8500 hc        1 POV      0.118333
     85 H313        3.4630    5.0070  -10.1790 hc        1 POV      0.073000
     86 H33A       -0.8610   -0.4020   -0.6960 ha        1 POV      0.055000
     87 H31D        3.3870    7.4570  -10.4090 hc        1 POV      0.072833
     88 H14        -3.7340    0.1360   -1.1830 hx        1 POV      0.140889
     89 H14A       -5.1970    0.6420   -0.1680 hx        1 POV      0.140889
     90 H14B       -5.4480   -0.2130   -1.7660 hx        1 POV      0.140889
     91 H24        -3.1240   -7.5820   -1.9730 ha        1 POV      0.001700
     92 H214       -5.1070   -8.6300    4.7030 hc        1 POV      0.132000
     93 H24A       -3.5300  -11.4080   -3.2290 hc        1 POV      0.144500
     94 H21D       -4.3180   -7.1470    3.9980 hc        1 POV      0.132000
     95 H34        -1.8540    0.0470   -3.5470 hc        1 POV      0.134333
     96 H314        1.7900    5.8690  -11.5340 hc        1 POV      0.072833
     97 H34A       -0.1270   -0.2810   -3.0540 hc        1 POV      0.134333
     98 H31E        1.1850    7.5740  -11.6190 hc        1 POV      0.072833
     99 H15        -3.2360   -2.1730   -1.5200 hx        1 POV      0.140889
    100 H15A       -4.1760   -3.4770   -0.6190 hx        1 POV      0.140889
    101 H15B       -4.9760   -2.5470   -1.9900 hx        1 POV      0.140889
    102 H25        -3.8430  -12.6430   -1.2170 ha        1 POV      0.117000
    103 H215       -2.0660   -7.1110    4.0130 ha        1 POV      0.001700
    104 H25A       -6.4780   -7.1280   -3.9060 hc        1 POV      0.070750
    105 H21E       -1.8510   -7.5510    4.4820 ha        1 POV      0.001700
    106 H35        -1.3550   -1.6260   -3.0530 hc        1 POV      0.134333
    107 H315        4.1470    6.6810  -11.8560 hc        1 POV      0.072833
    108 H35A        2.3590   -0.4930   -2.8160 ha        1 POV      0.115000
    109 H31F        3.5490    8.3890  -11.9510 hc        1 POV      0.072833
    110 H26        -4.9310   -8.0620   -3.7120 hc        1 POV      0.070750
    111 H216       -6.9080   -4.2360    2.3440 ha        1 POV      0.001700
    112 H26A       -6.4940   -8.7500   -3.0920 hc        1 POV      0.070750
    113 H21F       -6.9690   -3.6100    2.6000 ha        1 POV      0.001700
    114 H36         0.9080   -2.0590   -4.1760 hc        1 POV      0.082333
    115 H316        1.9400    6.8080  -13.0750 hc        1 POV      0.072833
    116 H36A        1.8640   -1.6550   -5.6630 hc        1 POV      0.082333
    117 H31G        3.8970    7.4310  -14.1080 ha        1 POV      0.193500
    118 H31H        4.1650    8.5380  -15.5490 ha        1 POV      0.193500
    119 H27        -5.7340   -7.3270   -2.2590 hc        1 POV      0.070750
    120 H217       -7.0670   -4.9620    7.7790 hc        1 POV      0.084000
    121 H27A       -5.5900   -9.2510   -0.8930 hc        1 POV      0.094000
    122 H21G       -5.2830   -4.7880    8.0850 hc        1 POV      0.084000
    123 H37         2.6540   -2.5320   -4.2870 hc        1 POV      0.082333
    124 H37A        2.8710    1.5740   -3.9890 ha        1 POV      0.119000
    125 H28        -6.0610   -9.6360    0.8180 hc        1 POV      0.094000
    126 H218       -6.5520   -6.3920    3.0740 ha        1 POV      0.133000
    127 H28A       -4.3730   -9.1000    0.4400 hc        1 POV      0.094000
    128 H21H       -6.1790   -6.2330    8.7280 hc        1 POV      0.084000
    129 H21J       -9.9810   -4.7900   -1.0950 ha        1 POV      0.123000
    130 H38         3.2650    0.1200   -6.5120 hc        1 POV      0.088500
    131 H38A        1.5250    0.5910   -6.4210 hc        1 POV      0.088500
    132 H39         3.9380    2.5080   -6.0830 hc        1 POV      0.080000
    133 H39A        2.1990    2.9830   -5.9850 hc        1 POV      0.080000
    134 C21        -0.7040   -8.8890   -0.8140 c2        1 POV      0.337000
@<TRIPOS>BOND
     1    1   12 1   
     2    1   16 1   
     3    1   20 1   
     4    1   24 1   
     5    2    9 1   
     6    2   13 1   
     7    2   17 1   
     8    2   21 1   
     9    3    4 1   
    10    3    5 1   
    11    3    9 1   
    12    3   55 1   
    13    4    5 1   
    14    4   31 1   
    15    4   56 1   
    16    5   42 1   
    17    5   57 1   
    18    6   40 1   
    19    6   60 1   
    20    7   11 1   
    21    7   51 1   
    22    7   58 1   
    23    7   59 1   
    24    8   12 1   
    25    8   13 1   
    26    8   61 1   
    27    8   62 1   
    28   10   14 1   
    29   10   63 1   
    30   10   64 1   
    31   11   15 1   
    32   11   65 1   
    33   11   66 1   
    34   12   67 1   
    35   12   68 1   
    36   14   18 1   
    37   14  126 1   
    38   15   74 1   
    39   15   76 1   
    40   15   85 1   
    41   16   77 1   
    42   16   78 1   
    43   16   79 1   
    44   18   22 1   
    45   18   92 1   
    46   18   94 1   
    47   19   23 1   
    48   19   87 1   
    49   19  107 1   
    50   19  109 1   
    51   20   88 1   
    52   20   89 1   
    53   20   90 1   
    54   22   25 1   
    55   23   96 1   
    56   23   98 1   
    57   23  115 1   
    58   24   99 1   
    59   24  100 1   
    60   24  101 1   
    61   25   27 1   
    62   26   28 1   
    63   27  120 1   
    64   27  122 1   
    65   27  128 1   
    66   28  117 1   
    67   28  118 1   
    68   29   30 1   
    69   29   70 1   
    70   29   72 1   
    71   30   40 1   
    72   30  129 1   
    73   31  134 1   
    74   32   34 1   
    75   32   69 1   
    76   32   80 1   
    77   32  134 1   
    78   33  134 1   
    79   34   35 1   
    80   35   36 1   
    81   35   82 1   
    82   35   93 1   
    83   36   38 1   
    84   36  102 1   
    85   37  104 1   
    86   37  110 1   
    87   37  112 1   
    88   37  119 1   
    89   38   39 1   
    90   38   52 1   
    91   39  121 1   
    92   39  125 1   
    93   39  127 1   
    94   41   42 1   
    95   41   43 1   
    96   41   44 1   
    97   43   73 1   
    98   43   75 1   
    99   43   84 1   
   100   45   46 1   
   101   45   86 1   
   102   46   95 1   
   103   46   97 1   
   104   46  106 1   
   105   47   48 1   
   106   47   49 1   
   107   47  108 1   
   108   48  114 1   
   109   48  116 1   
   110   48  123 1   
   111   49   50 1   
   112   49  124 1   
   113   50   51 1   
   114   50  130 1   
   115   50  131 1   
   116   51  132 1   
   117   51  133 1   
   118   53   54 1   
   119   71   91 1   
   120   81   83 1   
   121  103  105 1   
   122  111  113 1   
@<TRIPOS>SUBSTRUCTURE
     1 POV         1 TEMP              0 ****  ****    0 ROOT
