@<TRIPOS>MOLECULE
POV
  134   121     1     0     0
SMALL
bcc


@<TRIPOS>ATOM
      1 N          -2.2700   -4.7240   -2.1960 n4        1 POV      0.069000
      2 P          -1.6070   -4.7700    1.7860 p5        1 POV      1.903000
      3 C1          0.8560   -5.1550    2.5170 c3        1 POV     -0.034000
      4 C2          2.8430   -6.2640   -2.6480 c2        1 POV     -0.049000
      5 C3          3.0030   -4.9600   -2.9290 c2        1 POV     -0.049000
      6 C210       -9.6030   -9.6070    4.5980 c2        1 POV     -0.487000
      7 C310       -0.3540    4.7350   -8.5450 c3        1 POV     -0.137000
      8 C11        -2.3420   -3.1600   -0.1220 c3        1 POV      0.038000
      9 O11        -0.1710   -5.5440    1.6520 os        1 POV     -0.753000
     10 C211       -9.2310   -8.1810    4.4210 c3        1 POV     -0.125000
     11 C311       -0.3460    5.8510   -9.5710 c3        1 POV     -0.157000
     12 C12        -2.1070   -3.3410   -1.6320 c3        1 POV     -0.155000
     13 O12        -1.2630   -3.6230    0.6110 os        1 POV     -0.744000
     14 C212       -9.8260   -7.6110    3.2200 c1        1 POV     -0.026000
     15 C312        0.1380    7.1450   -8.9690 c3        1 POV     -0.215000
     16 C13        -3.6100   -5.2880   -1.8670 c3        1 POV     -0.206667
     17 O13        -2.6030   -5.6140    1.0860 o         1 POV     -0.817500
     18 C213       -9.8730   -6.2170    2.9730 c2        1 POV     -0.164000
     19 C313        3.3690    4.9360   -8.5360 c3        1 POV     -0.219000
     20 C14        -2.1350   -4.6370   -3.6820 c3        1 POV     -0.206667
     21 O14        -1.7210   -4.1020    3.0840 o         1 POV     -0.817500
     22 C214      -10.3410   -5.3020    3.7890 c1        1 POV     -0.134000
     23 C314        3.3800    5.8890   -7.3770 c3        1 POV     -0.219000
     24 C15        -1.2080   -5.6410   -1.6880 c3        1 POV     -0.206667
     25 C215      -10.8960   -4.4020    4.5560 c2        1 POV     -0.085000
     26 C315        6.6610    5.4300   -9.4830 c1        1 POV      0.171000
     27 C216      -12.3230   -4.1450    4.6080 c2        1 POV     -0.141000
     28 C316        6.8150    6.3130   -8.5350 c2        1 POV     -0.559000
     29 C217      -12.8600   -3.2090    5.4040 c2        1 POV     -0.144000
     30 C218      -14.3060   -2.9290    5.4750 c3        1 POV     -0.190000
     31 O21         2.5300   -6.6330   -1.3470 os        1 POV     -0.223500
     32 C22         1.5650   -8.0690    0.2830 c3        1 POV     -0.237000
     33 O22         1.3610   -8.3630   -2.1570 o         1 POV     -0.390000
     34 C23        -1.7410   -8.9290   -3.3170 c2        1 POV     -0.260000
     35 C24        -2.0730  -10.0880   -2.7180 c2        1 POV     -0.120000
     36 C25        -2.6600   -7.9560   -3.7530 c1        1 POV     -0.105000
     37 C26        -5.1720   -7.6950    0.6670 c3        1 POV     -0.224000
     38 C27        -5.2240   -8.6570   -1.6410 c3        1 POV     -0.224000
     39 C28        -5.8730   -7.7090   -0.6670 c3        1 POV     -0.159000
     40 C29       -10.3120  -10.3020    3.7320 c1        1 POV      0.229000
     41 C31         1.7330   -3.2550   -1.8870 c2        1 POV      0.328500
     42 O31         2.8900   -3.9950   -1.9280 os        1 POV     -0.223500
     43 C32         1.6440   -2.3760   -0.6930 c3        1 POV     -0.237000
     44 O32         0.9170   -3.3990   -2.8050 o         1 POV     -0.390000
     45 C33         0.2170   -3.2720   -6.1800 c2        1 POV     -0.176500
     46 C34        -0.1250   -4.5800   -6.7690 c3        1 POV     -0.187500
     47 C35         0.0940   -2.0920   -6.7960 c2        1 POV     -0.176500
     48 C36        -0.4110   -1.8970   -8.1700 c3        1 POV     -0.187500
     49 C37        -0.5020    2.2490   -8.6360 c2        1 POV     -0.174000
     50 C38         0.3780    2.0230   -7.4720 c3        1 POV     -0.187000
     51 C39        -0.8230    3.4530   -9.1200 c2        1 POV     -0.164000
     52 H29        -5.7790   -8.6660   -2.6110 hc        1 POV      0.078000
     53 H1          1.2540   -6.0740    3.0250 h1        1 POV      0.067000
     54 H1A         0.4810   -4.4260    3.2830 h1        1 POV      0.067000
     55 H2          1.6870   -4.6970    1.9160 h1        1 POV      0.067000
     56 H3          2.9810   -7.0810   -3.3710 h4        1 POV      0.166500
     57 H3A         3.3000   -4.5640   -3.9090 h4        1 POV      0.166500
     58 H310        0.6820    4.6150   -8.1210 hc        1 POV      0.088000
     59 H31A       -1.0270    5.0180   -7.6890 hc        1 POV      0.088000
     60 H210       -9.2400  -10.0790    5.5290 ha        1 POV      0.179000
     61 H11        -3.3000   -3.6550    0.2000 h1        1 POV      0.090000
     62 H11A       -2.4280   -2.0420    0.0260 h1        1 POV      0.090000
     63 H211       -8.1040   -8.1000    4.3150 hc        1 POV      0.124000
     64 H21A       -9.5090   -7.5970    5.3470 hc        1 POV      0.124000
     65 H311       -1.3790    5.9890   -9.9850 hc        1 POV      0.080000
     66 H31B        0.3190    5.5620  -10.4270 hc        1 POV      0.080000
     67 H12        -2.8370   -2.6790   -2.1780 hx        1 POV      0.127500
     68 H12A       -1.0520   -3.0140   -1.8660 hx        1 POV      0.127500
     69 H22         0.9560   -7.2460    0.7520 hc        1 POV      0.135167
     70 H212       -8.3330   -8.1430    1.4340 ha        1 POV      0.001875
     71 H22A        1.0270   -9.0410    0.3870 hc        1 POV      0.135167
     72 H21B       -7.8040   -8.0110    1.8390 ha        1 POV      0.001875
     73 H32         0.7610   -2.7060   -0.0780 hc        1 POV      0.135167
     74 H312        1.1760    7.0270   -8.5670 hc        1 POV      0.073333
     75 H32A        2.5710   -2.4450   -0.0720 hc        1 POV      0.135167
     76 H31C       -0.5280    7.4640   -8.1310 hc        1 POV      0.073333
     77 H13        -4.3970   -4.5320   -2.1130 hx        1 POV      0.142556
     78 H13A       -3.7630   -6.2210   -2.4760 hx        1 POV      0.142556
     79 H13B       -3.6550   -5.5600   -0.7690 hx        1 POV      0.142556
     80 H23         2.5500   -8.1190    0.8080 hc        1 POV      0.135167
     81 H213       -5.9680   -8.7080    3.8400 ha        1 POV      0.001875
     82 H23A       -0.6690   -8.6360   -3.3790 ha        1 POV      0.181000
     83 H21C       -6.0210   -8.4190    3.2300 ha        1 POV      0.001875
     84 H33         1.4890   -1.3210   -1.0230 hc        1 POV      0.135167
     85 H313        0.1470    7.9520   -9.7400 hc        1 POV      0.073333
     86 H33A        0.6110   -3.3160   -5.1470 ha        1 POV      0.127500
     87 H31D        2.6040    5.2440   -9.2910 hc        1 POV      0.073833
     88 H14        -2.9540   -3.9940   -4.0930 hx        1 POV      0.142556
     89 H14A       -2.2150   -5.6790   -4.1080 hx        1 POV      0.142556
     90 H14B       -1.1350   -4.1920   -3.9380 hx        1 POV      0.142556
     91 H24        -1.3190  -10.7410   -2.2560 ha        1 POV      0.123500
     92 H214       -9.5720   -5.9290    1.9410 ha        1 POV      0.174000
     93 H24A       -3.1180  -10.4050   -2.5830 ha        1 POV      0.123500
     94 H21D       -6.6820   -6.1970    3.2990 ha        1 POV      0.001875
     95 H34        -0.8370   -5.1280   -6.0990 hc        1 POV      0.079000
     96 H314        2.3870    5.8940   -6.8640 hc        1 POV      0.073833
     97 H34A       -0.5970   -4.4780   -7.7760 hc        1 POV      0.079000
     98 H31E        3.5970    6.9300   -7.7210 hc        1 POV      0.073833
     99 H15        -0.2040   -5.2110   -1.9420 hx        1 POV      0.142556
    100 H15A       -1.3400   -6.6450   -2.1760 hx        1 POV      0.142556
    101 H15B       -1.3130   -5.7390   -0.5670 hx        1 POV      0.142556
    102 H25        -3.5600   -8.2740   -4.2980 ha        1 POV      0.065000
    103 H215       -7.2820   -6.1220    2.9910 ha        1 POV      0.001875
    104 H25A       -5.0960   -8.7290    1.0830 hc        1 POV      0.078000
    105 H21E      -10.2550   -3.7860    5.2160 ha        1 POV      0.148000
    106 H35         0.7980   -5.2050   -6.8760 hc        1 POV      0.079000
    107 H315        4.3690    4.9120   -9.0400 hc        1 POV      0.073833
    108 H35A        0.3860   -1.1680   -6.2670 ha        1 POV      0.127500
    109 H31F        3.1250    3.9010   -8.1940 hc        1 POV      0.073833
    110 H26        -4.1410   -7.2630    0.5870 hc        1 POV      0.078000
    111 H216       -7.5850   -5.9760    0.5910 ha        1 POV      0.001875
    112 H26A       -5.7480   -7.0690    1.3950 hc        1 POV      0.078000
    113 H21F       -7.8770   -5.3690    0.5160 ha        1 POV      0.001875
    114 H36        -1.4420   -2.3170   -8.2790 hc        1 POV      0.079000
    115 H316        6.0040    6.5880   -7.8380 ha        1 POV      0.191500
    116 H36A       -0.4470   -0.8100   -8.4300 hc        1 POV      0.079000
    117 H31G        4.1570    5.5970   -6.6290 hc        1 POV      0.073833
    118 H31H        7.7530    6.8570   -8.3430 ha        1 POV      0.191500
    119 H27        -4.1660   -8.3500   -1.8440 hc        1 POV      0.078000
    120 H217      -12.9570   -4.7650    3.9510 ha        1 POV      0.132000
    121 H27A       -5.2100   -9.6960   -1.2310 hc        1 POV      0.078000
    122 H21G      -12.2260   -2.5890    6.0610 ha        1 POV      0.121000
    123 H37         0.2520   -2.4120   -8.9100 hc        1 POV      0.079000
    124 H37A       -0.8990    1.3380   -9.1160 ha        1 POV      0.117000
    125 H28        -5.8690   -6.6710   -1.0980 hc        1 POV      0.070500
    126 H218      -14.8940   -3.5870    4.7890 hc        1 POV      0.084000
    127 H28A       -6.9480   -8.0020   -0.5220 hc        1 POV      0.070500
    128 H21H      -14.5030   -1.8630    5.1970 hc        1 POV      0.084000
    129 H21J      -14.6760   -3.0890    6.5200 hc        1 POV      0.084000
    130 H38         1.4270    2.3380   -7.7080 hc        1 POV      0.079333
    131 H38A        0.3920    0.9430   -7.1840 hc        1 POV      0.079333
    132 H39         0.0310    2.6190   -6.5900 hc        1 POV      0.079333
    133 H39A       -1.4850    3.5400   -9.9980 ha        1 POV      0.121000
    134 C21         1.7720   -7.7720   -1.1570 c2        1 POV      0.328500
@<TRIPOS>BOND
     1    1   12 1   
     2    1   16 1   
     3    1   20 1   
     4    1   24 1   
     5    2    9 1   
     6    2   13 1   
     7    2   17 1   
     8    2   21 1   
     9    3    9 1   
    10    3   53 1   
    11    3   54 1   
    12    3   55 1   
    13    4    5 1   
    14    4   31 1   
    15    4   56 1   
    16    5   42 1   
    17    5   57 1   
    18    6   10 1   
    19    6   40 1   
    20    6   60 1   
    21    7   11 1   
    22    7   51 1   
    23    7   58 1   
    24    7   59 1   
    25    8   12 1   
    26    8   13 1   
    27    8   61 1   
    28    8   62 1   
    29   10   14 1   
    30   10   63 1   
    31   10   64 1   
    32   11   15 1   
    33   11   65 1   
    34   11   66 1   
    35   12   67 1   
    36   12   68 1   
    37   14   18 1   
    38   15   74 1   
    39   15   76 1   
    40   15   85 1   
    41   16   77 1   
    42   16   78 1   
    43   16   79 1   
    44   18   22 1   
    45   18   92 1   
    46   19   23 1   
    47   19   87 1   
    48   19  107 1   
    49   19  109 1   
    50   20   88 1   
    51   20   89 1   
    52   20   90 1   
    53   22   25 1   
    54   23   96 1   
    55   23   98 1   
    56   23  117 1   
    57   24   99 1   
    58   24  100 1   
    59   24  101 1   
    60   25   27 1   
    61   25  105 1   
    62   26   28 1   
    63   27   29 1   
    64   27  120 1   
    65   28  115 1   
    66   28  118 1   
    67   29   30 1   
    68   29  122 1   
    69   30  126 1   
    70   30  128 1   
    71   30  129 1   
    72   31  134 1   
    73   32   69 1   
    74   32   71 1   
    75   32   80 1   
    76   32  134 1   
    77   33  134 1   
    78   34   35 1   
    79   34   36 1   
    80   34   82 1   
    81   35   91 1   
    82   35   93 1   
    83   36  102 1   
    84   37   39 1   
    85   37  104 1   
    86   37  110 1   
    87   37  112 1   
    88   38   39 1   
    89   38   52 1   
    90   38  119 1   
    91   38  121 1   
    92   39  125 1   
    93   39  127 1   
    94   41   42 1   
    95   41   43 1   
    96   41   44 1   
    97   43   73 1   
    98   43   75 1   
    99   43   84 1   
   100   45   46 1   
   101   45   47 1   
   102   45   86 1   
   103   46   95 1   
   104   46   97 1   
   105   46  106 1   
   106   47   48 1   
   107   47  108 1   
   108   48  114 1   
   109   48  116 1   
   110   48  123 1   
   111   49   50 1   
   112   49   51 1   
   113   49  124 1   
   114   50  130 1   
   115   50  131 1   
   116   50  132 1   
   117   51  133 1   
   118   70   72 1   
   119   81   83 1   
   120   94  103 1   
   121  111  113 1   
@<TRIPOS>SUBSTRUCTURE
     1 POV         1 TEMP              0 ****  ****    0 ROOT
