@<TRIPOS>MOLECULE
POV
  134   133     1     0     0
SMALL
bcc


@<TRIPOS>ATOM
      1 N          -1.6710    0.9600   -1.4130 n4        1 POV     -0.581800
      2 P          -0.9900   -2.9030   -2.2340 p5        1 POV      1.434800
      3 C1         -0.5840   -4.2430   -0.1070 c3        1 POV      0.160400
      4 C2          0.1210   -4.2770    1.2520 c3        1 POV      0.126100
      5 C3         -0.7890   -3.9650    2.4440 c3        1 POV      0.128400
      6 C210       12.9120    0.1860    0.6670 c2        1 POV     -0.174200
      7 C310      -12.5890    2.4730    0.1970 c3        1 POV     -0.078400
      8 C11        -2.8980   -1.1240   -2.3850 c3        1 POV      0.195400
      9 O11        -0.2540   -3.0640   -0.7880 os        1 POV     -0.566200
     10 C211       12.7600    1.6120    0.2950 c3        1 POV     -0.048200
     11 C311      -14.0360    2.5140    0.6400 c3        1 POV     -0.079400
     12 C12        -2.9590    0.2050   -1.6050 c3        1 POV      0.088800
     13 O12        -2.3510   -2.1270   -1.6140 os        1 POV     -0.578200
     14 C212       14.0920    2.3280    0.2060 c3        1 POV     -0.077400
     15 C312      -14.8030    3.5970   -0.0890 c3        1 POV     -0.078400
     16 C13        -1.0050    1.2280   -2.7220 c3        1 POV      0.078433
     17 O13        -0.3220   -1.7520   -2.8870 o         1 POV     -0.814000
     18 C213       13.9080    3.7810   -0.1750 c3        1 POV     -0.079400
     19 C313      -16.2500    3.6380    0.3540 c3        1 POV     -0.079400
     20 C14        -2.0040    2.2660   -0.7680 c3        1 POV      0.078433
     21 O14        -1.3910   -4.1970   -2.7830 o         1 POV     -0.814000
     22 C214       15.2370    4.4980   -0.2640 c3        1 POV     -0.079400
     23 C314      -17.0170    4.7200   -0.3740 c3        1 POV     -0.079400
     24 C15        -0.7390    0.2130   -0.5170 c3        1 POV      0.078433
     25 C215       15.0540    5.9520   -0.6450 c3        1 POV     -0.078400
     26 C315      -18.4650    4.7620    0.0680 c3        1 POV     -0.080400
     27 C216       16.3830    6.6690   -0.7350 c3        1 POV     -0.079400
     28 C316      -19.2330    5.8380   -0.6540 c3        1 POV     -0.092100
     29 C217       16.2010    8.1230   -1.1160 c3        1 POV     -0.080400
     30 C218       17.5230    8.8410   -1.2060 c3        1 POV     -0.093100
     31 O21         1.1730   -3.2990    1.3060 os        1 POV     -0.421900
     32 C22         3.3060   -2.4600    0.6620 c3        1 POV     -0.127400
     33 O22         2.5640   -4.7910    0.3720 o         1 POV     -0.546000
     34 C23         4.7430   -2.8940    0.8560 c3        1 POV     -0.080400
     35 C24         5.6910   -1.7370    0.6260 c3        1 POV     -0.077400
     36 C25         7.1280   -2.1600    0.8410 c3        1 POV     -0.079400
     37 C26         8.0810   -1.0070    0.6050 c3        1 POV     -0.079400
     38 C27         9.5180   -1.4300    0.8240 c3        1 POV     -0.077400
     39 C28        10.4690   -0.2750    0.5860 c3        1 POV     -0.049200
     40 C29        11.8840   -0.6600    0.7980 c2        1 POV     -0.173200
     41 C31        -3.0000   -3.1660    1.9380 c         1 POV      0.641100
     42 O31        -1.6760   -2.8830    2.1520 os        1 POV     -0.435900
     43 C32        -3.7360   -1.9970    1.3650 c3        1 POV     -0.141400
     44 O32        -3.4260   -4.2880    2.2170 o         1 POV     -0.541000
     45 C33        -5.1870   -1.9850    1.7920 c3        1 POV     -0.081400
     46 C34        -5.9480   -0.8970    1.0650 c3        1 POV     -0.075400
     47 C35        -7.3960   -0.8570    1.5020 c3        1 POV     -0.081400
     48 C36        -8.1610    0.2260    0.7720 c3        1 POV     -0.077400
     49 C37        -9.6090    0.2670    1.2130 c3        1 POV     -0.080400
     50 C38       -10.3750    1.3500    0.4840 c3        1 POV     -0.078400
     51 C39       -11.8220    1.3910    0.9260 c3        1 POV     -0.079400
     52 H29        12.0620   -1.7120    1.0770 ha        1 POV      0.123000
     53 H1         -0.2630   -5.1180   -0.7370 h1        1 POV      0.050700
     54 H1A        -1.7000   -4.2810    0.0310 h1        1 POV      0.050700
     55 H2          0.5630   -5.3030    1.4100 h1        1 POV      0.077700
     56 H3         -1.3560   -4.8890    2.7300 h1        1 POV      0.076200
     57 H3A        -0.1760   -3.5930    3.3090 h1        1 POV      0.076200
     58 H310      -12.5390    2.2900   -0.9090 hc        1 POV      0.038700
     59 H31A      -12.1090    3.4690    0.3890 hc        1 POV      0.038700
     60 H210       13.9440   -0.1620    0.8370 ha        1 POV      0.122000
     61 H11        -3.9810   -1.3750   -2.5960 h1        1 POV      0.056200
     62 H11A       -2.3440   -0.9930   -3.3550 h1        1 POV      0.056200
     63 H211       12.2270    1.6860   -0.6920 hc        1 POV      0.046700
     64 H21A       12.1070    2.1280    1.0520 hc        1 POV      0.046700
     65 H311      -14.5160    1.5180    0.4470 hc        1 POV      0.040200
     66 H31B      -14.0860    2.6970    1.7460 hc        1 POV      0.040200
     67 H12        -3.3670   -0.0150   -0.5760 hx        1 POV      0.077700
     68 H12A       -3.6610    0.8950   -2.1520 hx        1 POV      0.077700
     69 H22         3.1680   -1.9980   -0.3530 hc        1 POV      0.075700
     70 H212       14.6220    2.2620    1.1930 hc        1 POV      0.041700
     71 H22A        3.0160   -1.6960    1.4300 hc        1 POV      0.075700
     72 H21B       14.7420    1.8190   -0.5530 hc        1 POV      0.041700
     73 H32        -3.2240   -1.0470    1.6700 hc        1 POV      0.083700
     74 H312      -14.3230    4.5920    0.1030 hc        1 POV      0.039200
     75 H32A       -3.6490   -2.0920    0.2430 hc        1 POV      0.083700
     76 H31C      -14.7540    3.4140   -1.1950 hc        1 POV      0.039200
     77 H13        -1.7550    1.6590   -3.4320 hx        1 POV      0.100922
     78 H13A       -0.1670    1.9540   -2.5600 hx        1 POV      0.100922
     79 H13B       -0.5790    0.2640   -3.1430 hx        1 POV      0.100922
     80 H23         4.8780   -3.2950    1.8950 hc        1 POV      0.058200
     81 H213       13.3780    3.8470   -1.1620 hc        1 POV      0.039200
     82 H23A        4.9780   -3.7320    0.1460 hc        1 POV      0.058200
     83 H21C       13.2560    4.2890    0.5840 hc        1 POV      0.039200
     84 H33        -5.6470   -2.9860    1.5760 hc        1 POV      0.061200
     85 H313      -16.7300    2.6420    0.1620 hc        1 POV      0.040200
     86 H33A       -5.2560   -1.8220    2.9000 hc        1 POV      0.061200
     87 H31D      -16.3000    3.8200    1.4600 hc        1 POV      0.040200
     88 H14        -2.5240    2.0770    0.2070 hx        1 POV      0.100922
     89 H14A       -1.0590    2.8400   -0.5800 hx        1 POV      0.100922
     90 H14B       -2.6720    2.8600   -1.4440 hx        1 POV      0.100922
     91 H24         5.5650   -1.3490   -0.4190 hc        1 POV      0.038200
     92 H214       15.7670    4.4320    0.7220 hc        1 POV      0.040200
     93 H24A        5.4380   -0.8960    1.3250 hc        1 POV      0.038200
     94 H21D       15.8890    3.9900   -1.0240 hc        1 POV      0.040200
     95 H34        -5.4670    0.0980    1.2640 hc        1 POV      0.030200
     96 H314      -16.5370    5.7160   -0.1820 hc        1 POV      0.039200
     97 H34A       -5.8930   -1.0760   -0.0420 hc        1 POV      0.030200
     98 H31E      -16.9680    4.5370   -1.4800 hc        1 POV      0.039200
     99 H15        -0.3950   -0.7310   -1.0460 hx        1 POV      0.100922
    100 H15A        0.1460    0.8590   -0.2890 hx        1 POV      0.100922
    101 H15B       -1.2740   -0.0740    0.4250 hx        1 POV      0.100922
    102 H25         7.2550   -2.5450    1.8870 hc        1 POV      0.043700
    103 H215       14.5240    6.0170   -1.6320 hc        1 POV      0.038700
    104 H25A        7.3790   -3.0040    0.1450 hc        1 POV      0.043700
    105 H21E       14.4020    6.4600    0.1140 hc        1 POV      0.038700
    106 H35        -7.8740   -1.8530    1.3060 hc        1 POV      0.047200
    107 H315      -18.9430    3.7650   -0.1230 hc        1 POV      0.038700
    108 H35A       -7.4500   -0.6760    2.6080 hc        1 POV      0.047200
    109 H31F      -18.5120    4.9430    1.1750 hc        1 POV      0.038700
    110 H26         7.9560   -0.6250   -0.4430 hc        1 POV      0.038200
    111 H216       16.9130    6.6030    0.2520 hc        1 POV      0.039700
    112 H26A        7.8270   -0.1620    1.2980 hc        1 POV      0.038200
    113 H21F       17.0350    6.1610   -1.4940 hc        1 POV      0.039700
    114 H36        -7.6820    1.2220    0.9660 hc        1 POV      0.034700
    115 H316      -20.2960    5.8520   -0.3130 hc        1 POV      0.032367
    116 H36A       -8.1110    0.0430   -0.3330 hc        1 POV      0.034700
    117 H31G      -18.7860    6.8430   -0.4560 hc        1 POV      0.032367
    118 H31H      -19.2180    5.6610   -1.7570 hc        1 POV      0.032367
    119 H27         9.6420   -1.8110    1.8720 hc        1 POV      0.042700
    120 H217       15.6690    8.1860   -2.1020 hc        1 POV      0.037700
    121 H27A        9.7710   -2.2750    0.1310 hc        1 POV      0.042700
    122 H21G       15.5480    8.6290   -0.3560 hc        1 POV      0.037700
    123 H37       -10.0880   -0.7290    1.0190 hc        1 POV      0.043200
    124 H37A       -9.6600    0.4490    2.3190 hc        1 POV      0.043200
    125 H28        10.3400    0.1080   -0.4640 hc        1 POV      0.046700
    126 H218       18.0560    8.8090   -0.2260 hc        1 POV      0.032700
    127 H28A       10.2070    0.5760    1.2740 hc        1 POV      0.046700
    128 H21H       18.1780    8.3660   -1.9760 hc        1 POV      0.032700
    129 H21J       17.3660    9.9100   -1.4880 hc        1 POV      0.032700
    130 H38        -9.8950    2.3450    0.6760 hc        1 POV      0.037200
    131 H38A      -10.3250    1.1670   -0.6220 hc        1 POV      0.037200
    132 H39       -11.8730    1.5730    2.0320 hc        1 POV      0.041200
    133 H39A      -12.3020    0.3950    0.7330 hc        1 POV      0.041200
    134 C21         2.3730   -3.6290    0.7360 c         1 POV      0.645100
@<TRIPOS>BOND
     1    1   12 1   
     2    1   16 1   
     3    1   20 1   
     4    1   24 1   
     5    2    9 1   
     6    2   13 1   
     7    2   17 1   
     8    2   21 1   
     9    3    4 1   
    10    3    9 1   
    11    3   53 1   
    12    3   54 1   
    13    4    5 1   
    14    4   31 1   
    15    4   55 1   
    16    5   42 1   
    17    5   56 1   
    18    5   57 1   
    19    6   10 1   
    20    6   40 2   
    21    6   60 1   
    22    7   11 1   
    23    7   51 1   
    24    7   58 1   
    25    7   59 1   
    26    8   12 1   
    27    8   13 1   
    28    8   61 1   
    29    8   62 1   
    30   10   14 1   
    31   10   63 1   
    32   10   64 1   
    33   11   15 1   
    34   11   65 1   
    35   11   66 1   
    36   12   67 1   
    37   12   68 1   
    38   14   18 1   
    39   14   70 1   
    40   14   72 1   
    41   15   19 1   
    42   15   74 1   
    43   15   76 1   
    44   16   77 1   
    45   16   78 1   
    46   16   79 1   
    47   18   22 1   
    48   18   81 1   
    49   18   83 1   
    50   19   23 1   
    51   19   85 1   
    52   19   87 1   
    53   20   88 1   
    54   20   89 1   
    55   20   90 1   
    56   22   25 1   
    57   22   92 1   
    58   22   94 1   
    59   23   26 1   
    60   23   96 1   
    61   23   98 1   
    62   24   99 1   
    63   24  100 1   
    64   24  101 1   
    65   25   27 1   
    66   25  103 1   
    67   25  105 1   
    68   26   28 1   
    69   26  107 1   
    70   26  109 1   
    71   27   29 1   
    72   27  111 1   
    73   27  113 1   
    74   28  115 1   
    75   28  117 1   
    76   28  118 1   
    77   29   30 1   
    78   29  120 1   
    79   29  122 1   
    80   30  126 1   
    81   30  128 1   
    82   30  129 1   
    83   31  134 1   
    84   32   34 1   
    85   32   69 1   
    86   32   71 1   
    87   32  134 1   
    88   33  134 2   
    89   34   35 1   
    90   34   80 1   
    91   34   82 1   
    92   35   36 1   
    93   35   91 1   
    94   35   93 1   
    95   36   37 1   
    96   36  102 1   
    97   36  104 1   
    98   37   38 1   
    99   37  110 1   
   100   37  112 1   
   101   38   39 1   
   102   38  119 1   
   103   38  121 1   
   104   39   40 1   
   105   39  125 1   
   106   39  127 1   
   107   40   52 1   
   108   41   42 1   
   109   41   43 1   
   110   41   44 2   
   111   43   45 1   
   112   43   73 1   
   113   43   75 1   
   114   45   46 1   
   115   45   84 1   
   116   45   86 1   
   117   46   47 1   
   118   46   95 1   
   119   46   97 1   
   120   47   48 1   
   121   47  106 1   
   122   47  108 1   
   123   48   49 1   
   124   48  114 1   
   125   48  116 1   
   126   49   50 1   
   127   49  123 1   
   128   49  124 1   
   129   50   51 1   
   130   50  130 1   
   131   50  131 1   
   132   51  132 1   
   133   51  133 1   
@<TRIPOS>SUBSTRUCTURE
     1 POV         1 TEMP              0 ****  ****    0 ROOT
