@<TRIPOS>MOLECULE
POX
   54    55     1     0     0
SMALL
bcc


@<TRIPOS>ATOM
      1 C1          0.3130   -0.1520    0.0140 ca        1 POX     -0.095000
      2 C2          1.5980   -0.5950    0.3310 ca        1 POX     -0.137000
      3 C3          2.1170   -0.3410    1.6130 ca        1 POX      0.092000
      4 C7         -0.2350   -0.3840   -1.3640 c3        1 POX      0.033000
      5 C8         -0.1900   -3.8770   -2.1700 c2        1 POX     -0.101000
      6 C9         -3.9220   -4.2050   -1.3930 c2        1 POX     -0.134000
      7 C10        -4.1440   -2.8500   -1.0270 c1        1 POX     -0.123000
      8 C11        -3.0750   -1.8620   -1.0500 c3        1 POX     -0.145000
      9 C12        -1.7640   -2.3880   -1.4760 c2        1 POX     -0.016000
     10 C13        -1.5910   -3.7670   -1.8140 c2        1 POX     -0.232000
     11 C14        -2.6650   -4.6780   -1.7590 c2        1 POX      0.070000
     12 C15        -5.4620   -6.4370   -4.7170 c1        1 POX     -0.034000
     13 C16        -5.6020   -5.6730   -2.4160 c2        1 POX      0.195000
     14 C20        -8.1970  -10.6870    1.4510 c2        1 POX     -0.304000
     15 C21        -9.2640  -10.4890    2.2340 c2        1 POX     -0.023000
     16 C22       -12.0350   -9.2830    4.1930 c1        1 POX     -0.038000
     17 C4          1.3510    0.3540    2.5680 ca        1 POX     -0.151000
     18 C5          0.0710    0.7850    2.2310 ca        1 POX     -0.106000
     19 C6         -0.4510    0.5340    0.9630 ca        1 POX     -0.132000
     20 F1          3.3630   -0.7670    1.9300 f         1 POX     -0.100000
     21 N1         -0.5310   -1.7780   -1.6590 na        1 POX     -0.110000
     22 N2          0.4090   -2.6730   -2.0560 n2        1 POX     -0.072000
     23 N4         -6.6390   -7.0520   -4.6560 n2        1 POX     -0.309000
     24 N5         -4.9360   -5.7420   -3.6340 n3        1 POX     -0.241000
     25 C17        -6.8770   -6.2920   -2.3290 c2        1 POX     -0.296000
     26 C18        -7.3780   -6.9970   -3.4940 c2        1 POX      0.253000
     27 N7         -8.0150   -7.2370   -0.4090 n2        1 POX     -0.052000
     28 O1         -8.7090   -6.9870    0.6770 oh        1 POX     -0.270000
     29 O2        -10.0080   -9.3430    2.0840 oh        1 POX     -0.329000
     30 H2          2.2040   -1.1430   -0.4080 ha        1 POX      0.167000
     31 HN6        -9.1230   -7.6350   -2.6170 hn        1 POX      0.238500
     32 HN6A       -8.9280   -8.1090   -4.2400 hn        1 POX      0.238500
     33 H7          0.5130   -0.0100   -2.1230 h1        1 POX      0.120000
     34 H7A        -1.2010    0.1850   -1.4970 h1        1 POX      0.120000
     35 H8          0.3500   -4.7700   -2.4920 h4        1 POX      0.194000
     36 H10        -3.4100   -1.0220   -1.7300 hc        1 POX      0.166000
     37 H11        -3.0040   -1.4230   -0.0100 hc        1 POX      0.166000
     38 H14        -2.4770   -5.7370   -2.0090 ha        1 POX      0.156000
     39 H15        -4.0570   -5.2900   -3.7520 hn        1 POX      0.243000
     40 H19        -7.8900   -5.1520   -0.7690 h4        1 POX      0.126000
     41 H20        -8.9220   -7.8710    1.0500 ho        1 POX      0.266000
     42 H20A       -7.8810   -9.9630    0.6900 ha        1 POX      0.126500
     43 H21        -9.6050  -11.1950    3.0060 h4        1 POX      0.115000
     44 H21A       -7.5910  -11.5940    1.5380 ha        1 POX      0.126500
     45 H22       -10.6980   -9.3320    2.7850 ho        1 POX      0.261000
     46 H22A      -12.1870   -9.9540    5.0490 ha        1 POX      0.035000
     47 H22B      -12.7550   -8.4530    4.1730 ha        1 POX      0.035000
     48 H4          1.7690    0.5460    3.5670 ha        1 POX      0.154000
     49 H5         -0.5330    1.3280    2.9740 ha        1 POX      0.144000
     50 H6         -1.4650    0.8790    0.7120 ha        1 POX      0.135000
     51 HN3        -5.6850   -4.8010   -0.5850 hn        1 POX      0.240000
     52 N3         -5.0180   -5.1060   -1.2710 n3        1 POX     -0.222000
     53 C19        -7.6470   -6.1870   -1.0920 c2        1 POX     -0.097000
     54 N6         -8.6170   -7.5770   -3.4640 n3        1 POX     -0.350000
@<TRIPOS>BOND
     1    1    2 1   
     2    1    4 1   
     3    1   19 1   
     4    2    3 1   
     5    2   30 1   
     6    3   17 1   
     7    3   20 1   
     8    4   21 1   
     9    4   33 1   
    10    4   34 1   
    11    5   10 1   
    12    5   22 1   
    13    5   35 1   
    14    6    7 1   
    15    6   11 1   
    16    6   52 1   
    17    7    8 1   
    18    8    9 1   
    19    8   36 1   
    20    8   37 1   
    21    9   10 1   
    22    9   21 1   
    23   10   11 1   
    24   11   38 1   
    25   12   23 1   
    26   12   24 1   
    27   13   24 1   
    28   13   25 1   
    29   13   52 1   
    30   14   15 1   
    31   14   42 1   
    32   14   44 1   
    33   15   29 1   
    34   15   43 1   
    35   16   46 1   
    36   16   47 1   
    37   17   18 1   
    38   17   48 1   
    39   18   19 1   
    40   18   49 1   
    41   19   50 1   
    42   21   22 1   
    43   23   26 1   
    44   24   39 1   
    45   25   26 1   
    46   25   53 1   
    47   26   54 1   
    48   27   28 1   
    49   27   53 1   
    50   28   41 1   
    51   29   45 1   
    52   31   54 1   
    53   32   54 1   
    54   40   53 1   
    55   51   52 1   
@<TRIPOS>SUBSTRUCTURE
     1 POX         1 TEMP              0 ****  ****    0 ROOT
