@<TRIPOS>MOLECULE
POX
   54    55     1     0     0
SMALL
bcc


@<TRIPOS>ATOM
      1 C1          0.3320   -0.1670   -0.0100 ca        1 POX     -0.095000
      2 C2          1.6200   -0.6180    0.2850 ca        1 POX     -0.137000
      3 C3          2.1570   -0.3770    1.5630 ca        1 POX      0.092000
      4 C7         -0.2360   -0.3860   -1.3820 c3        1 POX      0.033000
      5 C8         -0.2120   -3.8710   -2.2210 c2        1 POX     -0.101000
      6 C9         -3.9340   -4.1960   -1.3940 c2        1 POX     -0.134000
      7 C10        -4.1460   -2.8440   -1.0120 c1        1 POX     -0.123000
      8 C11        -3.0750   -1.8570   -1.0420 c3        1 POX     -0.145000
      9 C12        -1.7710   -2.3840   -1.4910 c2        1 POX     -0.016000
     10 C13        -1.6080   -3.7600   -1.8440 c2        1 POX     -0.232000
     11 C14        -2.6830   -4.6680   -1.7820 c2        1 POX      0.070000
     12 C15        -5.5280   -6.3910   -4.7150 c1        1 POX     -0.034000
     13 C16        -5.6330   -5.6480   -2.4060 c2        1 POX      0.195000
     14 C20        -8.2070  -10.7020    1.4240 c2        1 POX     -0.304000
     15 C21        -9.2550  -10.5070    2.2320 c2        1 POX     -0.023000
     16 C22       -11.9740   -9.3110    4.2690 c1        1 POX     -0.038000
     17 C4          1.4060    0.3120    2.5340 ca        1 POX     -0.151000
     18 C5          0.1240    0.7500    2.2190 ca        1 POX     -0.106000
     19 C6         -0.4170    0.5120    0.9560 ca        1 POX     -0.132000
     20 F1          3.4060   -0.8100    1.8590 f         1 POX     -0.100000
     21 N1         -0.5390   -1.7760   -1.6850 na        1 POX     -0.110000
     22 N2          0.3920   -2.6700   -2.1040 n2        1 POX     -0.072000
     23 N4         -6.7070   -7.0030   -4.6440 n2        1 POX     -0.309000
     24 N5         -4.9840   -5.7080   -3.6340 n7        1 POX     -0.241000
     25 C17        -6.9080   -6.2650   -2.3060 c2        1 POX     -0.296000
     26 C18        -7.4290   -6.9570   -3.4710 c2        1 POX      0.253000
     27 N7         -8.0220   -7.2240   -0.3800 n2        1 POX     -0.052000
     28 O1         -8.7000   -6.9810    0.7180 oh        1 POX     -0.270000
     29 O2         -9.9860   -9.3470    2.1220 oh        1 POX     -0.329000
     30 H2          2.2140   -1.1610   -0.4660 ha        1 POX      0.167000
     31 HN6        -9.1630   -7.5970   -2.5760 hn        1 POX      0.238500
     32 HN6A       -8.9930   -8.0560   -4.2050 hn        1 POX      0.238500
     33 H7          0.5030   -0.0070   -2.1480 h1        1 POX      0.120000
     34 H7A        -1.2010    0.1880   -1.4960 h1        1 POX      0.120000
     35 H8          0.3210   -4.7630   -2.5580 h4        1 POX      0.194000
     36 H10        -3.4170   -1.0110   -1.7090 hc        1 POX      0.166000
     37 H11        -2.9880   -1.4280    0.0020 hc        1 POX      0.166000
     38 H14        -2.5020   -5.7260   -2.0440 ha        1 POX      0.156000
     39 H15        -4.1060   -5.2580   -3.7600 hn        1 POX      0.243000
     40 H19        -7.8960   -5.1350   -0.7210 h4        1 POX      0.126000
     41 H20        -8.9110   -7.8690    1.0860 ho        1 POX      0.266000
     42 H20A       -7.8960   -9.9660    0.6730 ha        1 POX      0.126500
     43 H21        -9.5910  -11.2250    2.9960 h4        1 POX      0.115000
     44 H21A       -7.6130  -11.6190    1.4800 ha        1 POX      0.126500
     45 H22       -10.6620   -9.3420    2.8370 ho        1 POX      0.261000
     46 H22A      -12.1310  -10.0100    5.1010 ha        1 POX      0.035000
     47 H22B      -12.6720   -8.4630    4.2920 ha        1 POX      0.035000
     48 H4          1.8390    0.4940    3.5290 ha        1 POX      0.154000
     49 H5         -0.4680    1.2880    2.9750 ha        1 POX      0.144000
     50 H6         -1.4330    0.8630    0.7220 ha        1 POX      0.135000
     51 HN3        -5.6870   -4.7940   -0.5660 hn        1 POX      0.240000
     52 N3         -5.0310   -5.0950   -1.2640 n7        1 POX     -0.222000
     53 C19        -7.6600   -6.1690   -1.0580 c2        1 POX     -0.097000
     54 N6         -8.6690   -7.5320   -3.4290 n8        1 POX     -0.350000
@<TRIPOS>BOND
     1    1    2 1   
     2    1    4 1   
     3    1   19 1   
     4    2    3 1   
     5    2   30 1   
     6    3   17 1   
     7    3   20 1   
     8    4   21 1   
     9    4   33 1   
    10    4   34 1   
    11    5   10 1   
    12    5   22 1   
    13    5   35 1   
    14    6    7 1   
    15    6   11 1   
    16    6   52 1   
    17    7    8 1   
    18    8    9 1   
    19    8   36 1   
    20    8   37 1   
    21    9   10 1   
    22    9   21 1   
    23   10   11 1   
    24   11   38 1   
    25   12   23 1   
    26   12   24 1   
    27   13   24 1   
    28   13   25 1   
    29   13   52 1   
    30   14   15 1   
    31   14   42 1   
    32   14   44 1   
    33   15   29 1   
    34   15   43 1   
    35   16   46 1   
    36   16   47 1   
    37   17   18 1   
    38   17   48 1   
    39   18   19 1   
    40   18   49 1   
    41   19   50 1   
    42   21   22 1   
    43   23   26 1   
    44   24   39 1   
    45   25   26 1   
    46   25   53 1   
    47   26   54 1   
    48   27   28 1   
    49   27   53 1   
    50   28   41 1   
    51   29   45 1   
    52   31   54 1   
    53   32   54 1   
    54   40   53 1   
    55   51   52 1   
@<TRIPOS>SUBSTRUCTURE
     1 POX         1 TEMP              0 ****  ****    0 ROOT
