@<TRIPOS>MOLECULE
POX
   54    55     1     0     0
SMALL
bcc


@<TRIPOS>ATOM
      1 C1          0.3030   -0.1450    0.0240 ca        1 POX     -0.095000
      2 C2          1.5860   -0.5810    0.3550 ca        1 POX     -0.137000
      3 C3          2.0930   -0.3190    1.6410 ca        1 POX      0.092000
      4 C7         -0.2320   -0.3860   -1.3570 c3        1 POX      0.033000
      5 C8         -0.1670   -3.8840   -2.1450 c2        1 POX     -0.101000
      6 C9         -3.9030   -4.2220   -1.3950 c2        1 POX     -0.134000
      7 C10        -4.1330   -2.8660   -1.0380 c1        1 POX     -0.123000
      8 C11        -3.0680   -1.8730   -1.0580 c3        1 POX     -0.145000
      9 C12        -1.7510   -2.3970   -1.4710 c2        1 POX     -0.016000
     10 C13        -1.5710   -3.7770   -1.8000 c2        1 POX     -0.231000
     11 C14        -2.6410   -4.6920   -1.7490 c2        1 POX      0.070000
     12 C15        -5.4100   -6.4780   -4.7170 c1        1 POX     -0.034000
     13 C16        -5.5700   -5.7020   -2.4220 c2        1 POX      0.195000
     14 C20        -8.1440  -10.6910    1.4830 c2        1 POX     -0.304000
     15 C21        -9.2120  -10.4910    2.2630 c2        1 POX     -0.023000
     16 C22       -11.9840   -9.2640    4.2110 c1        1 POX     -0.038000
     17 C4          1.3140    0.3770    2.5850 ca        1 POX     -0.151000
     18 C5          0.0360    0.8020    2.2340 ca        1 POX     -0.106000
     19 C6         -0.4730    0.5420    0.9630 ca        1 POX     -0.132000
     20 F1          3.3370   -0.7380    1.9710 f         1 POX     -0.100000
     21 N1         -0.5190   -1.7830   -1.6480 na        1 POX     -0.110000
     22 N2          0.4270   -2.6760   -2.0330 n2        1 POX     -0.072000
     23 N4         -6.5850   -7.0980   -4.6620 n2        1 POX     -0.309000
     24 N5         -4.8940   -5.7750   -3.6350 n3        1 POX     -0.241000
     25 C17        -6.8420   -6.3260   -2.3410 c2        1 POX     -0.296000
     26 C18        -7.3330   -7.0390   -3.5050 c2        1 POX      0.253000
     27 N7         -7.9890   -7.2650   -0.4230 n2        1 POX     -0.052000
     28 O1         -8.6920   -7.0110    0.6560 oh        1 POX     -0.270000
     29 O2         -9.9740   -9.3610    2.0880 oh        1 POX     -0.329000
     30 H2          2.2020   -1.1300   -0.3750 ha        1 POX      0.167000
     31 HN6        -9.0810   -7.6800   -2.6380 hn        1 POX      0.238500
     32 HN6A       -8.8730   -8.1620   -4.2570 hn        1 POX      0.238500
     33 H7          0.5220   -0.0140   -2.1120 h1        1 POX      0.120000
     34 H7A        -1.1980    0.1790   -1.5020 h1        1 POX      0.120000
     35 H8          0.3800   -4.7760   -2.4580 h4        1 POX      0.194000
     36 H10        -3.4010   -1.0390   -1.7460 hc        1 POX      0.166000
     37 H11        -3.0070   -1.4280   -0.0200 hc        1 POX      0.166000
     38 H14        -2.4470   -5.7510   -1.9910 ha        1 POX      0.156000
     39 H15        -4.0170   -5.3200   -3.7490 hn        1 POX      0.243000
     40 H19        -7.8740   -5.1810   -0.7960 h4        1 POX      0.126000
     41 H20        -8.9020   -7.8950    1.0340 ho        1 POX      0.266000
     42 H20A       -7.8400   -9.9810    0.7050 ha        1 POX      0.126500
     43 H21        -9.5410  -11.1840    3.0530 h4        1 POX      0.115000
     44 H21A       -7.5240  -11.5870    1.5900 ha        1 POX      0.126500
     45 H22       -10.6610   -9.3420    2.7930 ho        1 POX      0.261000
     46 H22A      -12.0920   -9.8820    5.1130 ha        1 POX      0.035000
     47 H22B      -12.7380   -8.4660    4.1520 ha        1 POX      0.035000
     48 H4          1.7220    0.5770    3.5870 ha        1 POX      0.154000
     49 H5         -0.5770    1.3450    2.9690 ha        1 POX      0.144000
     50 H6         -1.4860    0.8820    0.7010 ha        1 POX      0.135000
     51 HN3        -5.6700   -4.8210   -0.5970 hn        1 POX      0.240000
     52 N3         -4.9970   -5.1270   -1.2760 n3        1 POX     -0.222000
     53 C19        -7.6220   -6.2180   -1.1110 c2        1 POX     -0.097000
     54 N6         -8.5690   -7.6240   -3.4810 n3        1 POX     -0.350000
@<TRIPOS>BOND
     1    1    2 1   
     2    1    4 1   
     3    1   19 1   
     4    2    3 1   
     5    2   30 1   
     6    3   17 1   
     7    3   20 1   
     8    4   21 1   
     9    4   33 1   
    10    4   34 1   
    11    5   10 1   
    12    5   22 1   
    13    5   35 1   
    14    6    7 1   
    15    6   11 1   
    16    6   52 1   
    17    7    8 1   
    18    8    9 1   
    19    8   36 1   
    20    8   37 1   
    21    9   10 1   
    22    9   21 1   
    23   10   11 1   
    24   11   38 1   
    25   12   23 1   
    26   12   24 1   
    27   13   24 1   
    28   13   25 1   
    29   13   52 1   
    30   14   15 1   
    31   14   42 1   
    32   14   44 1   
    33   15   29 1   
    34   15   43 1   
    35   16   46 1   
    36   16   47 1   
    37   17   18 1   
    38   17   48 1   
    39   18   19 1   
    40   18   49 1   
    41   19   50 1   
    42   21   22 1   
    43   23   26 1   
    44   24   39 1   
    45   25   26 1   
    46   25   53 1   
    47   26   54 1   
    48   27   28 1   
    49   27   53 1   
    50   28   41 1   
    51   29   45 1   
    52   31   54 1   
    53   32   54 1   
    54   40   53 1   
    55   51   52 1   
@<TRIPOS>SUBSTRUCTURE
     1 POX         1 TEMP              0 ****  ****    0 ROOT
