@<TRIPOS>MOLECULE
POX
   54    57     1     0     0
SMALL
bcc


@<TRIPOS>ATOM
      1 C1         -5.1730   -1.4310   -0.8140 ca        1 POX     -0.098300
      2 C2         -6.1780   -1.1640    0.1170 ca        1 POX     -0.139000
      3 C3         -6.6420   -2.2000    0.9470 ca        1 POX      0.122900
      4 C7         -4.6960   -0.3400   -1.7290 c3        1 POX      0.102600
      5 C8         -3.4350    2.1940    0.4330 cc        1 POX      0.361800
      6 C9          0.1490    0.9270   -0.0510 ca        1 POX      0.098600
      7 C10        -0.2040   -0.0560   -1.0190 ca        1 POX     -0.130000
      8 C11        -1.5120   -0.2490   -1.4300 ca        1 POX     -0.124000
      9 C12        -2.5020    0.5640   -0.8670 ca        1 POX     -0.057200
     10 C13        -2.1560    1.5650    0.1110 ca        1 POX     -0.203900
     11 C14        -0.8420    1.7460    0.5170 ca        1 POX     -0.039000
     12 C15         2.4320    4.4820    0.0590 ca        1 POX      0.702900
     13 C16         2.2420    2.1920    0.3150 ca        1 POX      0.721200
     14 C20         6.5740   -1.4850   -0.3800 c3        1 POX      0.143400
     15 C21         6.7400   -2.9050    0.1460 c3        1 POX      0.117400
     16 C22         5.8510   -5.0730   -0.1750 c3        1 POX      0.116700
     17 C4         -6.1010   -3.4950    0.8430 ca        1 POX     -0.157000
     18 C5         -5.0990   -3.7400   -0.0910 ca        1 POX     -0.109000
     19 C6         -4.6320   -2.7160   -0.9150 ca        1 POX     -0.130000
     20 F1         -7.6190   -1.9500    1.8530 f         1 POX     -0.138900
     21 N1         -3.8940    0.6950   -1.1030 na        1 POX      0.089900
     22 N2         -4.4250    1.6250   -0.2700 nd        1 POX     -0.511100
     23 N4          3.7600    4.5540    0.2800 nb        1 POX     -0.791000
     24 N5          1.6270    3.3950    0.0560 nb        1 POX     -0.781000
     25 C17         3.6500    2.1300    0.5770 ca        1 POX     -0.497500
     26 C18         4.3900    3.3550    0.5570 ca        1 POX      0.733200
     27 N7          5.1690    0.3060    0.1110 n2        1 POX     -0.438200
     28 O1          5.6440   -0.8520    0.5440 os        1 POX     -0.201300
     29 O2          5.8880   -3.7340   -0.6400 os        1 POX     -0.422600
     30 H2         -6.6050   -0.1540    0.2100 ha        1 POX      0.165000
     31 HN6         6.2440    4.2120    0.7270 hn        1 POX      0.433300
     32 HN6A        6.2340    2.5240    0.8410 hn        1 POX      0.433300
     33 H7         -4.0600   -0.7800   -2.5500 h1        1 POX      0.074200
     34 H7A        -5.5950    0.1570   -2.1990 h1        1 POX      0.074200
     35 H8         -3.6060    3.0170    1.1300 h4        1 POX      0.057800
     36 H10         0.5820   -0.6920   -1.4580 ha        1 POX      0.134000
     37 H11        -1.7600   -1.0150   -2.1770 ha        1 POX      0.137000
     38 H14        -0.5940    2.5190    1.2610 ha        1 POX      0.161000
     39 H15         1.9270    5.4480   -0.1610 h5        1 POX      0.053100
     40 H19         3.9330    0.3750    1.8390 h4        1 POX      0.010800
     41 H20         7.5460   -0.9310   -0.3390 h1        1 POX      0.063200
     42 H20A        6.1630   -1.4850   -1.4220 h1        1 POX      0.063200
     43 H21         7.8040   -3.2390    0.0180 h1        1 POX      0.045700
     44 H21A        6.4530   -2.9690    1.2290 h1        1 POX      0.045700
     45 H22         6.8710   -5.5300   -0.2110 h1        1 POX      0.035033
     46 H22A        5.4490   -5.1190    0.8670 h1        1 POX      0.035033
     47 H22B        5.1620   -5.5950   -0.8850 h1        1 POX      0.035033
     48 H4         -6.4730   -4.2960    1.4970 ha        1 POX      0.150000
     49 H5         -4.6700   -4.7500   -0.1760 ha        1 POX      0.139000
     50 H6         -3.8350   -2.9220   -1.6450 ha        1 POX      0.134000
     51 HN3         2.0290    0.1800    0.2210 hn        1 POX      0.432800
     52 N3          1.4950    1.0100    0.3810 nh        1 POX     -0.720300
     53 C19         4.2790    0.8490    0.8950 ce        1 POX      0.414800
     54 N6          5.7320    3.3760    0.8840 nh        1 POX     -0.947500
@<TRIPOS>BOND
     1    1    2 ar  
     2    1    4 1   
     3    1   19 ar  
     4    2    3 ar  
     5    2   30 1   
     6    3   17 ar  
     7    3   20 1   
     8    4   21 1   
     9    4   33 1   
    10    4   34 1   
    11    5   10 1   
    12    5   22 2   
    13    5   35 1   
    14    6    7 ar  
    15    6   11 ar  
    16    6   52 1   
    17    7    8 ar  
    18    7   36 1   
    19    8    9 ar  
    20    8   37 1   
    21    9   10 ar  
    22    9   21 1   
    23   10   11 ar  
    24   11   38 1   
    25   12   23 ar  
    26   12   24 ar  
    27   12   39 1   
    28   13   24 ar  
    29   13   25 ar  
    30   13   52 1   
    31   14   15 1   
    32   14   28 1   
    33   14   41 1   
    34   14   42 1   
    35   15   29 1   
    36   15   43 1   
    37   15   44 1   
    38   16   29 1   
    39   16   45 1   
    40   16   46 1   
    41   16   47 1   
    42   17   18 ar  
    43   17   48 1   
    44   18   19 ar  
    45   18   49 1   
    46   19   50 1   
    47   21   22 1   
    48   23   26 ar  
    49   25   26 ar  
    50   25   53 1   
    51   26   54 1   
    52   27   28 1   
    53   27   53 2   
    54   31   54 1   
    55   32   54 1   
    56   40   53 1   
    57   51   52 1   
@<TRIPOS>SUBSTRUCTURE
     1 POX         1 TEMP              0 ****  ****    0 ROOT
