@<TRIPOS>MOLECULE
POY
   44    45     1     0     0
SMALL
bcc


@<TRIPOS>ATOM
      1 N1          0.0570   -0.0880   -0.1900 n         1 POY     -0.482400
      2 C2          1.4640    0.0180   -0.2200 c         1 POY      0.764100
      3 C3          2.0830    0.0900    1.0920 cc        1 POY     -0.349200
      4 C4          1.3230    0.0220    2.3050 cd        1 POY      0.484200
      5 N5         -0.0580   -0.1040    2.2710 n         1 POY     -0.418300
      6 C6         -0.6980   -0.1770    1.0100 c         1 POY      0.815500
      7 N7          3.4230    0.2010    1.4760 na        1 POY     -0.147900
      8 C8          3.4240    0.2120    2.8700 cc        1 POY      0.444400
      9 N9          2.1820    0.0980    3.4130 nd        1 POY     -0.687000
     10 C10        -0.6780   -0.1770   -1.4420 c3        1 POY      0.096000
     11 C11        -1.0530   -1.6010   -1.8510 c3        1 POY     -0.100400
     12 C12        -1.8010   -1.5690   -3.1670 c3        1 POY     -0.072400
     13 C13        -2.2160   -2.9620   -3.5840 c3        1 POY     -0.181400
     14 C14        -2.9150   -2.9840   -4.9140 c         1 POY      0.565100
     15 C15        -3.6010   -4.2730   -5.2400 c3        1 POY     -0.205100
     16 O16        -2.9250   -2.0210   -5.6860 o         1 POY     -0.530100
     17 O17         2.0840    0.0520   -1.2990 o         1 POY     -0.630500
     18 O18        -1.9410   -0.3090    0.9610 o         1 POY     -0.641500
     19 C19        -0.8150   -0.1900    3.4920 c3        1 POY      0.090300
     20 C20         4.5580    0.3470    0.6050 c3        1 POY      0.023300
     21 C21         5.2410    1.7130    0.6790 c3        1 POY     -0.097400
     22 C22         6.4320    1.7360   -0.2440 c3        1 POY     -0.096100
     23 H8          4.3470    0.2950    3.4570 h5        1 POY      0.070100
     24 H10        -1.6220    0.4320   -1.3330 h1        1 POY      0.078700
     25 H10A       -0.0380    0.2860   -2.2480 h1        1 POY      0.078700
     26 H11        -1.6980   -2.0620   -1.0570 hc        1 POY      0.053200
     27 H11A       -0.1310   -2.2290   -1.9540 hc        1 POY      0.053200
     28 H12        -2.7120   -0.9200   -3.0750 hc        1 POY      0.057700
     29 H12A       -1.1570   -1.1170   -3.9670 hc        1 POY      0.057700
     30 H13        -2.8960   -3.4080   -2.8100 hc        1 POY      0.065700
     31 H13A       -1.3120   -3.6240   -3.6590 hc        1 POY      0.065700
     32 H15        -3.9170   -4.2940   -6.3110 hc        1 POY      0.063367
     33 H15A       -4.5080   -4.3820   -4.5960 hc        1 POY      0.063367
     34 H15B       -2.9180   -5.1330   -5.0430 hc        1 POY      0.063367
     35 H19        -0.6140    0.7190    4.1190 h1        1 POY      0.063033
     36 H19A       -0.5040   -1.1050    4.0640 h1        1 POY      0.063033
     37 H19B       -1.9110   -0.2490    3.2550 h1        1 POY      0.063033
     38 H20         4.2070    0.1650   -0.4550 h1        1 POY      0.083700
     39 H20A        5.3060   -0.4530    0.8770 h1        1 POY      0.083700
     40 H21         5.5700    1.9230    1.7310 hc        1 POY      0.052700
     41 H21A        4.5180    2.5190    0.3860 hc        1 POY      0.052700
     42 H22         6.9310    2.7340   -0.1970 hc        1 POY      0.041700
     43 H22A        6.1180    1.5480   -1.3000 hc        1 POY      0.041700
     44 H22B        7.1760    0.9560    0.0460 hc        1 POY      0.041700
@<TRIPOS>BOND
     1    1    2 1   
     2    1    6 1   
     3    1   10 1   
     4    2    3 1   
     5    2   17 2   
     6    3    4 2   
     7    3    7 1   
     8    4    5 1   
     9    4    9 1   
    10    5    6 1   
    11    5   19 1   
    12    6   18 2   
    13    7    8 1   
    14    7   20 1   
    15    8    9 2   
    16    8   23 1   
    17   10   11 1   
    18   10   24 1   
    19   10   25 1   
    20   11   12 1   
    21   11   26 1   
    22   11   27 1   
    23   12   13 1   
    24   12   28 1   
    25   12   29 1   
    26   13   14 1   
    27   13   30 1   
    28   13   31 1   
    29   14   15 1   
    30   14   16 2   
    31   15   32 1   
    32   15   33 1   
    33   15   34 1   
    34   19   35 1   
    35   19   36 1   
    36   19   37 1   
    37   20   21 1   
    38   20   38 1   
    39   20   39 1   
    40   21   22 1   
    41   21   40 1   
    42   21   41 1   
    43   22   42 1   
    44   22   43 1   
    45   22   44 1   
@<TRIPOS>SUBSTRUCTURE
     1 POY         1 TEMP              0 ****  ****    0 ROOT
