@<TRIPOS>MOLECULE
POY
   44    45     1     0     0
SMALL
bcc


@<TRIPOS>ATOM
      1 N1         -0.0930    0.4630   -0.5230 n         1 POY     -0.482400
      2 C2          0.8470   -0.5610   -0.2730 c         1 POY      0.764100
      3 C3          2.1590   -0.0790    0.1200 cc        1 POY     -0.349200
      4 C4          2.4530    1.3150    0.2720 cd        1 POY      0.484200
      5 N5          1.4810    2.2750    0.0340 n         1 POY     -0.418300
      6 C6          0.1880    1.8440   -0.3520 c         1 POY      0.815500
      7 N7          3.3350   -0.7640    0.4440 na        1 POY     -0.147900
      8 C8          4.2770    0.2150    0.7560 cc        1 POY      0.444400
      9 N9          3.7880    1.4820    0.6750 nd        1 POY     -0.687000
     10 C10        -1.4470    0.1060   -0.9160 c3        1 POY      0.096000
     11 C11        -2.4570    0.1110    0.2310 c3        1 POY     -0.100400
     12 C12        -3.8200   -0.2830   -0.2930 c3        1 POY     -0.072400
     13 C13        -4.8520   -0.2540    0.8130 c3        1 POY     -0.181400
     14 C14        -6.2120   -0.6920    0.3480 c         1 POY      0.565100
     15 C15        -7.3240   -0.4060    1.3070 c3        1 POY     -0.205100
     16 O16        -6.4070   -1.2480   -0.7370 o         1 POY     -0.530100
     17 O17         0.5410   -1.7610   -0.3980 o         1 POY     -0.630500
     18 O18        -0.7060    2.6960   -0.5540 o         1 POY     -0.641500
     19 C19         1.7750    3.6730    0.2060 c3        1 POY      0.090300
     20 C20         3.5440   -2.1860    0.3920 c3        1 POY      0.023300
     21 C21         4.5110   -2.6440   -0.7020 c3        1 POY     -0.097400
     22 C22         4.6800   -4.1400   -0.6360 c3        1 POY     -0.096100
     23 H8          5.3060   -0.0290    1.0480 h5        1 POY      0.070100
     24 H10        -1.7840    0.8430   -1.7020 h1        1 POY      0.078700
     25 H10A       -1.4100   -0.9240   -1.3750 h1        1 POY      0.078700
     26 H11        -2.1360   -0.6050    1.0320 hc        1 POY      0.053200
     27 H11A       -2.5040    1.1360    0.6860 hc        1 POY      0.053200
     28 H12        -4.1340    0.4170   -1.1120 hc        1 POY      0.057700
     29 H12A       -3.7810   -1.3120   -0.7390 hc        1 POY      0.057700
     30 H13        -4.5370   -0.9370    1.6470 hc        1 POY      0.065700
     31 H13A       -4.9290    0.7810    1.2390 hc        1 POY      0.065700
     32 H15        -7.5230    0.6930    1.3250 hc        1 POY      0.063367
     33 H15A       -8.2580   -0.9350    1.0000 hc        1 POY      0.063367
     34 H15B       -7.0390   -0.7340    2.3360 hc        1 POY      0.063367
     35 H19         2.6400    3.9550   -0.4520 h1        1 POY      0.063033
     36 H19A        0.8760    4.2860   -0.0710 h1        1 POY      0.063033
     37 H19B        2.0510    3.8710    1.2760 h1        1 POY      0.063033
     38 H20         3.9440   -2.5120    1.3960 h1        1 POY      0.083700
     39 H20A        2.5390   -2.6780    0.2290 h1        1 POY      0.083700
     40 H21         4.1150   -2.3510   -1.7090 hc        1 POY      0.052700
     41 H21A        5.5060   -2.1420   -0.5720 hc        1 POY      0.052700
     42 H22         5.0960   -4.4510    0.3530 hc        1 POY      0.041700
     43 H22A        3.7000   -4.6560   -0.7840 hc        1 POY      0.041700
     44 H22B        5.3810   -4.4800   -1.4360 hc        1 POY      0.041700
@<TRIPOS>BOND
     1    1    2 1   
     2    1    6 1   
     3    1   10 1   
     4    2    3 1   
     5    2   17 2   
     6    3    4 2   
     7    3    7 1   
     8    4    5 1   
     9    4    9 1   
    10    5    6 1   
    11    5   19 1   
    12    6   18 2   
    13    7    8 1   
    14    7   20 1   
    15    8    9 2   
    16    8   23 1   
    17   10   11 1   
    18   10   24 1   
    19   10   25 1   
    20   11   12 1   
    21   11   26 1   
    22   11   27 1   
    23   12   13 1   
    24   12   28 1   
    25   12   29 1   
    26   13   14 1   
    27   13   30 1   
    28   13   31 1   
    29   14   15 1   
    30   14   16 2   
    31   15   32 1   
    32   15   33 1   
    33   15   34 1   
    34   19   35 1   
    35   19   36 1   
    36   19   37 1   
    37   20   21 1   
    38   20   38 1   
    39   20   39 1   
    40   21   22 1   
    41   21   40 1   
    42   21   41 1   
    43   22   42 1   
    44   22   43 1   
    45   22   44 1   
@<TRIPOS>SUBSTRUCTURE
     1 POY         1 TEMP              0 ****  ****    0 ROOT
