@<TRIPOS>MOLECULE
POY
   44    45     1     0     0
SMALL
bcc


@<TRIPOS>ATOM
      1 N1          0.0630   -0.0830   -0.1900 n         1 POY     -0.482400
      2 C2          1.4720    0.0060   -0.2130 c         1 POY      0.764100
      3 C3          2.0850    0.0630    1.1020 cc        1 POY     -0.349200
      4 C4          1.3190   -0.0010    2.3110 cd        1 POY      0.484200
      5 N5         -0.0630   -0.1110    2.2700 n         1 POY     -0.418300
      6 C6         -0.6980   -0.1690    1.0050 c         1 POY      0.815500
      7 N7          3.4250    0.1550    1.4920 na        1 POY     -0.147900
      8 C8          3.4200    0.1600    2.8860 cc        1 POY      0.444400
      9 N9          2.1730    0.0590    3.4230 nd        1 POY     -0.687000
     10 C10        -0.6670   -0.1550   -1.4460 c3        1 POY      0.096000
     11 C11        -1.0590   -1.5720   -1.8650 c3        1 POY     -0.100400
     12 C12        -1.8000   -1.5240   -3.1830 c3        1 POY     -0.072400
     13 C13        -2.2330   -2.9090   -3.6090 c3        1 POY     -0.181400
     14 C14        -2.9260   -2.9150   -4.9420 c         1 POY      0.565100
     15 C15        -3.6310   -4.1920   -5.2760 c3        1 POY     -0.205100
     16 O16        -2.9180   -1.9490   -5.7100 o         1 POY     -0.530100
     17 O17         2.0980    0.0380   -1.2890 o         1 POY     -0.630500
     18 O18        -1.9420   -0.2840    0.9500 o         1 POY     -0.641500
     19 C19        -0.8270   -0.1930    3.4870 c3        1 POY      0.090300
     20 C20         4.5650    0.2920    0.6270 c3        1 POY      0.023300
     21 C21         5.2660    1.6490    0.7120 c3        1 POY     -0.097400
     22 C22         6.4610    1.6620   -0.2060 c3        1 POY     -0.096100
     23 H8          4.3410    0.2280    3.4780 h5        1 POY      0.070100
     24 H10        -1.6030    0.4650   -1.3380 h1        1 POY      0.078700
     25 H10A       -0.0170    0.3030   -2.2460 h1        1 POY      0.078700
     26 H11        -0.1440   -2.2120   -1.9660 hc        1 POY      0.053200
     27 H11A       -1.7130   -2.0300   -1.0750 hc        1 POY      0.053200
     28 H12        -2.7030   -0.8640   -3.0920 hc        1 POY      0.057700
     29 H12A       -1.1460   -1.0770   -3.9790 hc        1 POY      0.057700
     30 H13        -1.3370   -3.5830   -3.6840 hc        1 POY      0.065700
     31 H13A       -2.9210   -3.3500   -2.8400 hc        1 POY      0.065700
     32 H15        -4.5430   -4.2880   -4.6370 hc        1 POY      0.063367
     33 H15A       -3.9410   -4.2050   -6.3490 hc        1 POY      0.063367
     34 H15B       -2.9620   -5.0640   -5.0780 hc        1 POY      0.063367
     35 H19        -1.9220   -0.2370    3.2440 h1        1 POY      0.063033
     36 H19A       -0.5300   -1.1140    4.0560 h1        1 POY      0.063033
     37 H19B       -0.6180    0.7110    4.1200 h1        1 POY      0.063033
     38 H20         4.2170    0.1200   -0.4350 h1        1 POY      0.083700
     39 H20A        5.3020   -0.5190    0.8990 h1        1 POY      0.083700
     40 H21         4.5540    2.4650    0.4190 hc        1 POY      0.052700
     41 H21A        5.5920    1.8500    1.7660 hc        1 POY      0.052700
     42 H22         6.1490    1.4840   -1.2640 hc        1 POY      0.041700
     43 H22A        7.1940    0.8710    0.0840 hc        1 POY      0.041700
     44 H22B        6.9720    2.6540   -0.1510 hc        1 POY      0.041700
@<TRIPOS>BOND
     1    1    2 1   
     2    1    6 1   
     3    1   10 1   
     4    2    3 1   
     5    2   17 2   
     6    3    4 2   
     7    3    7 1   
     8    4    5 1   
     9    4    9 1   
    10    5    6 1   
    11    5   19 1   
    12    6   18 2   
    13    7    8 1   
    14    7   20 1   
    15    8    9 2   
    16    8   23 1   
    17   10   11 1   
    18   10   24 1   
    19   10   25 1   
    20   11   12 1   
    21   11   26 1   
    22   11   27 1   
    23   12   13 1   
    24   12   28 1   
    25   12   29 1   
    26   13   14 1   
    27   13   30 1   
    28   13   31 1   
    29   14   15 1   
    30   14   16 2   
    31   15   32 1   
    32   15   33 1   
    33   15   34 1   
    34   19   35 1   
    35   19   36 1   
    36   19   37 1   
    37   20   21 1   
    38   20   38 1   
    39   20   39 1   
    40   21   22 1   
    41   21   40 1   
    42   21   41 1   
    43   22   42 1   
    44   22   43 1   
    45   22   44 1   
@<TRIPOS>SUBSTRUCTURE
     1 POY         1 TEMP              0 ****  ****    0 ROOT
