@<TRIPOS>MOLECULE
POY
   44    45     1     0     0
SMALL
bcc


@<TRIPOS>ATOM
      1 N1          0.0610   -0.0860   -0.1860 n         1 POY     -0.482400
      2 C2          1.4690    0.0070   -0.2120 c         1 POY      0.764100
      3 C3          2.0850    0.0620    1.1020 cc        1 POY     -0.349200
      4 C4          1.3220   -0.0090    2.3130 cd        1 POY      0.484200
      5 N5         -0.0590   -0.1240    2.2750 n         1 POY     -0.418300
      6 C6         -0.6970   -0.1800    1.0110 c         1 POY      0.815500
      7 N7          3.4260    0.1580    1.4900 na        1 POY     -0.147900
      8 C8          3.4240    0.1580    2.8830 cc        1 POY      0.444400
      9 N9          2.1790    0.0500    3.4230 nd        1 POY     -0.687000
     10 C10        -0.6720   -0.1570   -1.4400 c3        1 POY      0.096000
     11 C11        -1.0590   -1.5740   -1.8640 c3        1 POY     -0.100400
     12 C12        -1.8030   -1.5240   -3.1800 c3        1 POY     -0.072400
     13 C13        -2.2290   -2.9090   -3.6110 c3        1 POY     -0.181400
     14 C14        -2.9260   -2.9130   -4.9420 c         1 POY      0.565100
     15 C15        -3.6220   -4.1930   -5.2820 c3        1 POY     -0.205100
     16 O16        -2.9280   -1.9420   -5.7050 o         1 POY     -0.530100
     17 O17         2.0920    0.0460   -1.2890 o         1 POY     -0.630500
     18 O18        -1.9410   -0.3000    0.9580 o         1 POY     -0.641500
     19 C19        -0.8200   -0.2130    3.4930 c3        1 POY      0.090300
     20 C20         4.5630    0.3020    0.6220 c3        1 POY      0.023300
     21 C21         5.2590    1.6620    0.7100 c3        1 POY     -0.097400
     22 C22         6.4520    1.6820   -0.2100 c3        1 POY     -0.096100
     23 H8          4.3460    0.2270    3.4740 h5        1 POY      0.070100
     24 H10        -1.6110    0.4580   -1.3270 h1        1 POY      0.079200
     25 H10A       -0.0260    0.3070   -2.2400 h1        1 POY      0.079200
     26 H11        -0.1410   -2.2090   -1.9700 hc        1 POY      0.053200
     27 H11A       -1.7080   -2.0380   -1.0750 hc        1 POY      0.053200
     28 H12        -2.7090   -0.8690   -3.0840 hc        1 POY      0.057700
     29 H12A       -1.1530   -1.0700   -3.9750 hc        1 POY      0.057700
     30 H13        -1.3300   -3.5790   -3.6910 hc        1 POY      0.065700
     31 H13A       -2.9130   -3.3570   -2.8420 hc        1 POY      0.065700
     32 H15        -4.5310   -4.3010   -4.6410 hc        1 POY      0.063367
     33 H15A       -3.9360   -4.2020   -6.3540 hc        1 POY      0.063367
     34 H15B       -2.9460   -5.0610   -5.0920 hc        1 POY      0.063367
     35 H19        -1.9160   -0.2610    3.2530 h1        1 POY      0.063033
     36 H19A       -0.5180   -1.1360    4.0580 h1        1 POY      0.063033
     37 H19B       -0.6130    0.6890    4.1290 h1        1 POY      0.063033
     38 H20         4.2130    0.1320   -0.4400 h1        1 POY      0.083700
     39 H20A        5.3040   -0.5070    0.8890 h1        1 POY      0.083700
     40 H21         4.5440    2.4760    0.4230 hc        1 POY      0.052700
     41 H21A        5.5870    1.8590    1.7650 hc        1 POY      0.052700
     42 H22         6.1380    1.5070   -1.2680 hc        1 POY      0.041700
     43 H22A        7.1890    0.8920    0.0740 hc        1 POY      0.041700
     44 H22B        6.9600    2.6750   -0.1530 hc        1 POY      0.041700
@<TRIPOS>BOND
     1    1    2 1   
     2    1    6 1   
     3    1   10 1   
     4    2    3 1   
     5    2   17 2   
     6    3    4 2   
     7    3    7 1   
     8    4    5 1   
     9    4    9 1   
    10    5    6 1   
    11    5   19 1   
    12    6   18 2   
    13    7    8 1   
    14    7   20 1   
    15    8    9 2   
    16    8   23 1   
    17   10   11 1   
    18   10   24 1   
    19   10   25 1   
    20   11   12 1   
    21   11   26 1   
    22   11   27 1   
    23   12   13 1   
    24   12   28 1   
    25   12   29 1   
    26   13   14 1   
    27   13   30 1   
    28   13   31 1   
    29   14   15 1   
    30   14   16 2   
    31   15   32 1   
    32   15   33 1   
    33   15   34 1   
    34   19   35 1   
    35   19   36 1   
    36   19   37 1   
    37   20   21 1   
    38   20   38 1   
    39   20   39 1   
    40   21   22 1   
    41   21   40 1   
    42   21   41 1   
    43   22   42 1   
    44   22   43 1   
    45   22   44 1   
@<TRIPOS>SUBSTRUCTURE
     1 POY         1 TEMP              0 ****  ****    0 ROOT
