@<TRIPOS>MOLECULE
PP0
   60    57     1     0     0
SMALL
bcc


@<TRIPOS>ATOM
      1 CAA        -0.4860    2.0190    1.9300 c3        1 PP0     -0.130000
      2 CAB         0.8390    1.7520    2.5400 c2        1 PP0     -0.167000
      3 CAD         2.5130    1.5370    5.1290 c3        1 PP0     -0.183000
      4 OAE         4.2650   -2.1140    0.5420 o         1 PP0     -0.370000
      5 OAF         5.2480    1.2910    6.2150 o         1 PP0     -0.277000
      6 CAG        11.8370   -8.8110    5.6420 c2        1 PP0     -0.107000
      7 CAH        12.2250   -7.7950    6.6430 c3        1 PP0     -0.207000
      8 CAI        10.7880   -8.6040    4.8130 c2        1 PP0     -0.191000
      9 CAJ        11.4480   -6.5650    6.6870 c1        1 PP0     -0.108000
     10 CAK        10.0330   -7.3830    4.8790 c2        1 PP0      0.006000
     11 CAL        -0.5580    3.4080    1.3430 c3        1 PP0     -0.210000
     12 CAM         1.4380    0.5520    2.4170 c2        1 PP0     -0.062000
     13 CAN         8.4710   -3.8820    7.5010 c1        1 PP0     -0.242000
     14 CAO         5.9020   -4.2120    5.7200 c1        1 PP0     -0.253500
     15 CAP         7.1040   -0.7100    6.8470 c1        1 PP0     -0.108000
     16 CAQ         4.9680   -4.4250    5.0010 c1        1 PP0     -0.253500
     17 OAS         2.3330   -1.0710    0.3760 oh        1 PP0     -0.327000
     18 CAT         3.4720   -1.3350    1.0880 c2        1 PP0      0.383000
     19 CAU         5.2860    0.2320    5.5770 c2        1 PP0      0.381000
     20 CAV        10.3740   -6.4000    5.7700 c2        1 PP0     -0.208000
     21 CAW         4.7260   -0.8090    3.2400 c2        1 PP0      0.022000
     22 CAX         3.1890    0.6180    4.1950 c2        1 PP0      0.052000
     23 CAY         4.4550    0.0020    4.3900 c2        1 PP0     -0.252000
     24 CAZ         3.6110   -0.6840    2.3780 c2        1 PP0     -0.151000
     25 NBA         9.5420   -4.5050    7.1150 n3        1 PP0     -0.163000
     26 NBB         6.1190   -0.8580    5.9880 n         1 PP0     -0.242000
     27 NBC         2.6750    0.1930    2.9770 na        1 PP0     -0.049000
     28 HAA        -0.3780    4.1810    2.1290 hc        1 PP0      0.078667
     29 HAAA        0.2090    3.5370    0.5410 hc        1 PP0      0.078667
     30 HAAB       -0.7150    1.2610    1.1310 hc        1 PP0      0.091500
     31 HAB         0.1340   -0.3420   -0.3310 ha        1 PP0      0.001500
     32 HABA        0.0030   -1.0060   -0.3530 ha        1 PP0      0.001500
     33 HABB        1.2880    2.5910    3.0950 ha        1 PP0      0.139000
     34 HAC         5.8780   -2.5800    3.5240 hc        1 PP0      0.109000
     35 HACA        6.0370   -1.8220    1.8850 hc        1 PP0      0.109000
     36 HACB        6.8460   -1.0520    3.3170 hc        1 PP0      0.109000
     37 HAD         2.7520    2.5980    4.8560 hc        1 PP0      0.110667
     38 HADA        2.8970    1.3580    6.1670 hc        1 PP0      0.110667
     39 HADB        1.4030    1.4010    5.1190 hc        1 PP0      0.110667
     40 HAH        12.1830   -8.2480    7.6800 hc        1 PP0      0.170000
     41 HAI         9.1790   -7.2690    4.1900 ha        1 PP0      0.141000
     42 HAJ        13.3070   -7.4970    6.4870 hc        1 PP0      0.170000
     43 HAK        10.4830   -9.3550    4.0680 ha        1 PP0      0.142000
     44 HAL         2.3660   -1.5520   -0.4680 ho        1 PP0      0.248000
     45 HALA       -1.5670    3.5830    0.8990 hc        1 PP0      0.078667
     46 HAM         0.9780   -0.2640    1.8190 h4        1 PP0      0.177000
     47 HAMA       -1.2740    1.9090    2.7260 hc        1 PP0      0.091500
     48 HAN         8.1240   -2.5570    4.4790 ha        1 PP0      0.001500
     49 HANA        8.4990   -3.4490    8.5210 ha        1 PP0      0.063000
     50 HAO        10.3760   -4.6490    7.6610 hn        1 PP0      0.206000
     51 HAOA        6.7450   -4.0340    6.3740 ha        1 PP0      0.245000
     52 HAP         8.2180   -2.8430    5.0880 ha        1 PP0      0.001500
     53 HAPA        7.6530   -1.6570    7.0720 ha        1 PP0      0.052000
     54 HAQ         5.8790   -1.7350    5.5520 hn        1 PP0      0.186000
     55 HAQA        4.1410   -4.6120    4.3640 ha        1 PP0      0.245000
     56 CAC         5.9310   -1.5990    2.9780 c3        1 PP0     -0.200000
     57 CAR         9.6260   -5.0990    5.7900 c3        1 PP0      0.002000
     58 HAG        12.4320   -9.7360    5.6000 ha        1 PP0      0.135000
     59 HAR        10.1670   -4.3710    5.1160 h1        1 PP0      0.108000
     60 HARA        8.5800   -5.2330    5.3870 h1        1 PP0      0.108000
@<TRIPOS>BOND
     1    1    2 1   
     2    1   11 1   
     3    1   30 1   
     4    1   47 1   
     5    2   12 1   
     6    2   33 1   
     7    3   22 1   
     8    3   37 1   
     9    3   38 1   
    10    3   39 1   
    11    4   18 1   
    12    5   19 1   
    13    6    7 1   
    14    6    8 1   
    15    6   58 1   
    16    7    9 1   
    17    7   40 1   
    18    7   42 1   
    19    8   10 1   
    20    8   43 1   
    21    9   20 1   
    22   10   20 1   
    23   10   41 1   
    24   11   28 1   
    25   11   29 1   
    26   11   45 1   
    27   12   27 1   
    28   12   46 1   
    29   13   25 1   
    30   13   49 1   
    31   14   16 1   
    32   14   51 1   
    33   15   26 1   
    34   15   53 1   
    35   16   55 1   
    36   17   18 1   
    37   17   44 1   
    38   18   24 1   
    39   19   23 1   
    40   19   26 1   
    41   20   57 1   
    42   21   23 1   
    43   21   24 1   
    44   21   56 1   
    45   22   23 1   
    46   22   27 1   
    47   24   27 1   
    48   25   50 1   
    49   25   57 1   
    50   26   54 1   
    51   31   32 1   
    52   34   56 1   
    53   35   56 1   
    54   36   56 1   
    55   48   52 1   
    56   57   59 1   
    57   57   60 1   
@<TRIPOS>SUBSTRUCTURE
     1 PP0         1 TEMP              0 ****  ****    0 ROOT
