@<TRIPOS>MOLECULE
PP0
   60    56     1     0     0
SMALL
bcc


@<TRIPOS>ATOM
      1 CAA         1.5540    1.2460   -1.4130 c3        1 PP0     -0.320000
      2 CAB         1.0020   -0.8510    5.5790 c1        1 PP0     -0.062000
      3 CAD         3.5660   -1.0630    6.7180 c3        1 PP0     -0.171000
      4 OAE         3.7810    0.8310    0.9050 o         1 PP0     -0.369000
      5 OAF         7.5820   -0.6440    5.1610 o         1 PP0     -0.273000
      6 CAG         9.6690   -7.2990    7.3080 c2        1 PP0     -0.108000
      7 CAH        10.6610   -6.8400    6.5110 c2        1 PP0     -0.191000
      8 CAI         8.2950   -6.7660    7.1900 c3        1 PP0     -0.206000
      9 CAJ        10.3960   -5.8230    5.5300 c2        1 PP0      0.023000
     10 CAK         8.0530   -5.7370    6.1850 c1        1 PP0     -0.135000
     11 CAL         1.6710    1.0000   -2.8260 c1        1 PP0     -0.054000
     12 CAM         1.6290   -0.0740    4.5210 c3        1 PP0     -0.117000
     13 CAN        10.4970   -2.5640    3.8750 c1        1 PP0     -0.216000
     14 CAO         4.8970   -5.0850    6.3090 c1        1 PP0     -0.249000
     15 CAP         7.4520   -2.8610    6.8090 c1        1 PP0     -0.125000
     16 CAQ         3.7490   -4.7740    6.4490 c1        1 PP0     -0.249000
     17 OAS         1.8780    0.9280    2.0120 oh        1 PP0     -0.351000
     18 CAT         3.2120    0.6060    1.9810 c2        1 PP0      0.388000
     19 CAU         6.4900   -1.1850    5.3740 c2        1 PP0      0.383000
     20 CAV         9.1340   -5.3070    5.3770 c2        1 PP0     -0.197000
     21 CAW         5.1360   -0.2500    3.4130 c2        1 PP0      0.056000
     22 CAX         3.9400   -0.7080    5.3340 c2        1 PP0      0.060000
     23 CAY         5.2390   -0.7400    4.7580 c2        1 PP0     -0.266000
     24 CAZ         3.7720    0.0540    3.1960 c2        1 PP0     -0.177000
     25 NBA         9.5080   -2.9840    4.6110 n3        1 PP0     -0.197000
     26 NBB         6.3970   -2.3360    6.2270 n         1 PP0     -0.242000
     27 NBC         3.0550   -0.2390    4.3790 na        1 PP0     -0.084000
     28 HAA         2.6190    1.2870   -1.0260 hc        1 PP0      0.113333
     29 HAAA        0.9930    0.4880   -0.8060 hc        1 PP0      0.113333
     30 HAAB        1.1010    2.2560   -1.2370 hc        1 PP0      0.113333
     31 HAB        -0.2390   -0.1040    1.1010 ha        1 PP0      0.001250
     32 HABA       -0.2930   -0.1750    1.7730 ha        1 PP0      0.001250
     33 HABB       -0.0550   -0.6070    5.7590 ha        1 PP0      0.068000
     34 HAC         5.9810    0.6640    1.6750 hc        1 PP0      0.114667
     35 HACA        6.4150   -1.0780    1.9300 hc        1 PP0      0.114667
     36 HACB        7.1750    0.1940    2.9770 hc        1 PP0      0.114667
     37 HAD         2.7080   -0.4450    7.0910 hc        1 PP0      0.107333
     38 HADA        3.2530   -2.1390    6.7630 hc        1 PP0      0.107333
     39 HADB        4.4340   -0.8930    7.4030 hc        1 PP0      0.107333
     40 HAH        11.2350   -5.4700    4.9050 ha        1 PP0      0.156000
     41 HAI         7.9710   -6.3360    8.1860 hc        1 PP0      0.163000
     42 HAJ        11.6900   -7.2240    6.5890 ha        1 PP0      0.141000
     43 HAK         7.5770   -7.6140    6.9740 hc        1 PP0      0.163000
     44 HAL         1.6210    1.3020    1.1500 ho        1 PP0      0.251000
     45 HALA        1.4640   -0.0270   -3.1670 ha        1 PP0      0.035000
     46 HAM         1.1340   -0.4130    3.5440 h1        1 PP0      0.157500
     47 HAMA        1.4210    1.0400    4.6050 h1        1 PP0      0.157500
     48 HAN         9.4920   -1.2920    2.0630 ha        1 PP0      0.001250
     49 HANA       10.9020   -1.5680    4.1580 ha        1 PP0      0.040000
     50 HAO         9.1040   -2.4940    5.3990 hn        1 PP0      0.220000
     51 HAOA        5.9350   -5.3530    6.1820 ha        1 PP0      0.243000
     52 HAP         7.2480   -3.7630    7.4280 ha        1 PP0      0.060000
     53 HAPA        8.8770   -1.0140    1.9930 ha        1 PP0      0.001250
     54 HAQ         5.4680   -2.7220    6.2900 hn        1 PP0      0.189000
     55 HAQA        2.7280   -4.5130    6.5680 ha        1 PP0      0.243000
     56 CAC         6.2300   -0.1030    2.4520 c3        1 PP0     -0.198000
     57 CAR         8.8680   -4.2590    4.3320 c3        1 PP0      0.004000
     58 HAG         9.8490   -8.0760    8.0660 ha        1 PP0      0.132000
     59 HAR         7.7550   -4.0880    4.2700 h1        1 PP0      0.106500
     60 HARA        9.2320   -4.6350    3.3330 h1        1 PP0      0.106500
@<TRIPOS>BOND
     1    1   11 1   
     2    1   28 1   
     3    1   29 1   
     4    1   30 1   
     5    2   12 1   
     6    2   33 1   
     7    3   22 1   
     8    3   37 1   
     9    3   38 1   
    10    3   39 1   
    11    4   18 1   
    12    5   19 1   
    13    6    7 1   
    14    6    8 1   
    15    6   58 1   
    16    7    9 1   
    17    7   42 1   
    18    8   10 1   
    19    8   41 1   
    20    8   43 1   
    21    9   20 1   
    22    9   40 1   
    23   10   20 1   
    24   11   45 1   
    25   12   27 1   
    26   12   46 1   
    27   12   47 1   
    28   13   25 1   
    29   13   49 1   
    30   14   16 1   
    31   14   51 1   
    32   15   26 1   
    33   15   52 1   
    34   16   55 1   
    35   17   18 1   
    36   17   44 1   
    37   18   24 1   
    38   19   23 1   
    39   19   26 1   
    40   20   57 1   
    41   21   23 1   
    42   21   24 1   
    43   21   56 1   
    44   22   23 1   
    45   22   27 1   
    46   24   27 1   
    47   25   50 1   
    48   25   57 1   
    49   26   54 1   
    50   31   32 1   
    51   34   56 1   
    52   35   56 1   
    53   36   56 1   
    54   48   53 1   
    55   57   59 1   
    56   57   60 1   
@<TRIPOS>SUBSTRUCTURE
     1 PP0         1 TEMP              0 ****  ****    0 ROOT
