@<TRIPOS>MOLECULE
PP0
   60    62     1     0     0
SMALL
bcc


@<TRIPOS>ATOM
      1 CAA         6.6710   -2.9780   -0.1770 c3        1 PP0     -0.101100
      2 CAB         4.3190   -0.6110   -2.8170 c3        1 PP0     -0.112100
      3 CAD         2.4230    2.6140   -2.2940 c3        1 PP0     -0.047800
      4 OAE         3.4310   -1.6990    1.9040 o         1 PP0     -0.549000
      5 OAF         0.3950    3.6910    0.2010 o         1 PP0     -0.610100
      6 CAG        -6.3060   -3.4490   -0.1870 ca        1 PP0     -0.129000
      7 CAH        -6.1970   -2.3820   -1.0790 ca        1 PP0     -0.133500
      8 CAI        -5.8700   -3.3000    1.1300 ca        1 PP0     -0.133500
      9 CAJ        -5.6560   -1.1690   -0.6580 ca        1 PP0     -0.118000
     10 CAK        -5.3260   -2.0880    1.5540 ca        1 PP0     -0.118000
     11 CAL         5.5260   -2.6680    0.7560 c3        1 PP0      0.140400
     12 CAM         4.5070    0.4600   -1.7530 c3        1 PP0      0.029300
     13 CAN        -3.3090    2.2300    0.6850 c3        1 PP0      0.147300
     14 CAO        -2.4540    0.0140    0.2330 c3        1 PP0      0.147300
     15 CAP        -2.1920    2.8470   -0.1830 c3        1 PP0      0.092000
     16 CAQ        -1.3260    0.6160   -0.6340 c3        1 PP0      0.092000
     17 OAS         4.8090   -1.5710    0.1590 os        1 PP0     -0.454900
     18 CAT         3.7110   -1.1210    0.8480 c         1 PP0      0.678700
     19 CAU         0.2380    2.4790   -0.0630 c         1 PP0      0.709700
     20 CAV        -5.2180   -1.0160    0.6620 ca        1 PP0     -0.089300
     21 CAW         1.7760    0.5250    0.7340 cc        1 PP0     -0.013300
     22 CAX         2.3840    1.6560   -1.1720 cd        1 PP0     -0.020600
     23 CAY         1.3910    1.5670   -0.1670 cc        1 PP0     -0.232600
     24 CAZ         2.9900   -0.0150    0.2380 cd        1 PP0     -0.190900
     25 NBA        -3.6340    0.8630    0.3000 n3        1 PP0     -0.727600
     26 NBB        -1.0350    1.9920   -0.3200 n         1 PP0     -0.472800
     27 NBC         3.3550    0.6950   -0.9200 na        1 PP0     -0.019100
     28 HAA         6.2900   -3.2440   -1.1920 hc        1 PP0      0.047033
     29 HAAA        7.3480   -2.0960   -0.2760 hc        1 PP0      0.047033
     30 HAAB        7.2510   -3.8390    0.2340 hc        1 PP0      0.047033
     31 HAB         3.4560   -0.3770   -3.4850 hc        1 PP0      0.049700
     32 HABA        5.2480   -0.6620   -3.4340 hc        1 PP0      0.049700
     33 HABB        4.1500   -1.6080   -2.3410 hc        1 PP0      0.049700
     34 HAC         1.4980    0.6790    2.8330 hc        1 PP0      0.060700
     35 HACA       -0.0130    0.3380    1.8840 hc        1 PP0      0.060700
     36 HACB        1.2250   -0.9760    2.1520 hc        1 PP0      0.060700
     37 HAD         3.3560    3.2320   -2.2590 hc        1 PP0      0.062367
     38 HADA        2.3850    2.0800   -3.2760 hc        1 PP0      0.062367
     39 HADB        1.5430    3.3030   -2.2150 hc        1 PP0      0.062367
     40 HAH        -6.5390   -2.4980   -2.1180 ha        1 PP0      0.131000
     41 HAI        -5.9550   -4.1380    1.8360 ha        1 PP0      0.131000
     42 HAJ        -5.5700   -0.3270   -1.3620 ha        1 PP0      0.138000
     43 HAK        -4.9830   -1.9770    2.5940 ha        1 PP0      0.138000
     44 HAL         4.8260   -3.5370    0.8650 h1        1 PP0      0.054200
     45 HALA        5.8820   -2.3550    1.7710 h1        1 PP0      0.054200
     46 HAM         5.3690    0.1670   -1.0850 h1        1 PP0      0.072200
     47 HAMA        4.7660    1.4380   -2.2560 h1        1 PP0      0.072200
     48 HAN        -3.0060    2.2980    1.7710 h1        1 PP0      0.041450
     49 HANA       -4.2330    2.8580    0.5440 h1        1 PP0      0.041450
     50 HAO        -2.7630   -0.9630   -0.2340 h1        1 PP0      0.041450
     51 HAOA       -2.0410   -0.2090    1.2610 h1        1 PP0      0.041450
     52 HAP        -2.6040    3.0510   -1.2130 h1        1 PP0      0.062200
     53 HAPA       -1.8890    3.8280    0.2810 h1        1 PP0      0.062200
     54 HAQ        -0.4090   -0.0220   -0.4960 h1        1 PP0      0.062200
     55 HAQA       -1.6370    0.5600   -1.7180 h1        1 PP0      0.062200
     56 CAC         1.0810    0.1180    1.9570 c3        1 PP0     -0.051800
     57 CAR        -4.6840    0.3020    1.1430 c3        1 PP0      0.214100
     58 HAG        -6.7340   -4.4050   -0.5200 ha        1 PP0      0.131000
     59 HAR        -5.5400    1.0390    1.1440 h1        1 PP0      0.040200
     60 HARA       -4.3360    0.1900    2.2140 h1        1 PP0      0.040200
@<TRIPOS>BOND
     1    1   11 1   
     2    1   28 1   
     3    1   29 1   
     4    1   30 1   
     5    2   12 1   
     6    2   31 1   
     7    2   32 1   
     8    2   33 1   
     9    3   22 1   
    10    3   37 1   
    11    3   38 1   
    12    3   39 1   
    13    4   18 2   
    14    5   19 2   
    15    6    7 ar  
    16    6    8 ar  
    17    6   58 1   
    18    7    9 ar  
    19    7   40 1   
    20    8   10 ar  
    21    8   41 1   
    22    9   20 ar  
    23    9   42 1   
    24   10   20 ar  
    25   10   43 1   
    26   11   17 1   
    27   11   44 1   
    28   11   45 1   
    29   12   27 1   
    30   12   46 1   
    31   12   47 1   
    32   13   15 1   
    33   13   25 1   
    34   13   48 1   
    35   13   49 1   
    36   14   16 1   
    37   14   25 1   
    38   14   50 1   
    39   14   51 1   
    40   15   26 1   
    41   15   52 1   
    42   15   53 1   
    43   16   26 1   
    44   16   54 1   
    45   16   55 1   
    46   17   18 1   
    47   18   24 1   
    48   19   23 1   
    49   19   26 1   
    50   20   57 1   
    51   21   23 1   
    52   21   24 2   
    53   21   56 1   
    54   22   23 2   
    55   22   27 1   
    56   24   27 1   
    57   25   57 1   
    58   34   56 1   
    59   35   56 1   
    60   36   56 1   
    61   57   59 1   
    62   57   60 1   
@<TRIPOS>SUBSTRUCTURE
     1 PP0         1 TEMP              0 ****  ****    0 ROOT
