@<TRIPOS>MOLECULE
PP1
   41    43     1     0     0
SMALL
bcc


@<TRIPOS>ATOM
      1 N1          0.0250    0.0060    0.0300 na        1 PP1      0.040200
      2 C2          3.6120   -0.0900   -0.6760 ca        1 PP1      0.678900
      3 N3          2.3170   -0.0430   -1.0480 nb        1 PP1     -0.624000
      4 C4          1.4290   -0.0250   -0.0110 ca        1 PP1      0.461800
      5 C5          1.8650   -0.0480    1.3990 ca        1 PP1     -0.431500
      6 C6          3.2500   -0.1090    1.6090 ca        1 PP1      0.554200
      7 N7          4.1400   -0.1270    0.5920 nb        1 PP1     -0.698000
      8 N8         -0.4180    0.0110    1.2940 nc        1 PP1     -0.420100
      9 C9          0.6320   -0.0180    2.1560 cd        1 PP1      0.398500
     10 N10         3.7620   -0.1650    2.9960 n4        1 PP1     -0.833300
     11 C11         0.5270   -0.0210    3.6080 ca        1 PP1     -0.157900
     12 C12         1.0570    1.0450    4.3510 ca        1 PP1     -0.125000
     13 C13         0.9580    1.0430    5.7390 ca        1 PP1     -0.128000
     14 C14         0.3210   -0.0130    6.4060 ca        1 PP1     -0.039300
     15 C15        -0.2180   -1.0670    5.6570 ca        1 PP1     -0.128000
     16 C16        -0.1240   -1.0710    4.2670 ca        1 PP1     -0.125000
     17 C24         0.1920    0.0010    7.8810 c3        1 PP1     -0.071800
     18 C28        -0.8760    0.0520   -1.1690 c3        1 PP1      0.091700
     19 C29        -2.3540    0.0830   -0.7500 c3        1 PP1     -0.112767
     20 C33        -0.5860    1.3110   -1.9950 c3        1 PP1     -0.112767
     21 C37        -0.6520   -1.1910   -2.0400 c3        1 PP1     -0.112767
     22 HC2         4.3670   -0.1040   -1.4970 h5        1 PP1      0.097100
     23 H101        4.4960    0.5400    3.1330 hn        1 PP1      0.477133
     24 H102        2.9760    0.0130    3.6450 hn        1 PP1      0.477133
     25 HC12        1.4920    1.9150    3.8350 ha        1 PP1      0.146500
     26 HC13        1.3570    1.8910    6.3190 ha        1 PP1      0.155000
     27 HC15       -0.7360   -1.8930    6.1710 ha        1 PP1      0.155000
     28 HC16       -0.5730   -1.8920    3.6870 ha        1 PP1      0.146500
     29 H241        1.0160    0.5900    8.3540 hc        1 PP1      0.063033
     30 H242        0.2130   -1.0380    8.2960 hc        1 PP1      0.063033
     31 H243       -0.7830    0.4710    8.1680 hc        1 PP1      0.063033
     32 H291       -2.5830    0.9890   -0.1390 hc        1 PP1      0.063700
     33 H292       -2.9750    0.1150   -1.6780 hc        1 PP1      0.063700
     34 H293       -2.6300   -0.8290   -0.1700 hc        1 PP1      0.063700
     35 H331        0.4500    1.3050   -2.4080 hc        1 PP1      0.063700
     36 H332       -1.3030    1.3350   -2.8530 hc        1 PP1      0.063700
     37 H333       -0.7350    2.2350   -1.3860 hc        1 PP1      0.063700
     38 H371       -0.8450   -2.1270   -1.4630 hc        1 PP1      0.063700
     39 H372       -1.3710   -1.1490   -2.8950 hc        1 PP1      0.063700
     40 H373        0.3820   -1.2220   -2.4570 hc        1 PP1      0.063700
     41 H103        4.1570   -1.0960    3.1760 hn        1 PP1      0.477133
@<TRIPOS>BOND
     1    1    4 1   
     2    1    8 1   
     3    1   18 1   
     4    2    3 ar  
     5    2    7 ar  
     6    2   22 1   
     7    3    4 ar  
     8    4    5 ar  
     9    5    6 ar  
    10    5    9 1   
    11    6    7 ar  
    12    6   10 1   
    13    8    9 2   
    14    9   11 1   
    15   10   23 1   
    16   10   24 1   
    17   10   41 1   
    18   11   12 ar  
    19   11   16 ar  
    20   12   13 ar  
    21   12   25 1   
    22   13   14 ar  
    23   13   26 1   
    24   14   15 ar  
    25   14   17 1   
    26   15   16 ar  
    27   15   27 1   
    28   16   28 1   
    29   17   29 1   
    30   17   30 1   
    31   17   31 1   
    32   18   19 1   
    33   18   20 1   
    34   18   21 1   
    35   19   32 1   
    36   19   33 1   
    37   19   34 1   
    38   20   35 1   
    39   20   36 1   
    40   20   37 1   
    41   21   38 1   
    42   21   39 1   
    43   21   40 1   
@<TRIPOS>SUBSTRUCTURE
     1 PP1         1 TEMP              0 ****  ****    0 ROOT
