@<TRIPOS>MOLECULE
PP1
   40    42     1     0     0
SMALL
bcc


@<TRIPOS>ATOM
      1 N1          0.7700   -0.0370   -1.8540 na        1 PP1      0.004200
      2 C2         -2.8100    0.2670   -2.4730 ca        1 PP1      0.691900
      3 N3         -1.5310    0.1470   -2.8890 nb        1 PP1     -0.743000
      4 C4         -0.6360    0.0670   -1.8540 ca        1 PP1      0.474800
      5 C5         -1.0340    0.0950   -0.4540 ca        1 PP1     -0.495500
      6 C6         -2.4280    0.2310   -0.1700 ca        1 PP1      0.757200
      7 N7         -3.3200    0.3240   -1.2120 nb        1 PP1     -0.801000
      8 N8          1.2480   -0.0820   -0.5960 nc        1 PP1     -0.501100
      9 C9          0.2110   -0.0070    0.2790 cd        1 PP1      0.416500
     10 N10        -2.8770    0.2280    1.1300 nh        1 PP1     -0.956500
     11 C11         0.3740   -0.0260    1.7260 ca        1 PP1     -0.109900
     12 C12        -0.2720   -1.0000    2.4980 ca        1 PP1     -0.109000
     13 C13        -0.1140   -1.0130    3.8810 ca        1 PP1     -0.137000
     14 C14         0.6930   -0.0610    4.5150 ca        1 PP1     -0.068300
     15 C15         1.3450    0.9050    3.7390 ca        1 PP1     -0.137000
     16 C16         1.1930    0.9220    2.3550 ca        1 PP1     -0.109000
     17 C24         0.8730   -0.0880    5.9840 c3        1 PP1     -0.056800
     18 C28         1.6260   -0.1350   -3.0610 c3        1 PP1      0.099700
     19 C29         3.1150   -0.2500   -2.6920 c3        1 PP1     -0.105433
     20 C33         1.2550   -1.3750   -3.8880 c3        1 PP1     -0.105433
     21 C37         1.4600    1.1130   -3.9420 c3        1 PP1     -0.105433
     22 HC2        -3.5700    0.3360   -3.2820 h5        1 PP1      0.050100
     23 H101       -3.8220    0.4580    1.3220 hn        1 PP1      0.439800
     24 H102       -2.2040    0.3480    1.8490 hn        1 PP1      0.439800
     25 HC12       -0.8950   -1.7640    2.0070 ha        1 PP1      0.145000
     26 HC13       -0.6230   -1.7830    4.4810 ha        1 PP1      0.135000
     27 HC15        1.9860    1.6550    4.2270 ha        1 PP1      0.135000
     28 HC16        1.7180    1.6780    1.7510 ha        1 PP1      0.145000
     29 H241        1.7600   -0.7180    6.2470 hc        1 PP1      0.046367
     30 H242        1.0440    0.9410    6.3860 hc        1 PP1      0.046367
     31 H243       -0.0250   -0.5200    6.4910 hc        1 PP1      0.046367
     32 H291        3.7060   -0.3150   -3.6380 hc        1 PP1      0.052033
     33 H292        3.4570    0.6440   -2.1190 hc        1 PP1      0.052033
     34 H293        3.3100   -1.1670   -2.0870 hc        1 PP1      0.052033
     35 H331        1.3700   -2.3050   -3.2820 hc        1 PP1      0.052033
     36 H332        0.2070   -1.3140   -4.2660 hc        1 PP1      0.052033
     37 H333        1.9430   -1.4330   -4.7660 hc        1 PP1      0.052033
     38 H371        1.7220    2.0370   -3.3730 hc        1 PP1      0.052033
     39 H372        2.1510    1.0230   -4.8140 hc        1 PP1      0.052033
     40 H373        0.4170    1.2050   -4.3260 hc        1 PP1      0.052033
@<TRIPOS>BOND
     1    1    4 1   
     2    1    8 1   
     3    1   18 1   
     4    2    3 ar  
     5    2    7 ar  
     6    2   22 1   
     7    3    4 ar  
     8    4    5 ar  
     9    5    6 ar  
    10    5    9 1   
    11    6    7 ar  
    12    6   10 1   
    13    8    9 2   
    14    9   11 1   
    15   10   23 1   
    16   10   24 1   
    17   11   12 ar  
    18   11   16 ar  
    19   12   13 ar  
    20   12   25 1   
    21   13   14 ar  
    22   13   26 1   
    23   14   15 ar  
    24   14   17 1   
    25   15   16 ar  
    26   15   27 1   
    27   16   28 1   
    28   17   29 1   
    29   17   30 1   
    30   17   31 1   
    31   18   19 1   
    32   18   20 1   
    33   18   21 1   
    34   19   32 1   
    35   19   33 1   
    36   19   34 1   
    37   20   35 1   
    38   20   36 1   
    39   20   37 1   
    40   21   38 1   
    41   21   39 1   
    42   21   40 1   
@<TRIPOS>SUBSTRUCTURE
     1 PP1         1 TEMP              0 ****  ****    0 ROOT
