@<TRIPOS>MOLECULE
PP1
   40    42     1     0     0
SMALL
bcc


@<TRIPOS>ATOM
      1 N1          0.0310   -0.0110    0.0430 na        1 PP1      0.004200
      2 C2          3.6040   -0.0870   -0.6760 ca        1 PP1      0.691900
      3 N3          2.3090   -0.0460   -1.0560 nb        1 PP1     -0.743000
      4 C4          1.4400   -0.0260    0.0030 ca        1 PP1      0.474800
      5 C5          1.8780   -0.0330    1.3920 ca        1 PP1     -0.495500
      6 C6          3.2850   -0.0820    1.6360 ca        1 PP1      0.757200
      7 N7          4.1520   -0.1150    0.5700 nb        1 PP1     -0.801000
      8 N8         -0.4140    0.0000    1.3140 nc        1 PP1     -0.501100
      9 C9          0.6500   -0.0110    2.1590 cd        1 PP1      0.416500
     10 N10         3.7700   -0.0550    2.9240 nv        1 PP1     -0.957500
     11 C11         0.5260   -0.0080    3.6110 ca        1 PP1     -0.109900
     12 C12         1.1320    1.0020    4.3700 ca        1 PP1     -0.109000
     13 C13         1.0110    1.0020    5.7570 ca        1 PP1     -0.136000
     14 C14         0.2830   -0.0010    6.4070 ca        1 PP1     -0.069300
     15 C15        -0.3310   -1.0020    5.6450 ca        1 PP1     -0.136000
     16 C16        -0.2150   -1.0060    4.2570 ca        1 PP1     -0.109000
     17 C24         0.1680   -0.0080    7.8840 c3        1 PP1     -0.056800
     18 C28        -0.8630    0.0370   -1.1390 c3        1 PP1      0.099700
     19 C29        -2.3460    0.0570   -0.7290 c3        1 PP1     -0.105433
     20 C33        -0.5940    1.3010   -1.9700 c3        1 PP1     -0.105433
     21 C37        -0.6440   -1.1950   -2.0300 c3        1 PP1     -0.105433
     22 HC2         4.3430   -0.1060   -1.5060 h5        1 PP1      0.050100
     23 H101        4.7320   -0.2260    3.0880 hn        1 PP1      0.439800
     24 H102        3.1260   -0.2180    3.6600 hn        1 PP1      0.439800
     25 HC12        1.6920    1.8050    3.8650 ha        1 PP1      0.145000
     26 HC13        1.4850    1.8020    6.3460 ha        1 PP1      0.135000
     27 HC15       -0.9140   -1.7890    6.1460 ha        1 PP1      0.135000
     28 HC16       -0.7100   -1.7900    3.6640 ha        1 PP1      0.145000
     29 H241        0.2550    1.0270    8.2980 hc        1 PP1      0.046700
     30 H242       -0.8140   -0.4360    8.2060 hc        1 PP1      0.046700
     31 H243        0.9840   -0.6330    8.3270 hc        1 PP1      0.046700
     32 H291       -2.9660    0.0880   -1.6570 hc        1 PP1      0.052033
     33 H292       -2.5800    0.9580   -0.1140 hc        1 PP1      0.052033
     34 H293       -2.6150   -0.8580   -0.1500 hc        1 PP1      0.052033
     35 H331       -0.7500    2.2200   -1.3570 hc        1 PP1      0.052033
     36 H332        0.4450    1.3070   -2.3770 hc        1 PP1      0.052033
     37 H333       -1.3080    1.3180   -2.8280 hc        1 PP1      0.052033
     38 H371        0.3910   -1.2200   -2.4440 hc        1 PP1      0.052033
     39 H372       -0.8310   -2.1360   -1.4600 hc        1 PP1      0.052033
     40 H373       -1.3630   -1.1460   -2.8830 hc        1 PP1      0.052033
@<TRIPOS>BOND
     1    1    4 1   
     2    1    8 1   
     3    1   18 1   
     4    2    3 ar  
     5    2    7 ar  
     6    2   22 1   
     7    3    4 ar  
     8    4    5 ar  
     9    5    6 ar  
    10    5    9 1   
    11    6    7 ar  
    12    6   10 1   
    13    8    9 2   
    14    9   11 1   
    15   10   23 1   
    16   10   24 1   
    17   11   12 ar  
    18   11   16 ar  
    19   12   13 ar  
    20   12   25 1   
    21   13   14 ar  
    22   13   26 1   
    23   14   15 ar  
    24   14   17 1   
    25   15   16 ar  
    26   15   27 1   
    27   16   28 1   
    28   17   29 1   
    29   17   30 1   
    30   17   31 1   
    31   18   19 1   
    32   18   20 1   
    33   18   21 1   
    34   19   32 1   
    35   19   33 1   
    36   19   34 1   
    37   20   35 1   
    38   20   36 1   
    39   20   37 1   
    40   21   38 1   
    41   21   39 1   
    42   21   40 1   
@<TRIPOS>SUBSTRUCTURE
     1 PP1         1 TEMP              0 ****  ****    0 ROOT
