@<TRIPOS>MOLECULE
PP1
   40    42     1     0     0
SMALL
bcc


@<TRIPOS>ATOM
      1 N1          0.0320   -0.0130    0.0430 na        1 PP1      0.004200
      2 C2          3.6050   -0.0700   -0.6740 ca        1 PP1      0.691900
      3 N3          2.3110   -0.0360   -1.0550 nb        1 PP1     -0.743000
      4 C4          1.4400   -0.0200    0.0040 ca        1 PP1      0.474800
      5 C5          1.8780   -0.0260    1.3930 ca        1 PP1     -0.495500
      6 C6          3.2850   -0.0670    1.6380 ca        1 PP1      0.757200
      7 N7          4.1530   -0.0960    0.5720 nb        1 PP1     -0.801000
      8 N8         -0.4140   -0.0040    1.3130 nc        1 PP1     -0.501100
      9 C9          0.6490   -0.0110    2.1590 cd        1 PP1      0.416500
     10 N10         3.7690   -0.0380    2.9260 nh        1 PP1     -0.957500
     11 C11         0.5250   -0.0080    3.6110 ca        1 PP1     -0.109900
     12 C12         1.1250    1.0050    4.3700 ca        1 PP1     -0.109000
     13 C13         1.0040    1.0030    5.7580 ca        1 PP1     -0.136500
     14 C14         0.2800   -0.0030    6.4070 ca        1 PP1     -0.069300
     15 C15        -0.3280   -1.0070    5.6440 ca        1 PP1     -0.136500
     16 C16        -0.2120   -1.0100    4.2560 ca        1 PP1     -0.109000
     17 C24         0.1640   -0.0110    7.8840 c3        1 PP1     -0.056800
     18 C28        -0.8620    0.0310   -1.1390 c3        1 PP1      0.099700
     19 C29        -2.3450    0.0430   -0.7300 c3        1 PP1     -0.105433
     20 C33        -0.5990    1.2970   -1.9700 c3        1 PP1     -0.105433
     21 C37        -0.6360   -1.2000   -2.0310 c3        1 PP1     -0.105433
     22 HC2         4.3460   -0.0850   -1.5040 h5        1 PP1      0.050100
     23 H101        3.1250   -0.2060    3.6620 hn        1 PP1      0.439800
     24 H102        4.7320   -0.2040    3.0910 hn        1 PP1      0.439800
     25 HC12        1.6810    1.8110    3.8670 ha        1 PP1      0.145000
     26 HC13        1.4740    1.8050    6.3470 ha        1 PP1      0.135000
     27 HC15       -0.9080   -1.7970    6.1450 ha        1 PP1      0.135000
     28 HC16       -0.7030   -1.7960    3.6630 ha        1 PP1      0.145000
     29 H241        0.9760   -0.6420    8.3260 hc        1 PP1      0.046700
     30 H242        0.2570    1.0220    8.3000 hc        1 PP1      0.046700
     31 H243       -0.8200   -0.4340    8.2040 hc        1 PP1      0.046700
     32 H291       -2.6100   -0.8740   -0.1530 hc        1 PP1      0.052033
     33 H292       -2.9650    0.0710   -1.6590 hc        1 PP1      0.052033
     34 H293       -2.5850    0.9420   -0.1150 hc        1 PP1      0.052033
     35 H331       -1.3130    1.3110   -2.8280 hc        1 PP1      0.052033
     36 H332       -0.7600    2.2150   -1.3560 hc        1 PP1      0.052033
     37 H333        0.4400    1.3080   -2.3760 hc        1 PP1      0.052033
     38 H371       -0.8190   -2.1410   -1.4620 hc        1 PP1      0.052033
     39 H372       -1.3550   -1.1530   -2.8850 hc        1 PP1      0.052033
     40 H373        0.4000   -1.2190   -2.4450 hc        1 PP1      0.052033
@<TRIPOS>BOND
     1    1    4 1   
     2    1    8 1   
     3    1   18 1   
     4    2    3 ar  
     5    2    7 ar  
     6    2   22 1   
     7    3    4 ar  
     8    4    5 ar  
     9    5    6 ar  
    10    5    9 1   
    11    6    7 ar  
    12    6   10 1   
    13    8    9 2   
    14    9   11 1   
    15   10   23 1   
    16   10   24 1   
    17   11   12 ar  
    18   11   16 ar  
    19   12   13 ar  
    20   12   25 1   
    21   13   14 ar  
    22   13   26 1   
    23   14   15 ar  
    24   14   17 1   
    25   15   16 ar  
    26   15   27 1   
    27   16   28 1   
    28   17   29 1   
    29   17   30 1   
    30   17   31 1   
    31   18   19 1   
    32   18   20 1   
    33   18   21 1   
    34   19   32 1   
    35   19   33 1   
    36   19   34 1   
    37   20   35 1   
    38   20   36 1   
    39   20   37 1   
    40   21   38 1   
    41   21   39 1   
    42   21   40 1   
@<TRIPOS>SUBSTRUCTURE
     1 PP1         1 TEMP              0 ****  ****    0 ROOT
