@<TRIPOS>MOLECULE
PP2
   38    40     1     0     0
SMALL
bcc


@<TRIPOS>ATOM
      1 C1          0.0540    0.3280    0.0420 ca        1 PP2      0.547800
      2 N2          1.3950    0.3920   -0.0790 nb        1 PP2     -0.730000
      3 C3          2.0570    0.3140    1.1200 ca        1 PP2      0.762900
      4 N4          1.5660    0.1860    2.3660 nb        1 PP2     -0.766000
      5 C5          0.1890    0.1150    2.5160 ca        1 PP2      0.807200
      6 C6         -0.6340    0.1680    1.3360 ca        1 PP2     -0.548500
      7 C8         -2.0250    0.1450    1.0410 cc        1 PP2      0.454500
      8 N9         -2.1550    0.2380   -0.3270 na        1 PP2     -0.237400
      9 N10        -0.9530    0.4980   -0.9580 na        1 PP2     -0.132200
     10 C11        -3.1680    0.0290    1.9320 ca        1 PP2     -0.228900
     11 C12        -4.1680    1.0140    1.9250 ca        1 PP2     -0.085000
     12 C13        -5.2610    0.9010    2.7790 ca        1 PP2     -0.121500
     13 C14        -5.3700   -0.2060    3.6310 ca        1 PP2      0.059400
     14 C15        -4.3780   -1.1990    3.6290 ca        1 PP2     -0.121500
     15 C16        -3.2800   -1.0800    2.7840 ca        1 PP2     -0.085000
     16 C22        -0.7520    0.0470   -2.3840 c3        1 PP2      0.056700
     17 C23        -2.0550    0.1970   -3.1850 c3        1 PP2     -0.119433
     18 C24        -0.3000   -1.4130   -2.4600 c3        1 PP2     -0.119433
     19 C25         0.3100    0.9460   -3.0330 c3        1 PP2     -0.119433
     20 N25        -0.3580    0.0000    3.7500 nh        1 PP2     -0.911500
     21 CL         -6.6990   -0.3490    4.6600 cl        1 PP2     -0.017400
     22 H11         3.1710    0.3640    1.0440 h5        1 PP2      0.091100
     23 H1         -3.0000    0.4390   -0.8300 hn        1 PP2      0.356700
     24 H12        -4.0850    1.8890    1.2620 ha        1 PP2      0.153500
     25 H13        -6.0410    1.6820    2.7800 ha        1 PP2      0.176500
     26 H15        -4.4710   -2.0770    4.2910 ha        1 PP2      0.176500
     27 H16        -2.5150   -1.8730    2.7690 ha        1 PP2      0.153500
     28 H31        -2.4750    1.2270   -3.0970 hc        1 PP2      0.067478
     29 H32        -1.8210    0.0110   -4.2630 hc        1 PP2      0.067478
     30 H33        -2.8200   -0.5540   -2.8740 hc        1 PP2      0.067478
     31 H41         0.6750   -1.5630   -1.9390 hc        1 PP2      0.067478
     32 H42        -0.1650   -1.6850   -3.5370 hc        1 PP2      0.067478
     33 H43        -1.0630   -2.0980   -2.0180 hc        1 PP2      0.067478
     34 H51         0.0510    2.0260   -2.9220 hc        1 PP2      0.067478
     35 H52         0.3460    0.6990   -4.1230 hc        1 PP2      0.067478
     36 H53         1.3240    0.7650   -2.6040 hc        1 PP2      0.067478
     37 H2         -1.3460   -0.0060    3.8530 hn        1 PP2      0.469300
     38 H3          0.2160   -0.0030    4.5650 hn        1 PP2      0.469300
@<TRIPOS>BOND
     1    1    2 ar  
     2    1    6 ar  
     3    1    9 1   
     4    2    3 ar  
     5    3    4 ar  
     6    3   22 1   
     7    4    5 ar  
     8    5    6 ar  
     9    5   20 1   
    10    6    7 1   
    11    7    8 2   
    12    7   10 1   
    13    8    9 1   
    14    8   23 1   
    15    9   16 1   
    16   10   11 ar  
    17   10   15 ar  
    18   11   12 ar  
    19   11   24 1   
    20   12   13 ar  
    21   12   25 1   
    22   13   14 ar  
    23   13   21 1   
    24   14   15 ar  
    25   14   26 1   
    26   15   27 1   
    27   16   17 1   
    28   16   18 1   
    29   16   19 1   
    30   17   28 1   
    31   17   29 1   
    32   17   30 1   
    33   18   31 1   
    34   18   32 1   
    35   18   33 1   
    36   19   34 1   
    37   19   35 1   
    38   19   36 1   
    39   20   37 1   
    40   20   38 1   
@<TRIPOS>SUBSTRUCTURE
     1 PP2         1 TEMP              0 ****  ****    0 ROOT
