@<TRIPOS>MOLECULE
PP2
   38    40     1     0     0
SMALL
bcc


@<TRIPOS>ATOM
      1 C1          2.3180   -0.5710    0.3640 ca        1 PP2      0.547800
      2 N2          3.3690   -1.4060    0.4890 nb        1 PP2     -0.730000
      3 C3          3.0180   -2.7320    0.4960 ca        1 PP2      0.762900
      4 N4          1.8030   -3.2990    0.3950 nb        1 PP2     -0.766000
      5 C5          0.7050   -2.4620    0.2620 ca        1 PP2      0.807200
      6 C6          0.9280   -1.0400    0.2230 ca        1 PP2     -0.548500
      7 C8          0.1270    0.1320    0.1190 cc        1 PP2      0.454500
      8 N9          0.9800    1.2130    0.1480 na        1 PP2     -0.237400
      9 N10         2.2820    0.8550    0.4400 na        1 PP2     -0.132200
     10 C11        -1.3130    0.2710   -0.0170 ca        1 PP2     -0.228900
     11 C12        -2.0370    1.0290    0.9150 ca        1 PP2     -0.085000
     12 C13        -3.4160    1.1620    0.7840 ca        1 PP2     -0.121500
     13 C14        -4.0770    0.5510   -0.2910 ca        1 PP2      0.059400
     14 C15        -3.3530   -0.1970   -1.2310 ca        1 PP2     -0.121500
     15 C16        -1.9760   -0.3380   -1.0930 ca        1 PP2     -0.085000
     16 C22         3.4170    1.7150   -0.0590 c3        1 PP2      0.056700
     17 C23         3.0300    3.2000   -0.0090 c3        1 PP2     -0.119433
     18 C24         3.8060    1.3630   -1.4970 c3        1 PP2     -0.119433
     19 C25         4.6260    1.5080    0.8640 c3        1 PP2     -0.119433
     20 N25        -0.5430   -2.9810    0.1720 nh        1 PP2     -0.911500
     21 CL         -5.7470    0.7170   -0.4560 cl        1 PP2     -0.017400
     22 H11         3.8740   -3.4430    0.5980 h5        1 PP2      0.091100
     23 H1          0.7160    2.1720    0.2840 hn        1 PP2      0.356700
     24 H12        -1.5250    1.5080    1.7660 ha        1 PP2      0.153500
     25 H13        -3.9850    1.7500    1.5240 ha        1 PP2      0.176500
     26 H15        -3.8710   -0.6660   -2.0840 ha        1 PP2      0.176500
     27 H16        -1.4080   -0.9070   -1.8470 ha        1 PP2      0.153500
     28 H31         2.2680    3.4560   -0.7830 hc        1 PP2      0.067478
     29 H32         2.6590    3.4940    1.0020 hc        1 PP2      0.067478
     30 H33         3.9460    3.8040   -0.2280 hc        1 PP2      0.067478
     31 H41         4.6510    2.0270   -1.8070 hc        1 PP2      0.067478
     32 H42         4.1510    0.3040   -1.5760 hc        1 PP2      0.067478
     33 H43         2.9540    1.5260   -2.2000 hc        1 PP2      0.067478
     34 H51         4.3550    1.6770    1.9330 hc        1 PP2      0.067478
     35 H52         5.0630    0.4870    0.7520 hc        1 PP2      0.067478
     36 H53         5.4090    2.2520    0.5730 hc        1 PP2      0.067478
     37 H2         -1.3270   -2.3730    0.1200 hn        1 PP2      0.469300
     38 H3         -0.6930   -3.9640    0.2320 hn        1 PP2      0.469300
@<TRIPOS>BOND
     1    1    2 ar  
     2    1    6 ar  
     3    1    9 1   
     4    2    3 ar  
     5    3    4 ar  
     6    3   22 1   
     7    4    5 ar  
     8    5    6 ar  
     9    5   20 1   
    10    6    7 1   
    11    7    8 2   
    12    7   10 1   
    13    8    9 1   
    14    8   23 1   
    15    9   16 1   
    16   10   11 ar  
    17   10   15 ar  
    18   11   12 ar  
    19   11   24 1   
    20   12   13 ar  
    21   12   25 1   
    22   13   14 ar  
    23   13   21 1   
    24   14   15 ar  
    25   14   26 1   
    26   15   27 1   
    27   16   17 1   
    28   16   18 1   
    29   16   19 1   
    30   17   28 1   
    31   17   29 1   
    32   17   30 1   
    33   18   31 1   
    34   18   32 1   
    35   18   33 1   
    36   19   34 1   
    37   19   35 1   
    38   19   36 1   
    39   20   37 1   
    40   20   38 1   
@<TRIPOS>SUBSTRUCTURE
     1 PP2         1 TEMP              0 ****  ****    0 ROOT
