@<TRIPOS>MOLECULE
PP2
   39    41     1     0     0
SMALL
bcc


@<TRIPOS>ATOM
      1 C1          0.0470   -0.0020    0.0570 ca        1 PP2      0.532800
      2 N2          1.4210   -0.0200   -0.0620 nb        1 PP2     -0.612000
      3 C3          2.0800   -0.0050    1.1010 ca        1 PP2      0.743900
      4 N4          1.5500    0.0350    2.3890 nb        1 PP2     -0.656000
      5 C5          0.2210    0.0500    2.5020 ca        1 PP2      0.619200
      6 C6         -0.6340    0.0190    1.3640 ca        1 PP2     -0.490500
      7 C8         -2.0360    0.0310    1.0670 cc        1 PP2      0.425500
      8 N9         -2.1410    0.0200   -0.3070 na        1 PP2     -0.166400
      9 N10        -0.9370    0.0080   -0.9310 na        1 PP2     -0.118200
     10 C11        -3.1710    0.0420    1.9660 ca        1 PP2     -0.274900
     11 C12        -4.1180    1.0760    1.9040 ca        1 PP2     -0.094000
     12 C13        -5.2190    1.0650    2.7560 ca        1 PP2     -0.115500
     13 C14        -5.3970    0.0080    3.6620 ca        1 PP2      0.075400
     14 C15        -4.4560   -1.0380    3.7110 ca        1 PP2     -0.115500
     15 C16        -3.3520   -1.0220    2.8700 ca        1 PP2     -0.094000
     16 C22        -0.7420   -0.0120   -2.4480 c3        1 PP2      0.095700
     17 C23        -2.0940    0.0050   -3.1640 c3        1 PP2     -0.136433
     18 C24         0.0130   -1.2870   -2.8290 c3        1 PP2     -0.136433
     19 C25         0.0600    1.2250   -2.8560 c3        1 PP2     -0.136433
     20 N25        -0.3720    0.1150    3.8570 n4        1 PP2     -0.842300
     21 CL         -6.7310   -0.0170    4.6780 cl        1 PP2      0.037600
     22 H11         3.2020   -0.0220    1.0590 h5        1 PP2      0.136100
     23 H1         -2.9900    0.0380   -0.8570 hn        1 PP2      0.391700
     24 H12        -3.9940    1.9100    1.1940 ha        1 PP2      0.154500
     25 H13        -5.9590    1.8850    2.7080 ha        1 PP2      0.193500
     26 H15        -4.6120   -1.8850    4.4040 ha        1 PP2      0.193500
     27 H16        -2.6590   -1.8790    2.8700 ha        1 PP2      0.154500
     28 H31        -2.7050   -0.9000   -2.9310 hc        1 PP2      0.084033
     29 H32        -1.8900   -0.0080   -4.2680 hc        1 PP2      0.084033
     30 H33        -2.6730    0.9350   -2.9470 hc        1 PP2      0.084033
     31 H41        -0.5460   -2.2040   -2.5250 hc        1 PP2      0.084033
     32 H42         0.1180   -1.2950   -3.9460 hc        1 PP2      0.084033
     33 H43         1.0390   -1.3120   -2.3910 hc        1 PP2      0.084033
     34 H51         1.0870    1.2210   -2.4200 hc        1 PP2      0.084033
     35 H52         0.1630    1.2070   -3.9730 hc        1 PP2      0.084033
     36 H53        -0.4630    2.1690   -2.5700 hc        1 PP2      0.084033
     37 H2          0.0500   -0.6040    4.4670 hn        1 PP2      0.493800
     38 H3         -1.3910   -0.0360    3.7920 hn        1 PP2      0.493800
     39 H253       -0.1840    1.0420    4.2710 hn        1 PP2      0.493800
@<TRIPOS>BOND
     1    1    2 ar  
     2    1    6 ar  
     3    1    9 1   
     4    2    3 ar  
     5    3    4 ar  
     6    3   22 1   
     7    4    5 ar  
     8    5    6 ar  
     9    5   20 1   
    10    6    7 1   
    11    7    8 2   
    12    7   10 1   
    13    8    9 1   
    14    8   23 1   
    15    9   16 1   
    16   10   11 ar  
    17   10   15 ar  
    18   11   12 ar  
    19   11   24 1   
    20   12   13 ar  
    21   12   25 1   
    22   13   14 ar  
    23   13   21 1   
    24   14   15 ar  
    25   14   26 1   
    26   15   27 1   
    27   16   17 1   
    28   16   18 1   
    29   16   19 1   
    30   17   28 1   
    31   17   29 1   
    32   17   30 1   
    33   18   31 1   
    34   18   32 1   
    35   18   33 1   
    36   19   34 1   
    37   19   35 1   
    38   19   36 1   
    39   20   37 1   
    40   20   38 1   
    41   20   39 1   
@<TRIPOS>SUBSTRUCTURE
     1 PP2         1 TEMP              0 ****  ****    0 ROOT
