@<TRIPOS>MOLECULE
PP2
   38    40     1     0     0
SMALL
bcc


@<TRIPOS>ATOM
      1 C1          0.0420   -0.3360    0.0360 ca        1 PP2      0.547800
      2 N2          1.3820   -0.4240   -0.0890 nb        1 PP2     -0.731000
      3 C3          2.0500   -0.3240    1.1040 ca        1 PP2      0.762900
      4 N4          1.5690   -0.1290    2.3460 nb        1 PP2     -0.767000
      5 C5          0.1950   -0.0240    2.4990 ca        1 PP2      0.807200
      6 C6         -0.6380   -0.1460    1.3300 ca        1 PP2     -0.546500
      7 C8         -2.0300   -0.1090    1.0420 cc        1 PP2      0.455500
      8 N9         -2.1660   -0.2040   -0.3270 na        1 PP2     -0.241400
      9 N10        -0.9710   -0.4910   -0.9590 na        1 PP2     -0.130200
     10 C11        -3.1650    0.0150    1.9400 ca        1 PP2     -0.230900
     11 C12        -4.1120    1.0320    1.7460 ca        1 PP2     -0.084000
     12 C13        -5.1970    1.1470    2.6090 ca        1 PP2     -0.122500
     13 C14        -5.3520    0.2340    3.6620 ca        1 PP2      0.059400
     14 C15        -4.4130   -0.7920    3.8500 ca        1 PP2     -0.122500
     15 C16        -3.3230   -0.8990    2.9940 ca        1 PP2     -0.084000
     16 C22        -0.7650   -0.0570   -2.3890 c3        1 PP2      0.055700
     17 C23        -2.0720   -0.1870   -3.1850 c3        1 PP2     -0.119433
     18 C24         0.2760   -0.9850   -3.0330 c3        1 PP2     -0.119433
     19 C25        -0.2810    1.3920   -2.4810 c3        1 PP2     -0.119433
     20 N25        -0.3420    0.1770    3.7260 nv        1 PP2     -0.911500
     21 Cl         -6.6710    0.3660    4.7040 cl        1 PP2     -0.017400
     22 H11         3.1620   -0.4040    1.0270 h5        1 PP2      0.091100
     23 H1         -3.0160   -0.4010   -0.8230 hn        1 PP2      0.357700
     24 H12        -3.9940    1.7550    0.9230 ha        1 PP2      0.155000
     25 H13        -5.9350    1.9530    2.4610 ha        1 PP2      0.176500
     26 H15        -4.5420   -1.5180    4.6710 ha        1 PP2      0.176500
     27 H16        -2.6000   -1.7200    3.1320 ha        1 PP2      0.155000
     28 H31        -2.8210    0.5820   -2.8780 hc        1 PP2      0.067256
     29 H32        -2.5140   -1.2070   -3.0870 hc        1 PP2      0.067256
     30 H33        -1.8380   -0.0150   -4.2660 hc        1 PP2      0.067256
     31 H41         1.2950   -0.8230   -2.6090 hc        1 PP2      0.067256
     32 H42        -0.0070   -2.0580   -2.9110 hc        1 PP2      0.067256
     33 H43         0.3140   -0.7490   -4.1250 hc        1 PP2      0.067256
     34 H51        -0.1440    1.6510   -3.5600 hc        1 PP2      0.067256
     35 H52        -1.0270    2.0970   -2.0420 hc        1 PP2      0.067256
     36 H53         0.7000    1.5260   -1.9640 hc        1 PP2      0.067256
     37 H2         -1.3250    0.2910    3.8220 hn        1 PP2      0.469800
     38 H3          0.2390    0.2670    4.5310 hn        1 PP2      0.469800
@<TRIPOS>BOND
     1    1    2 ar  
     2    1    6 ar  
     3    1    9 1   
     4    2    3 ar  
     5    3    4 ar  
     6    3   22 1   
     7    4    5 ar  
     8    5    6 ar  
     9    5   20 1   
    10    6    7 1   
    11    7    8 2   
    12    7   10 1   
    13    8    9 1   
    14    8   23 1   
    15    9   16 1   
    16   10   11 ar  
    17   10   15 ar  
    18   11   12 ar  
    19   11   24 1   
    20   12   13 ar  
    21   12   25 1   
    22   13   14 ar  
    23   13   21 1   
    24   14   15 ar  
    25   14   26 1   
    26   15   27 1   
    27   16   17 1   
    28   16   18 1   
    29   16   19 1   
    30   17   28 1   
    31   17   29 1   
    32   17   30 1   
    33   18   31 1   
    34   18   32 1   
    35   18   33 1   
    36   19   34 1   
    37   19   35 1   
    38   19   36 1   
    39   20   37 1   
    40   20   38 1   
@<TRIPOS>SUBSTRUCTURE
     1 PP2         1 TEMP              0 ****  ****    0 ROOT
