@<TRIPOS>MOLECULE
PP3
   36    36     1     0     0
SMALL
bcc


@<TRIPOS>ATOM
      1 N1         -0.0760    0.0110   -0.0560 nb        1 PP3     -0.651000
      2 C2          1.2560    0.3060    0.0360 ca        1 PP3      0.272600
      3 C2A         2.0330    0.5570   -1.2130 c3        1 PP3     -0.131400
      4 C3          1.8990    0.3830    1.2860 ca        1 PP3      0.006800
      5 O3          3.2410    0.6740    1.4410 oh        1 PP3     -0.526100
      6 C4          1.1740    0.1470    2.4780 ca        1 PP3     -0.208300
      7 C4A         1.8770    0.1810    3.7940 c3        1 PP3      0.178100
      8 C5         -0.1870   -0.1490    2.3800 ca        1 PP3     -0.061600
      9 C6         -0.7530   -0.2010    1.0690 ca        1 PP3      0.388200
     10 C5A        -1.0420   -0.4010    3.5770 c3        1 PP3      0.188700
     11 O4P        -2.3670   -0.5540    3.2620 os        1 PP3     -0.550200
     12 P          -3.2120   -0.7400    4.8140 p5        1 PP3      1.306900
     13 O1P        -4.6410   -0.8960    4.4000 o         1 PP3     -0.919833
     14 O2P        -2.4810   -1.9500    5.3290 o         1 PP3     -0.919833
     15 O3P        -2.7910    0.5560    5.4560 o         1 PP3     -0.919833
     16 N           2.3530    1.5550    4.1180 ny        1 PP3     -0.743000
     17 CA          3.0880    1.6970    5.4140 c3        1 PP3     -0.038500
     18 C           4.1350    2.8860    5.3100 c         1 PP3      0.922600
     19 O           4.6700    3.2300    6.3870 o         1 PP3     -0.798800
     20 CB          3.8320    0.4530    5.8550 c3        1 PP3     -0.097100
     21 OXT         4.3390    3.3680    4.1630 o         1 PP3     -0.798800
     22 H2A1        2.9060   -0.1410   -1.2650 hc        1 PP3      0.033700
     23 H2A2        1.4100    0.4060   -2.1280 hc        1 PP3      0.033700
     24 H2A3        2.4150    1.6090   -1.2200 hc        1 PP3      0.033700
     25 HO3         3.5840    0.9780    0.5900 ho        1 PP3      0.419000
     26 H4A1        1.1930   -0.1640    4.6260 hx        1 PP3      0.106200
     27 H4A2        2.7790   -0.4930    3.7500 hx        1 PP3      0.106200
     28 H6         -1.8390   -0.4300    0.9980 h4        1 PP3      0.084100
     29 H5A1       -0.6710   -1.3370    4.1030 h1        1 PP3      0.061700
     30 H5A2       -0.9260    0.4700    4.2980 h1        1 PP3      0.061700
     31 HN2         1.5500    2.1890    4.1330 hn        1 PP3      0.456300
     32 HA          2.3280    1.9700    6.2000 hx        1 PP3      0.094700
     33 HB1         3.1340   -0.3850    6.0940 hc        1 PP3      0.050700
     34 HB2         4.5600    0.1150    5.0780 hc        1 PP3      0.050700
     35 HB3         4.4040    0.7250    6.7780 hc        1 PP3      0.050700
     36 H2          2.9970    1.8810    3.3710 hn        1 PP3      0.456300
@<TRIPOS>BOND
     1    1    2 ar  
     2    1    9 ar  
     3    2    3 1   
     4    2    4 ar  
     5    3   22 1   
     6    3   23 1   
     7    3   24 1   
     8    4    5 1   
     9    4    6 ar  
    10    5   25 1   
    11    6    7 1   
    12    6    8 ar  
    13    7   16 1   
    14    7   26 1   
    15    7   27 1   
    16    8    9 ar  
    17    8   10 1   
    18    9   28 1   
    19   10   11 1   
    20   10   29 1   
    21   10   30 1   
    22   11   12 1   
    23   12   13 1   
    24   12   14 1   
    25   12   15 1   
    26   16   17 1   
    27   16   31 1   
    28   16   36 1   
    29   17   18 1   
    30   17   20 1   
    31   17   32 1   
    32   18   19 1   
    33   18   21 1   
    34   20   33 1   
    35   20   34 1   
    36   20   35 1   
@<TRIPOS>SUBSTRUCTURE
     1 PP3         1 TEMP              0 ****  ****    0 ROOT
