@<TRIPOS>MOLECULE
PP3
   36    36     1     0     0
SMALL
bcc


@<TRIPOS>ATOM
      1 N1         -0.1170    0.0800    0.0980 nb        1 PP3     -0.677000
      2 C2          1.1510    0.5540    0.1000 ca        1 PP3      0.331600
      3 C2A         1.7890    0.9970   -1.1740 c3        1 PP3     -0.119400
      4 C3          1.9080    0.6600    1.3020 ca        1 PP3      0.027800
      5 O3          3.1710    1.1660    1.1590 oh        1 PP3     -0.538100
      6 C4          1.3320    0.2780    2.5340 ca        1 PP3     -0.121300
      7 C4A         2.1350    0.3790    3.7990 c3        1 PP3      0.183100
      8 C5          0.0230   -0.2260    2.5130 ca        1 PP3     -0.154600
      9 C6         -0.6450   -0.3010    1.2700 ca        1 PP3      0.370200
     10 C5A        -0.6640   -0.7110    3.7560 c3        1 PP3      0.239700
     11 O4P        -1.9190   -1.2490    3.4760 os        1 PP3     -0.579200
     12 P          -3.1630   -0.8450    4.4910 p5        1 PP3      1.430800
     13 O1P        -4.3200   -1.6820    4.1260 o         1 PP3     -0.839500
     14 O2P        -2.5820   -0.6730    5.8400 o         1 PP3     -0.839500
     15 O3P        -3.3950    0.6990    4.0090 oh        1 PP3     -0.784400
     16 N           2.5010    1.7420    4.1630 n3        1 PP3     -0.793200
     17 CA          3.6380    1.8150    5.0790 c3        1 PP3      0.037500
     18 C           5.0370    1.5240    4.4590 c         1 PP3      0.891600
     19 O           6.0510    1.8520    5.1350 o         1 PP3     -0.854300
     20 CB          3.4850    0.9440    6.3200 c3        1 PP3     -0.072100
     21 OXT         5.1130    0.9840    3.3130 o         1 PP3     -0.854300
     22 H2A1        1.8560    2.1130   -1.1830 hc        1 PP3      0.034367
     23 H2A2        2.8280    0.5870   -1.2250 hc        1 PP3      0.034367
     24 H2A3        1.2180    0.6620   -2.0730 hc        1 PP3      0.034367
     25 HO3         3.7200    0.9250    1.9370 ho        1 PP3      0.485000
     26 H4A1        3.0500   -0.2800    3.6710 h1        1 PP3      0.053700
     27 H4A2        1.5440   -0.0320    4.6660 h1        1 PP3      0.053700
     28 H6         -1.6780   -0.6970    1.2350 h4        1 PP3      0.045100
     29 H5A1       -0.7630    0.1320    4.5000 h1        1 PP3      0.039200
     30 H5A2       -0.0170   -1.5210    4.2100 h1        1 PP3      0.039200
     31 HN2        -2.9110    1.3150    4.5460 ho        1 PP3      0.425000
     32 HA          3.6630    2.8940    5.4190 h1        1 PP3      0.042700
     33 HB1         3.4990   -0.1400    6.0500 hc        1 PP3      0.026367
     34 HB2         4.3480    1.1500    6.9980 hc        1 PP3      0.026367
     35 HB3         2.5320    1.1650    6.8570 hc        1 PP3      0.026367
     36 H2          2.7530    2.2490    3.3300 hn        1 PP3      0.350800
@<TRIPOS>BOND
     1    1    2 ar  
     2    1    9 ar  
     3    2    3 1   
     4    2    4 ar  
     5    3   22 1   
     6    3   23 1   
     7    3   24 1   
     8    4    5 1   
     9    4    6 ar  
    10    5   25 1   
    11    6    7 1   
    12    6    8 ar  
    13    7   16 1   
    14    7   26 1   
    15    7   27 1   
    16    8    9 ar  
    17    8   10 1   
    18    9   28 1   
    19   10   11 1   
    20   10   29 1   
    21   10   30 1   
    22   11   12 1   
    23   12   13 1   
    24   12   14 1   
    25   12   15 1   
    26   15   31 1   
    27   16   17 1   
    28   16   36 1   
    29   17   18 1   
    30   17   20 1   
    31   17   32 1   
    32   18   19 1   
    33   18   21 1   
    34   20   33 1   
    35   20   34 1   
    36   20   35 1   
@<TRIPOS>SUBSTRUCTURE
     1 PP3         1 TEMP              0 ****  ****    0 ROOT
