@<TRIPOS>MOLECULE
PP3
   36    36     1     0     0
SMALL
bcc


@<TRIPOS>ATOM
      1 N1         -0.1750    0.1240    0.1200 nb        1 PP3     -0.677000
      2 C2          1.0700    0.6540    0.1080 ca        1 PP3      0.331600
      3 C2A         1.6550    1.1680   -1.1650 c3        1 PP3     -0.119400
      4 C3          1.8520    0.7530    1.2940 ca        1 PP3      0.026800
      5 O3          3.0880    1.3190    1.1390 oh        1 PP3     -0.538100
      6 C4          1.3260    0.3030    2.5250 ca        1 PP3     -0.121300
      7 C4A         2.1550    0.3960    3.7730 c3        1 PP3      0.183100
      8 C5          0.0400   -0.2580    2.5180 ca        1 PP3     -0.154600
      9 C6         -0.6560   -0.3200    1.2900 ca        1 PP3      0.370200
     10 C5A        -0.5930   -0.8160    3.7600 c3        1 PP3      0.239700
     11 O4P        -1.8300   -1.4000    3.4910 os        1 PP3     -0.579200
     12 P          -3.0640   -1.0880    4.5480 p5        1 PP3      1.430800
     13 O1P        -4.1910   -1.9640    4.1830 o         1 PP3     -0.839500
     14 O2P        -2.4580   -0.9340    5.8880 o         1 PP3     -0.839500
     15 O3P        -3.3770    0.4590    4.1250 oh        1 PP3     -0.784400
     16 N           2.4710    1.7610    4.1760 n3        1 PP3     -0.793200
     17 CA          3.6270    1.8530    5.0670 c3        1 PP3      0.037500
     18 C           5.0210    1.6470    4.4030 c         1 PP3      0.891600
     19 O           6.0370    1.9970    5.0650 o         1 PP3     -0.854300
     20 CB          3.5440    0.9340    6.2790 c3        1 PP3     -0.072100
     21 OXT         5.0910    1.1500    3.2370 o         1 PP3     -0.854300
     22 H2A1        2.7100    0.8080   -1.2550 hc        1 PP3      0.034367
     23 H2A2        1.0770    0.8400   -2.0610 hc        1 PP3      0.034367
     24 H2A3        1.6720    2.2860   -1.1360 hc        1 PP3      0.034367
     25 HO3         3.6670    1.0760    1.8940 ho        1 PP3      0.485000
     26 H4A1        1.6050   -0.0700    4.6390 h1        1 PP3      0.053700
     27 H4A2        3.0950   -0.2160    3.6000 h1        1 PP3      0.053700
     28 H6         -1.6710   -0.7610    1.2650 h4        1 PP3      0.045100
     29 H5A1        0.1010   -1.6110    4.1690 h1        1 PP3      0.039200
     30 H5A2       -0.7100   -0.0040    4.5350 h1        1 PP3      0.039200
     31 HN2        -2.9070    1.0790    4.6720 ho        1 PP3      0.425000
     32 HA          3.6130    2.9210    5.4430 h1        1 PP3      0.042700
     33 HB1         3.5980   -0.1370    5.9710 hc        1 PP3      0.026367
     34 HB2         2.5960    1.0940    6.8460 hc        1 PP3      0.026367
     35 HB3         4.4140    1.1560    6.9430 hc        1 PP3      0.026367
     36 H2          2.6790    2.3070    3.3560 hn        1 PP3      0.350800
@<TRIPOS>BOND
     1    1    2 ar  
     2    1    9 ar  
     3    2    3 1   
     4    2    4 ar  
     5    3   22 1   
     6    3   23 1   
     7    3   24 1   
     8    4    5 1   
     9    4    6 ar  
    10    5   25 1   
    11    6    7 1   
    12    6    8 ar  
    13    7   16 1   
    14    7   26 1   
    15    7   27 1   
    16    8    9 ar  
    17    8   10 1   
    18    9   28 1   
    19   10   11 1   
    20   10   29 1   
    21   10   30 1   
    22   11   12 1   
    23   12   13 1   
    24   12   14 1   
    25   12   15 1   
    26   15   31 1   
    27   16   17 1   
    28   16   36 1   
    29   17   18 1   
    30   17   20 1   
    31   17   32 1   
    32   18   19 1   
    33   18   21 1   
    34   20   33 1   
    35   20   34 1   
    36   20   35 1   
@<TRIPOS>SUBSTRUCTURE
     1 PP3         1 TEMP              0 ****  ****    0 ROOT
