@<TRIPOS>MOLECULE
PP3
   35    35     1     0     0
SMALL
bcc


@<TRIPOS>ATOM
      1 N1          3.4890    0.6290   -0.1710 nb        1 PP3     -0.687000
      2 C2          3.2110    0.5210    1.1540 ca        1 PP3      0.286600
      3 C2A         4.2960    0.7030    2.1610 c3        1 PP3     -0.102400
      4 C3          1.9050    0.2190    1.6200 ca        1 PP3      0.034800
      5 O3          1.7930    0.0870    2.9840 oh        1 PP3     -0.558100
      6 C4          0.8420    0.0500    0.7020 ca        1 PP3     -0.153300
      7 C4A        -0.5540   -0.2980    1.1470 c3        1 PP3      0.206100
      8 C5          1.1440    0.1440   -0.6660 ca        1 PP3     -0.121600
      9 C6          2.4860    0.4370   -1.0320 ca        1 PP3      0.368200
     10 C5A         0.1310   -0.0600   -1.7690 c3        1 PP3      0.239700
     11 O4P         0.6430    0.2230   -3.0050 os        1 PP3     -0.568200
     12 P           0.3370   -0.9350   -4.2800 p5        1 PP3      1.314900
     13 O1P        -0.8290   -0.3180   -5.0030 o         1 PP3     -0.930500
     14 O2P         1.6540   -0.9160   -5.0070 o         1 PP3     -0.930500
     15 O3P         0.0240   -2.1920   -3.5090 o         1 PP3     -0.930500
     16 N          -0.9410    0.2730    2.4270 n3        1 PP3     -0.855200
     17 CA         -2.0150   -0.4400    3.1070 c3        1 PP3      0.058500
     18 C          -2.8690    0.4720    4.0490 c         1 PP3      0.910600
     19 O          -2.8640    1.7240    3.8770 o         1 PP3     -0.856300
     20 CB         -1.4810   -1.6220    3.9130 c3        1 PP3     -0.071100
     21 OXT        -3.5760   -0.1030    4.9290 o         1 PP3     -0.856300
     22 H2A1        4.5190   -0.2790    2.6480 hc        1 PP3      0.018367
     23 H2A2        5.2360    1.1000    1.7080 hc        1 PP3      0.018367
     24 H2A3        3.9480    1.4090    2.9550 hc        1 PP3      0.018367
     25 HO3         0.8430    0.0210    3.2100 ho        1 PP3      0.463000
     26 H4A1       -0.6010   -1.4250    1.2260 h1        1 PP3      0.045700
     27 H4A2       -1.2770   -0.0020    0.3290 h1        1 PP3      0.045700
     28 H6          2.7220    0.5050   -2.1160 h4        1 PP3      0.074100
     29 H5A1       -0.2390   -1.1310   -1.7220 h1        1 PP3      0.026700
     30 H5A2       -0.7320    0.6420   -1.5350 h1        1 PP3      0.026700
     31 HN2        -1.1830    1.2430    2.3390 hn        1 PP3      0.390800
     32 HA         -2.7570   -0.8520    2.3550 h1        1 PP3      0.014700
     33 HB1        -0.7040   -1.2870    4.6420 hc        1 PP3      0.019700
     34 HB2        -2.3300   -2.0730    4.4810 hc        1 PP3      0.019700
     35 HB3        -1.0300   -2.3960    3.2460 hc        1 PP3      0.019700
@<TRIPOS>BOND
     1    1    2 ar  
     2    1    9 ar  
     3    2    3 1   
     4    2    4 ar  
     5    3   22 1   
     6    3   23 1   
     7    3   24 1   
     8    4    5 1   
     9    4    6 ar  
    10    5   25 1   
    11    6    7 1   
    12    6    8 ar  
    13    7   16 1   
    14    7   26 1   
    15    7   27 1   
    16    8    9 ar  
    17    8   10 1   
    18    9   28 1   
    19   10   11 1   
    20   10   29 1   
    21   10   30 1   
    22   11   12 1   
    23   12   13 1   
    24   12   14 1   
    25   12   15 1   
    26   16   17 1   
    27   16   31 1   
    28   17   18 1   
    29   17   20 1   
    30   17   32 1   
    31   18   19 1   
    32   18   21 1   
    33   20   33 1   
    34   20   34 1   
    35   20   35 1   
@<TRIPOS>SUBSTRUCTURE
     1 PP3         1 TEMP              0 ****  ****    0 ROOT
