@<TRIPOS>MOLECULE
PP4
   70    66     1     0     0
SMALL
bcc


@<TRIPOS>ATOM
      1 OI          2.1760    2.5390   -0.8530 o         1 PP4     -0.392000
      2 C1         -1.2490    7.0830    8.7010 c2        1 PP4     -0.192000
      3 C2         -0.0760    7.0660    7.9410 c2        1 PP4     -0.137000
      4 C3          0.3100    5.8960    7.2930 c2        1 PP4     -0.162000
      5 C4         -0.4470    4.7280    7.3840 c1        1 PP4     -0.284000
      6 C5         -1.6240    4.7540    8.1450 c2        1 PP4     -0.033000
      7 C6         -2.0240    5.9330    8.8030 c2        1 PP4     -0.118000
      8 C7          6.7900   -1.5230    4.0140 c1        1 PP4      0.248000
      9 C8          5.9560   -1.2200    4.9840 c2        1 PP4     -0.508000
     10 C9         -3.1150    2.6230    8.3560 c1        1 PP4     -0.302000
     11 C10        -2.4290    3.6010    8.2580 c1        1 PP4     -0.049000
     12 C12         1.3560    1.9900   -0.1370 c1        1 PP4     -0.003000
     13 C13         4.9730   -0.1710    5.0620 c2        1 PP4      0.048000
     14 C14         4.1280    0.0700    6.1000 c2        1 PP4     -0.748000
     15 NV          1.7000    2.0790    1.3860 n4        1 PP4     -0.175000
     16 CAV         1.6460    2.7830    5.1560 cx        1 PP4     -0.236000
     17 CV          2.6020    1.6620    4.9120 c2        1 PP4      0.350000
     18 OV          2.8830    1.2260    3.7730 o         1 PP4     -0.436000
     19 CBV         0.3000    2.7360    4.4590 cx        1 PP4     -0.139000
     20 CV1         0.3900    2.5890    5.9400 cu        1 PP4     -0.422000
     21 CV2        -0.2600    3.9890    3.8820 c3        1 PP4     -0.181000
     22 NL          3.1550    1.0910    6.0580 n         1 PP4     -0.329000
     23 P           4.0610   -0.7700    7.4980 p5        1 PP4      2.784000
     24 O           2.5540   -1.1490    7.8490 oh        1 PP4     -0.824000
     25 OH          4.9540   -1.9110    7.6890 o         1 PP4     -1.135000
     26 CA          3.8890    0.1210    9.9600 c3        1 PP4      0.101000
     27 CB          5.0920    0.2200   10.8990 c3        1 PP4     -0.169000
     28 CG          5.7330   -1.1320   11.1630 c3        1 PP4     -0.066000
     29 CD1         6.6230   -4.4390    8.6840 c1        1 PP4     -0.061000
     30 CD2         4.9150   -1.9890   11.9720 c1        1 PP4     -0.166000
     31 CE1         7.2990   -5.4020    9.0130 c1        1 PP4     -0.256000
     32 CE2         4.2480   -2.7170   12.6480 c1        1 PP4     -0.219000
     33 CZ          8.1760   -6.3350    9.4080 c1        1 PP4     -0.061000
     34 C           2.8380    1.1590   10.3340 c2        1 PP4      0.282000
     35 CS          1.0340    2.5060    9.5410 c3        1 PP4     -0.081000
     36 OP          4.3020    0.3580    8.6380 os        1 PP4     -0.763000
     37 OE          2.6410    1.6590   11.4420 o         1 PP4     -0.348000
     38 H2          0.5320    7.9790    7.8610 ha        1 PP4      0.098000
     39 H3          0.6210    2.7320    8.5190 h1        1 PP4      0.113000
     40 H4          1.2300    5.8850    6.6900 ha        1 PP4      0.105000
     41 H7         -2.9490    5.9460    9.3960 ha        1 PP4      0.105000
     42 H9          6.0210   -1.8880    5.8940 ha        1 PP4      0.250000
     43 H10        -3.7140    1.7560    8.4310 ha        1 PP4      0.204000
     44 H12         1.7640    1.1310    1.7520 hn        1 PP4      0.187333
     45 H131        4.6260    1.4870    2.0430 ha        1 PP4      0.002500
     46 H132        4.3680    0.8850    1.8680 ha        1 PP4      0.002500
     47 H14         4.9150    0.4630    4.1500 ha        1 PP4      0.168000
     48 HNV         2.5610    2.5580    1.6450 hn        1 PP4      0.187333
     49 HAV         0.9270    2.5380    1.8620 hn        1 PP4      0.187333
     50 HBV         2.1810    3.7490    5.2490 hc        1 PP4      0.130000
     51 HV11        0.1000    1.8420    3.8310 hc        1 PP4      0.070000
     52 HV12        0.1720    1.6270    6.4160 ha        1 PP4      0.072000
     53 HV13       -0.0490    3.6380    6.6830 DU        1 PP4      0.328000
     54 HV21       -0.2030    4.8200    4.6300 hc        1 PP4      0.069667
     55 HV22        0.2990    4.2960    2.9630 hc        1 PP4      0.069667
     56 HV23       -1.3330    3.8370    3.6080 hc        1 PP4      0.069667
     57 HNL         3.0340    1.5970    6.9150 hn        1 PP4      0.254000
     58 HA          6.0330   -3.5920    8.3940 ha        1 PP4      0.187000
     59 HB1         3.4020   -0.8970   10.0340 h1        1 PP4      0.123000
     60 HB2         4.7610    0.6780   11.8690 hc        1 PP4      0.117000
     61 HD1         5.8540    0.9000   10.4340 hc        1 PP4      0.117000
     62 HD2         5.9640   -1.6510   10.1880 hc        1 PP4      0.112500
     63 HE1         6.7150   -0.9630   11.6890 hc        1 PP4      0.112500
     64 HE2         7.9420   -7.4020    9.4500 ha        1 PP4      0.187000
     65 HZ          3.6530   -3.3590   13.2440 ha        1 PP4      0.219000
     66 HS1         1.8910   -0.4590    7.8820 ho        1 PP4      0.299000
     67 HS2         0.2580    2.0850   10.2230 h1        1 PP4      0.113000
     68 HS3         1.5030    3.4080   10.0010 h1        1 PP4      0.113000
     69 OS          2.0330    1.5070    9.2930 os        1 PP4     -0.293000
     70 H1         -1.5590    8.0020    9.2150 ha        1 PP4      0.101000
@<TRIPOS>BOND
     1    1   12 1   
     2    2    3 1   
     3    2    7 1   
     4    2   70 1   
     5    3    4 1   
     6    3   38 1   
     7    4    5 1   
     8    4   40 1   
     9    5    6 1   
    10    6    7 1   
    11    6   11 1   
    12    7   41 1   
    13    8    9 1   
    14    9   13 1   
    15    9   42 1   
    16   10   11 1   
    17   10   43 1   
    18   12   15 1   
    19   13   14 1   
    20   13   47 1   
    21   14   22 1   
    22   14   23 1   
    23   15   44 1   
    24   15   48 1   
    25   15   49 1   
    26   16   17 1   
    27   16   19 1   
    28   16   20 1   
    29   16   50 1   
    30   17   18 1   
    31   17   22 1   
    32   19   20 1   
    33   19   21 1   
    34   19   51 1   
    35   20   52 1   
    36   21   54 1   
    37   21   55 1   
    38   21   56 1   
    39   22   57 1   
    40   23   24 1   
    41   23   25 1   
    42   23   36 1   
    43   24   66 1   
    44   26   27 1   
    45   26   34 1   
    46   26   36 1   
    47   26   59 1   
    48   27   28 1   
    49   27   60 1   
    50   27   61 1   
    51   28   30 1   
    52   28   62 1   
    53   28   63 1   
    54   29   31 1   
    55   29   58 1   
    56   30   32 1   
    57   31   33 1   
    58   32   65 1   
    59   33   64 1   
    60   34   37 1   
    61   34   69 1   
    62   35   39 1   
    63   35   67 1   
    64   35   68 1   
    65   35   69 1   
    66   45   46 1   
@<TRIPOS>SUBSTRUCTURE
     1 PP4         1 TEMP              0 ****  ****    0 ROOT
