@<TRIPOS>MOLECULE
PP4
   70    72     1     0     0
SMALL
bcc


@<TRIPOS>ATOM
      1 OI         -6.9000    1.0540    2.6660 o         1 PP4     -0.620100
      2 C1          4.1690    2.5960    1.1890 ca        1 PP4     -0.106000
      3 C2          5.0390    3.5870    0.8070 ca        1 PP4     -0.149000
      4 C3          4.5560    4.7600    0.1790 ca        1 PP4     -0.141000
      5 C4          3.2130    4.9160   -0.0580 ca        1 PP4     -0.122000
      6 C5          2.2890    3.9070    0.3260 ca        1 PP4     -0.040000
      7 C6          2.7720    2.7340    0.9620 ca        1 PP4     -0.040000
      8 C7          1.8520    1.7250    1.3550 ca        1 PP4     -0.111000
      9 C8          0.5000    1.8810    1.1340 ca        1 PP4     -0.063300
     10 C9          0.0240    3.0460    0.4740 ca        1 PP4     -0.111000
     11 C10         0.8930    4.0330    0.0840 ca        1 PP4     -0.143000
     12 C12        -6.3830    2.0920    2.2140 c         1 PP4      0.660900
     13 C13        -0.4760    0.8560    1.6010 c3        1 PP4     -0.038100
     14 C14        -1.1970    0.1520    0.4530 c3        1 PP4     -0.122500
     15 NV         -5.4810    2.1190    1.1870 n         1 PP4     -0.568900
     16 CAV        -4.9810    0.9380    0.5220 c3        1 PP4      0.030700
     17 CV         -3.4600    1.1310    0.2490 c         1 PP4      0.642100
     18 OV         -3.0730    2.1860   -0.3030 o         1 PP4     -0.652100
     19 CBV        -5.6640    0.6460   -0.8370 c3        1 PP4     -0.076700
     20 CV1        -5.1720   -0.6790   -1.3820 c3        1 PP4     -0.095600
     21 CV2        -7.1710    0.6240   -0.6890 c3        1 PP4     -0.095600
     22 NL         -2.6290    0.1010    0.5870 n         1 PP4     -0.510900
     23 P          -0.6610   -1.5030    0.3720 p5        1 PP4      1.332600
     24 O          -1.3270   -2.2370    1.4670 o         1 PP4     -0.837500
     25 OH         -0.6220   -1.9580   -1.0340 o         1 PP4     -0.837500
     26 CA          1.8180   -2.2980    0.1850 c3        1 PP4      0.184100
     27 CB          2.8080   -1.5990   -0.7640 c3        1 PP4     -0.059100
     28 CG          3.0640   -2.3900   -1.9980 ca        1 PP4     -0.077300
     29 CD1         1.9980   -2.7480   -2.8370 ca        1 PP4     -0.125000
     30 CD2         4.3690   -2.7530   -2.3490 ca        1 PP4     -0.125000
     31 CE1         2.2460   -3.4600   -4.0080 ca        1 PP4     -0.143000
     32 CE2         4.6100   -3.4640   -3.5240 ca        1 PP4     -0.143000
     33 CZ          3.5490   -3.8180   -4.3560 ca        1 PP4     -0.147000
     34 C           2.6070   -2.9700    1.3070 c         1 PP4      0.626100
     35 CS          2.8440   -4.9700    2.5790 c3        1 PP4      0.129700
     36 OP          0.9620   -1.3730    0.7700 os        1 PP4     -0.573200
     37 OE          3.5160   -2.5290    2.0140 o         1 PP4     -0.567000
     38 H2          6.1200    3.4810    0.9810 ha        1 PP4      0.120000
     39 H3          5.2720    5.5390   -0.1190 ha        1 PP4      0.116000
     40 H4          2.8280    5.8210   -0.5500 ha        1 PP4      0.121000
     41 H7          2.2350    0.8000    1.8200 ha        1 PP4      0.160000
     42 H9         -1.0590    3.1230    0.2660 ha        1 PP4      0.165000
     43 H10         0.5270    4.9340   -0.4290 ha        1 PP4      0.121000
     44 H12        -6.6220    3.1040    2.6220 h5        1 PP4      0.015200
     45 H131       -1.2080    1.3800    2.2790 hc        1 PP4      0.059700
     46 H132        0.0450    0.0820    2.2310 hc        1 PP4      0.059700
     47 H14        -0.9620    0.6890   -0.5090 h1        1 PP4      0.105700
     48 HNV        -5.1210    2.9860    0.8590 hn        1 PP4      0.326500
     49 HAV        -5.1690    0.0550    1.2040 h1        1 PP4      0.093700
     50 HBV        -5.3750    1.4630   -1.5560 hc        1 PP4      0.061700
     51 HV11       -5.3540   -1.5020   -0.6500 hc        1 PP4      0.040200
     52 HV12       -5.7130   -0.9230   -2.3290 hc        1 PP4      0.040200
     53 HV13       -4.0790   -0.6370   -1.6070 hc        1 PP4      0.040200
     54 HV21       -7.5730    1.6570   -0.5540 hc        1 PP4      0.040200
     55 HV22       -7.6410    0.1840   -1.6010 hc        1 PP4      0.040200
     56 HV23       -7.4680    0.0130    0.1990 hc        1 PP4      0.040200
     57 HNL        -2.9660   -0.6380    1.1730 hn        1 PP4      0.340500
     58 HA          1.2260   -3.0850   -0.3720 h1        1 PP4      0.095700
     59 HB1         2.3710   -0.6060   -1.0560 hc        1 PP4      0.068200
     60 HB2         3.7670   -1.3880   -0.2200 hc        1 PP4      0.068200
     61 HD1         0.9620   -2.4680   -2.5550 ha        1 PP4      0.165000
     62 HD2         5.2090   -2.4760   -1.6950 ha        1 PP4      0.165000
     63 HE1         1.4060   -3.7410   -4.6600 ha        1 PP4      0.119000
     64 HE2         5.6380   -3.7450   -3.7920 ha        1 PP4      0.119000
     65 HZ          3.7390   -4.3800   -5.2810 ha        1 PP4      0.113000
     66 HS1         3.9400   -5.0680    2.3880 h1        1 PP4      0.038700
     67 HS2         2.6740   -4.4290    3.5410 h1        1 PP4      0.038700
     68 HS3         2.3400   -5.9670    2.5790 h1        1 PP4      0.038700
     69 OS          2.2230   -4.2700    1.5070 os        1 PP4     -0.431900
     70 H1          4.5320    1.6770    1.6740 ha        1 PP4      0.138000
@<TRIPOS>BOND
     1    1   12 2   
     2    2    3 ar  
     3    2    7 ar  
     4    2   70 1   
     5    3    4 ar  
     6    3   38 1   
     7    4    5 ar  
     8    4   39 1   
     9    5    6 ar  
    10    5   40 1   
    11    6    7 ar  
    12    6   11 ar  
    13    7    8 ar  
    14    8    9 ar  
    15    8   41 1   
    16    9   10 ar  
    17    9   13 1   
    18   10   11 ar  
    19   10   42 1   
    20   11   43 1   
    21   12   15 1   
    22   12   44 1   
    23   13   14 1   
    24   13   45 1   
    25   13   46 1   
    26   14   22 1   
    27   14   23 1   
    28   14   47 1   
    29   15   16 1   
    30   15   48 1   
    31   16   17 1   
    32   16   19 1   
    33   16   49 1   
    34   17   18 2   
    35   17   22 1   
    36   19   20 1   
    37   19   21 1   
    38   19   50 1   
    39   20   51 1   
    40   20   52 1   
    41   20   53 1   
    42   21   54 1   
    43   21   55 1   
    44   21   56 1   
    45   22   57 1   
    46   23   24 1   
    47   23   25 1   
    48   23   36 1   
    49   26   27 1   
    50   26   34 1   
    51   26   36 1   
    52   26   58 1   
    53   27   28 1   
    54   27   59 1   
    55   27   60 1   
    56   28   29 ar  
    57   28   30 ar  
    58   29   31 ar  
    59   29   61 1   
    60   30   32 ar  
    61   30   62 1   
    62   31   33 ar  
    63   31   63 1   
    64   32   33 ar  
    65   32   64 1   
    66   33   65 1   
    67   34   37 2   
    68   34   69 1   
    69   35   66 1   
    70   35   67 1   
    71   35   68 1   
    72   35   69 1   
@<TRIPOS>SUBSTRUCTURE
     1 PP4         1 TEMP              0 ****  ****    0 ROOT
