@<TRIPOS>MOLECULE
PP5
   72    74     1     0     0
SMALL
bcc


@<TRIPOS>ATOM
      1 OI          2.1360    2.4670    1.2010 o         1 PP5     -0.683100
      2 C1          1.5670    0.9140   -2.0390 ca        1 PP5     -0.124300
      3 C2          2.2180   -0.1130   -2.6930 ca        1 PP5     -0.109000
      4 C3          1.5310   -0.9390   -3.6110 ca        1 PP5     -0.138000
      5 C4          0.2000   -0.7250   -3.8700 ca        1 PP5     -0.088000
      6 C5         -0.5010    0.3240   -3.2160 ca        1 PP5     -0.042000
      7 C6          0.1820    1.1550   -2.2890 ca        1 PP5     -0.027000
      8 C7         -0.5420    2.2010   -1.6520 ca        1 PP5     -0.146000
      9 C8         -1.8710    2.4090   -1.9300 ca        1 PP5     -0.104000
     10 C9         -2.5480    1.5810   -2.8570 ca        1 PP5     -0.122000
     11 C10        -1.8790    0.5600   -3.4850 ca        1 PP5     -0.107000
     12 C11         2.3320    1.7960   -1.1180 c3        1 PP5     -0.095100
     13 C12         2.0490    1.5540    0.3490 c         1 PP5      0.695100
     14 C14         3.2320    1.8650    4.1340 c3        1 PP5     -0.211400
     15 NV          1.7450    0.2660    0.7660 n         1 PP5     -0.559900
     16 CAV         1.3490   -0.0160    2.1110 c3        1 PP5      0.068700
     17 CV          2.6100   -0.2510    2.9810 c         1 PP5      0.519100
     18 OV          3.5470   -0.9960    2.7530 o         1 PP5     -0.411100
     19 CBV         0.4670   -1.2810    2.2720 c3        1 PP5     -0.074700
     20 CV1         0.1780   -1.5120    3.7410 c3        1 PP5     -0.111100
     21 CV2        -0.8270   -1.1090    1.5040 c3        1 PP5     -0.111100
     22 NL          2.6770    0.5110    4.2910 n4        1 PP5     -0.640800
     23 P           2.1570    3.0800    4.6830 p5        1 PP5      1.575300
     24 O           0.8420    2.4570    4.7940 o         1 PP5     -0.822300
     25 OH          2.3300    4.2580    3.6460 oh        1 PP5     -0.791400
     26 CA          3.6280    4.7780    6.0870 c3        1 PP5      0.162100
     27 CB          3.1700    5.6070    7.2880 c3        1 PP5     -0.038100
     28 CG          1.9770    6.4350    6.9630 ca        1 PP5     -0.118300
     29 CD1         0.7240    6.1140    7.4960 ca        1 PP5     -0.122000
     30 CD2         2.1110    7.5680    6.1510 ca        1 PP5     -0.122000
     31 CE1        -0.3830    6.9130    7.2150 ca        1 PP5     -0.124500
     32 CE2         1.0020    8.3650    5.8700 ca        1 PP5     -0.124500
     33 CZ         -0.2460    8.0380    6.4020 ca        1 PP5     -0.115000
     34 C           5.0760    4.3220    6.2280 c         1 PP5      0.615100
     35 CS          7.2840    4.8890    6.9060 c3        1 PP5      0.123700
     36 OP          2.8220    3.6140    6.0210 os        1 PP5     -0.576200
     37 H2          3.2910   -0.2950   -2.5220 ha        1 PP5      0.136000
     38 H3          2.0830   -1.7440   -4.1210 ha        1 PP5      0.148000
     39 H4         -0.3440   -1.3560   -4.5910 ha        1 PP5      0.148000
     40 H7         -0.0220    2.8510   -0.9320 ha        1 PP5      0.128000
     41 H8         -2.4240    3.2260   -1.4410 ha        1 PP5      0.142000
     42 H9         -3.6120    1.7690   -3.0670 ha        1 PP5      0.147000
     43 H10        -2.3920   -0.0900   -4.2100 ha        1 PP5      0.146000
     44 H111        2.1030    2.8780   -1.3310 hc        1 PP5      0.100700
     45 H112        3.4400    1.6550   -1.2640 hc        1 PP5      0.100700
     46 H141        4.2300    1.9330    4.6740 hx        1 PP5      0.171700
     47 H142        3.4800    2.0490    3.0430 hx        1 PP5      0.171700
     48 HNV         1.6580   -0.4600    0.0890 hn        1 PP5      0.352500
     49 HAV         0.7710    0.8720    2.5190 h1        1 PP5      0.117700
     50 HBV         1.0260   -2.1690    1.8620 hc        1 PP5      0.079700
     51 HV11       -0.2650   -0.6000    4.2130 hc        1 PP5      0.056867
     52 HV12        1.1050   -1.8030    4.2920 hc        1 PP5      0.056867
     53 HV13       -0.5570   -2.3480    3.8500 hc        1 PP5      0.056867
     54 HV21       -0.6410   -1.0420    0.4050 hc        1 PP5      0.056867
     55 HV22       -1.4890   -1.9910    1.6880 hc        1 PP5      0.056867
     56 HV23       -1.3660   -0.1890    1.8350 hc        1 PP5      0.056867
     57 HNL         1.7060    0.5870    4.6690 hn        1 PP5      0.473800
     58 HA          3.5360    5.3700    5.1300 h1        1 PP5      0.107700
     59 HB1         2.9480    4.9120    8.1420 hc        1 PP5      0.089700
     60 HB2         4.0190    6.2770    7.5970 hc        1 PP5      0.089700
     61 HD1         0.6120    5.2320    8.1460 ha        1 PP5      0.134500
     62 HD2         3.0970    7.8370    5.7430 ha        1 PP5      0.134500
     63 HE1        -1.3650    6.6580    7.6410 ha        1 PP5      0.142500
     64 HE2         1.1140    9.2570    5.2360 ha        1 PP5      0.142500
     65 HZ         -1.1200    8.6710    6.1850 ha        1 PP5      0.143000
     66 HS1         7.7380    5.7990    7.3720 h1        1 PP5      0.065700
     67 HS2         7.3760    3.9950    7.5670 h1        1 PP5      0.065700
     68 HS3         7.7190    4.6770    5.9010 h1        1 PP5      0.065700
     69 OS          5.9010    5.2490    6.7680 os        1 PP5     -0.409900
     70 HV2         1.8870    4.2200    2.7940 ho        1 PP5      0.529000
     71 HL2         3.2560   -0.0300    4.9490 hn        1 PP5      0.473800
     72 OE          5.5410    3.2350    5.8640 o         1 PP5     -0.578000
@<TRIPOS>BOND
     1    1   13 2   
     2    2    3 ar  
     3    2    7 ar  
     4    2   12 1   
     5    3    4 ar  
     6    3   37 1   
     7    4    5 ar  
     8    4   38 1   
     9    5    6 ar  
    10    5   39 1   
    11    6    7 ar  
    12    6   11 ar  
    13    7    8 ar  
    14    8    9 ar  
    15    8   40 1   
    16    9   10 ar  
    17    9   41 1   
    18   10   11 ar  
    19   10   42 1   
    20   11   43 1   
    21   12   13 1   
    22   12   44 1   
    23   12   45 1   
    24   13   15 1   
    25   14   22 1   
    26   14   23 1   
    27   14   46 1   
    28   14   47 1   
    29   15   16 1   
    30   15   48 1   
    31   16   17 1   
    32   16   19 1   
    33   16   49 1   
    34   17   18 2   
    35   17   22 1   
    36   19   20 1   
    37   19   21 1   
    38   19   50 1   
    39   20   51 1   
    40   20   52 1   
    41   20   53 1   
    42   21   54 1   
    43   21   55 1   
    44   21   56 1   
    45   22   57 1   
    46   22   71 1   
    47   23   24 2   
    48   23   25 1   
    49   23   36 1   
    50   25   70 1   
    51   26   27 1   
    52   26   34 1   
    53   26   36 1   
    54   26   58 1   
    55   27   28 1   
    56   27   59 1   
    57   27   60 1   
    58   28   29 ar  
    59   28   30 ar  
    60   29   31 ar  
    61   29   61 1   
    62   30   32 ar  
    63   30   62 1   
    64   31   33 ar  
    65   31   63 1   
    66   32   33 ar  
    67   32   64 1   
    68   33   65 1   
    69   34   69 1   
    70   34   72 2   
    71   35   66 1   
    72   35   67 1   
    73   35   68 1   
    74   35   69 1   
@<TRIPOS>SUBSTRUCTURE
     1 PP5         1 TEMP              0 ****  ****    0 ROOT
