@<TRIPOS>MOLECULE
PP5
   70    72     1     0     0
SMALL
bcc


@<TRIPOS>ATOM
      1 OI         -3.2500    2.2850    0.7090 o         1 PP5     -0.624100
      2 C1         -5.9570    0.5350   -0.5930 ca        1 PP5     -0.065300
      3 C2         -6.2350   -0.2880   -1.6650 ca        1 PP5     -0.127000
      4 C3         -7.1320   -1.3730   -1.5340 ca        1 PP5     -0.125000
      5 C4         -7.7480   -1.6210   -0.3330 ca        1 PP5     -0.121000
      6 C5         -7.4780   -0.8010    0.7960 ca        1 PP5     -0.036000
      7 C6         -6.5640    0.2790    0.6760 ca        1 PP5     -0.027000
      8 C7         -6.2780    1.0630    1.8290 ca        1 PP5     -0.113000
      9 C8         -6.8930    0.7980    3.0280 ca        1 PP5     -0.131000
     10 C9         -7.8200   -0.2660    3.1390 ca        1 PP5     -0.128000
     11 C10        -8.1030   -1.0500    2.0490 ca        1 PP5     -0.126000
     12 C11        -5.0540    1.7030   -0.7750 c3        1 PP5     -0.119100
     13 C12        -3.6730    1.4960   -0.1610 c         1 PP5      0.664100
     14 C14         1.3080    0.6490   -2.8460 c3        1 PP5     -0.160200
     15 NV         -2.9500    0.4170   -0.6060 n         1 PP5     -0.542900
     16 CAV        -1.5490    0.2210   -0.3090 c3        1 PP5      0.033700
     17 CV         -0.7580    0.0940   -1.6440 c         1 PP5      0.629100
     18 OV         -1.2290   -0.5970   -2.5780 o         1 PP5     -0.654100
     19 CBV        -1.2770   -1.0570    0.5200 c3        1 PP5     -0.070700
     20 CV1         0.2150   -1.2570    0.6910 c3        1 PP5     -0.097100
     21 CV2        -1.9500   -0.9700    1.8720 c3        1 PP5     -0.097100
     22 NL          0.4170    0.7790   -1.7390 n         1 PP5     -0.509900
     23 P           2.8890    1.1800   -2.4390 p5        1 PP5      1.329600
     24 O           2.8860    1.8380   -1.1070 o         1 PP5     -0.840500
     25 OH          3.5520    1.7270   -3.6330 o         1 PP5     -0.840500
     26 CA          4.5640   -0.3570   -1.1490 c3        1 PP5      0.186100
     27 CB          4.1100   -1.1650    0.0810 c3        1 PP5     -0.060100
     28 CG          4.5850   -0.5690    1.3580 ca        1 PP5     -0.077300
     29 CD1         4.2520    0.7550    1.6830 ca        1 PP5     -0.127500
     30 CD2         5.3390   -1.3290    2.2590 ca        1 PP5     -0.127500
     31 CE1         4.6700    1.3000    2.8960 ca        1 PP5     -0.142500
     32 CE2         5.7530   -0.7780    3.4720 ca        1 PP5     -0.142500
     33 CZ          5.4190    0.5360    3.7920 ca        1 PP5     -0.147000
     34 C           5.7830   -1.0420   -1.7640 c         1 PP5      0.626100
     35 CS          7.9010   -0.6660   -2.7860 c3        1 PP5      0.129700
     36 OP          3.5620   -0.3230   -2.1080 os        1 PP5     -0.569200
     37 OE          6.0130   -2.2380   -1.9540 o         1 PP5     -0.567000
     38 H2         -5.7600   -0.1090   -2.6420 ha        1 PP5      0.138000
     39 H3         -7.3260   -2.0100   -2.4090 ha        1 PP5      0.132000
     40 H4         -8.4540   -2.4580   -0.2210 ha        1 PP5      0.128000
     41 H7         -5.5330    1.8730    1.7510 ha        1 PP5      0.159000
     42 H8         -6.6650    1.4040    3.9170 ha        1 PP5      0.133000
     43 H9         -8.3010   -0.4570    4.1090 ha        1 PP5      0.126000
     44 H10        -8.8120   -1.8870    2.1250 ha        1 PP5      0.127000
     45 H111       -5.5030    2.6150   -0.2960 hc        1 PP5      0.078200
     46 H112       -4.9210    1.9280   -1.8680 hc        1 PP5      0.078200
     47 H141        0.9140    1.2400   -3.7180 h1        1 PP5      0.079700
     48 H142        1.3320   -0.4210   -3.1980 h1        1 PP5      0.079700
     49 HNV        -3.3210   -0.1500   -1.3350 hn        1 PP5      0.327500
     50 HAV        -1.1910    1.1120    0.2900 h1        1 PP5      0.097700
     51 HBV        -1.6940   -1.9400   -0.0420 hc        1 PP5      0.058700
     52 HV11        0.7060   -0.3210    1.0540 hc        1 PP5      0.040533
     53 HV12        0.4080   -2.0670    1.4350 hc        1 PP5      0.040533
     54 HV13        0.6890   -1.5550   -0.2770 hc        1 PP5      0.040533
     55 HV21       -3.0600   -0.9250    1.7650 hc        1 PP5      0.040533
     56 HV22       -1.6940   -1.8690    2.4850 hc        1 PP5      0.040533
     57 HV23       -1.6110   -0.0580    2.4210 hc        1 PP5      0.040533
     58 HNL         0.7940    1.2470   -0.9360 hn        1 PP5      0.344500
     59 HA          4.8530    0.6950   -0.8450 h1        1 PP5      0.089700
     60 HB1         2.9850   -1.1870    0.0920 hc        1 PP5      0.065700
     61 HB2         4.4580   -2.2270   -0.0180 hc        1 PP5      0.065700
     62 HD1         3.6640    1.3630    0.9640 ha        1 PP5      0.165000
     63 HD2         5.6080   -2.3660    2.0080 ha        1 PP5      0.165000
     64 HE1         4.4080    2.3390    3.1430 ha        1 PP5      0.120000
     65 HE2         6.3450   -1.3830    4.1730 ha        1 PP5      0.120000
     66 HZ          5.7460    0.9700    4.7470 ha        1 PP5      0.113000
     67 HS1         8.4580   -1.3550   -2.1050 h1        1 PP5      0.038367
     68 HS2         7.5950   -1.2130   -3.7100 h1        1 PP5      0.038367
     69 HS3         8.5060    0.2410   -3.0310 h1        1 PP5      0.038367
     70 OS          6.7550   -0.1460   -2.1220 os        1 PP5     -0.430900
@<TRIPOS>BOND
     1    1   13 2   
     2    2    3 ar  
     3    2    7 ar  
     4    2   12 1   
     5    3    4 ar  
     6    3   38 1   
     7    4    5 ar  
     8    4   39 1   
     9    5    6 ar  
    10    5   40 1   
    11    6    7 ar  
    12    6   11 ar  
    13    7    8 ar  
    14    8    9 ar  
    15    8   41 1   
    16    9   10 ar  
    17    9   42 1   
    18   10   11 ar  
    19   10   43 1   
    20   11   44 1   
    21   12   13 1   
    22   12   45 1   
    23   12   46 1   
    24   13   15 1   
    25   14   22 1   
    26   14   23 1   
    27   14   47 1   
    28   14   48 1   
    29   15   16 1   
    30   15   49 1   
    31   16   17 1   
    32   16   19 1   
    33   16   50 1   
    34   17   18 2   
    35   17   22 1   
    36   19   20 1   
    37   19   21 1   
    38   19   51 1   
    39   20   52 1   
    40   20   53 1   
    41   20   54 1   
    42   21   55 1   
    43   21   56 1   
    44   21   57 1   
    45   22   58 1   
    46   23   24 1   
    47   23   25 1   
    48   23   36 1   
    49   26   27 1   
    50   26   34 1   
    51   26   36 1   
    52   26   59 1   
    53   27   28 1   
    54   27   60 1   
    55   27   61 1   
    56   28   29 ar  
    57   28   30 ar  
    58   29   31 ar  
    59   29   62 1   
    60   30   32 ar  
    61   30   63 1   
    62   31   33 ar  
    63   31   64 1   
    64   32   33 ar  
    65   32   65 1   
    66   33   66 1   
    67   34   37 2   
    68   34   70 1   
    69   35   67 1   
    70   35   68 1   
    71   35   69 1   
    72   35   70 1   
@<TRIPOS>SUBSTRUCTURE
     1 PP5         1 TEMP              0 ****  ****    0 ROOT
