@<TRIPOS>MOLECULE
PP8
   89    88     1     0     0
SMALL
bcc


@<TRIPOS>ATOM
      1 NV2        -0.0860    0.1260   -6.0080 n         1 PP8     -0.361000
      2 CV1         0.0630   -0.9330   -8.2470 c3        1 PP8     -0.175000
      3 CV6         0.3870    0.4490   -4.6820 c3        1 PP8      0.008000
      4 CV2         0.5200   -0.1080   -9.4420 c3        1 PP8     -0.104000
      5 CV7         0.2990    1.9640   -4.3790 c3        1 PP8     -0.105000
      6 CV3         0.1830   -0.8330  -10.7290 c3        1 PP8     -0.210500
      7 CV8        -1.1280    2.4660   -4.3680 c3        1 PP8     -0.224000
      8 CV4        -0.1130    1.2670   -9.4280 c3        1 PP8     -0.210500
      9 CV9         0.9940    2.2910   -3.0740 c3        1 PP8     -0.224000
     10 CV5         0.7240   -0.4420   -6.9700 c2        1 PP8      0.302000
     11 CR         -0.4210   -0.3430   -3.6180 c2        1 PP8      0.288000
     12 OV1         1.9610   -0.5230   -6.8200 o         1 PP8     -0.378000
     13 OV2        -1.6110   -0.6700   -3.8230 o         1 PP8     -0.399000
     14 N1          0.2550   -0.7250   -2.4820 n         1 PP8     -0.338000
     15 C1         -0.4220   -1.3150   -1.3550 c3        1 PP8      0.015000
     16 C2          0.4610   -2.3470   -0.6300 c3        1 PP8     -0.190000
     17 C4          1.7130   -1.7210   -0.0380 c2        1 PP8      0.292000
     18 O2          2.5540   -1.1470   -0.7730 o         1 PP8     -0.436000
     19 N2          1.9380   -1.8610    1.3020 n         1 PP8     -0.399000
     20 C3         -0.9010   -0.2630   -0.3140 c2        1 PP8      0.274000
     21 O1         -0.4780    0.9140   -0.3300 o         1 PP8     -0.402000
     22 NL         -1.8270   -0.6990    0.6020 n         1 PP8     -0.305000
     23 CAL        -2.1020    0.0150    1.8210 c3        1 PP8     -0.646000
     24 CBL        -3.5380    0.4920    1.9800 c3        1 PP8     -0.130000
     25 CGL        -4.0340    1.4090    0.9030 c3        1 PP8     -0.480000
     26 CL1        -5.4200   -3.0830    5.5040 cl        1 PP8      0.518000
     27 CL2        -3.0370    2.8850    0.6890 cl        1 PP8      0.630000
     28 P          -1.7860   -1.0000    3.1830 p5        1 PP8      2.004000
     29 O3         -0.5900   -1.8190    2.8560 o         1 PP8     -0.854000
     30 O4         -3.0190   -1.6010    3.7250 o         1 PP8     -0.854000
     31 O5         -1.2950    0.1730    4.2600 os        1 PP8     -0.730000
     32 C5          0.0560    0.2710    4.5670 c3        1 PP8      0.103000
     33 C6          0.5990    1.6390    4.1140 c3        1 PP8     -0.148000
     34 C7         -0.0650   -1.3060    7.9500 c3        1 PP8     -0.062000
     35 CE2         1.9780    1.5240    3.5690 ca        1 PP8     -0.074000
     36 CZ          2.1800    1.2260    2.2160 ca        1 PP8     -0.128000
     37 CD2         3.0870    1.7100    4.4040 ca        1 PP8     -0.128000
     38 CE1         3.4730    1.0950    1.7100 ca        1 PP8     -0.141000
     39 CD1         4.5730    1.2840    2.5460 ca        1 PP8     -0.142000
     40 CG          4.3780    1.5950    3.8910 ca        1 PP8     -0.141000
     41 CT          0.2300    0.1300    6.0760 c2        1 PP8      0.297000
     42 OT1        -0.1420   -1.0980    6.5420 os        1 PP8     -0.255000
     43 OT2         0.6800    0.9420    6.8900 o         1 PP8     -0.389000
     44 HNV2       -1.0750    0.0610   -6.1040 hn        1 PP8      0.237000
     45 HV11        0.3840   -2.0010   -8.3830 hc        1 PP8      0.102500
     46 HV12       -1.0550   -0.9170   -8.1810 hc        1 PP8      0.102500
     47 HV6         1.4810    0.1530   -4.6230 h1        1 PP8      0.144000
     48 HV2         1.6400    0.0090   -9.3750 hc        1 PP8      0.112000
     49 HV7         0.8550    2.4920   -5.2080 hc        1 PP8      0.092000
     50 HV31        0.5080   -0.2260  -11.6080 hc        1 PP8      0.074167
     51 HV32        0.7020   -1.8210  -10.7680 hc        1 PP8      0.074167
     52 HV33       -0.9170   -1.0070  -10.8060 hc        1 PP8      0.074167
     53 HV81       -1.1540    3.5300   -4.0310 hc        1 PP8      0.085167
     54 HV82       -1.5770    2.4080   -5.3880 hc        1 PP8      0.085167
     55 HV83       -1.7560    1.8580   -3.6710 hc        1 PP8      0.085167
     56 HV41       -1.2220    1.1930   -9.5310 hc        1 PP8      0.074167
     57 HV42        0.1210    1.7910   -8.4700 hc        1 PP8      0.074167
     58 HV43        0.2800    1.8800  -10.2750 hc        1 PP8      0.074167
     59 HV91        0.3750    1.9860   -2.1920 hc        1 PP8      0.085167
     60 HV92        1.9850    1.7810   -3.0120 hc        1 PP8      0.085167
     61 HV93        1.1620    3.3930   -3.0090 hc        1 PP8      0.085167
     62 HN1         1.1520   -0.3260   -2.2870 hn        1 PP8      0.261000
     63 H1         -1.3380   -1.8530   -1.7540 h1        1 PP8      0.137000
     64 H21        -0.1580   -2.8520    0.1590 hc        1 PP8      0.122500
     65 H22         0.7950   -3.1300   -1.3620 hc        1 PP8      0.122500
     66 HN21        2.6750   -1.3280    1.7030 hn        1 PP8      0.250000
     67 HN22        1.1940   -2.1440    1.9100 hn        1 PP8      0.250000
     68 HNL        -2.0140   -1.6760    0.6470 hn        1 PP8      0.219000
     69 HAL        -1.4290    0.9220    1.8520 h1        1 PP8      0.132000
     70 HBL1       -4.2040   -0.4120    2.0490 hc        1 PP8      0.097500
     71 HBL2       -3.5800    0.9970    2.9840 hc        1 PP8      0.097500
     72 HGL        -4.0600    0.8800   -0.0770 h1        1 PP8      0.086000
     73 HL11       -6.3680   -3.4050    4.5790 ha        1 PP8     -0.176000
     74 HL12       -5.1480   -3.1810    6.8390 ha        1 PP8     -0.176000
     75 HL13       -4.4060   -2.4540    4.8980 ha        1 PP8     -0.176000
     76 HL21       -1.7640    2.7290    0.3340 ha        1 PP8     -0.170000
     77 HL22       -5.0660    1.7560    1.1440 h1        1 PP8      0.086000
     78 HL23       -3.3710    4.1850    0.8020 ha        1 PP8     -0.170000
     79 H5          0.6330   -0.5750    4.0780 h1        1 PP8      0.144000
     80 H61        -0.0870    2.0540    3.3280 hc        1 PP8      0.108500
     81 H62         0.5820    2.3550    4.9780 hc        1 PP8      0.108500
     82 H71        -0.4630   -2.3410    8.0880 h1        1 PP8      0.081333
     83 H72         0.9960   -1.2280    8.2900 h1        1 PP8      0.081333
     84 H73        -0.6920   -0.5540    8.4850 h1        1 PP8      0.081333
     85 HZ          1.3120    1.0910    1.5460 ha        1 PP8      0.149000
     86 HD2         2.9280    1.9370    5.4700 ha        1 PP8      0.149000
     87 HE1         3.6140    0.8280    0.6490 ha        1 PP8      0.135500
     88 HD1         5.5910    1.1850    2.1440 ha        1 PP8      0.121000
     89 HG          5.2440    1.7440    4.5520 ha        1 PP8      0.135500
@<TRIPOS>BOND
     1    1    3 1   
     2    1   10 1   
     3    1   44 1   
     4    2    4 1   
     5    2   10 1   
     6    2   45 1   
     7    2   46 1   
     8    3    5 1   
     9    3   11 1   
    10    3   47 1   
    11    4    6 1   
    12    4    8 1   
    13    4   48 1   
    14    5    7 1   
    15    5    9 1   
    16    5   49 1   
    17    6   50 1   
    18    6   51 1   
    19    6   52 1   
    20    7   53 1   
    21    7   54 1   
    22    7   55 1   
    23    8   56 1   
    24    8   57 1   
    25    8   58 1   
    26    9   59 1   
    27    9   60 1   
    28    9   61 1   
    29   10   12 1   
    30   11   13 1   
    31   11   14 1   
    32   14   15 1   
    33   14   62 1   
    34   15   16 1   
    35   15   20 1   
    36   15   63 1   
    37   16   17 1   
    38   16   64 1   
    39   16   65 1   
    40   17   18 1   
    41   17   19 1   
    42   19   66 1   
    43   19   67 1   
    44   20   21 1   
    45   20   22 1   
    46   22   23 1   
    47   22   68 1   
    48   23   24 1   
    49   23   28 1   
    50   23   69 1   
    51   24   25 1   
    52   24   70 1   
    53   24   71 1   
    54   25   27 1   
    55   25   72 1   
    56   25   77 1   
    57   26   73 1   
    58   26   74 1   
    59   26   75 1   
    60   27   76 1   
    61   27   78 1   
    62   28   29 1   
    63   28   30 1   
    64   28   31 1   
    65   31   32 1   
    66   32   33 1   
    67   32   41 1   
    68   32   79 1   
    69   33   35 1   
    70   33   80 1   
    71   33   81 1   
    72   34   42 1   
    73   34   82 1   
    74   34   83 1   
    75   34   84 1   
    76   35   36 1   
    77   35   37 1   
    78   36   38 1   
    79   36   85 1   
    80   37   40 1   
    81   37   86 1   
    82   38   39 1   
    83   38   87 1   
    84   39   40 1   
    85   39   88 1   
    86   40   89 1   
    87   41   42 1   
    88   41   43 1   
@<TRIPOS>SUBSTRUCTURE
     1 PP8         1 TEMP              0 ****  ****    0 ROOT
