@<TRIPOS>MOLECULE
PP9
   74    78     1     0     0
SMALL
bcc


@<TRIPOS>ATOM
      1 CHA        30.9020    0.0630   30.9560 ce        1 PP9     -0.023200
      2 CHB        35.8430    0.5390   30.8350 ce        1 PP9      0.074800
      3 CHC        36.0240    0.1040   35.7050 ce        1 PP9     -0.265600
      4 CHD        31.1570   -0.3730   35.8210 ce        1 PP9     -0.260600
      5 NA         33.3800    0.2750   31.2330 na        1 PP9     -0.111100
      6 C1A        32.2350    0.2470   30.4560 cc        1 PP9     -0.037100
      7 C2A        32.6250    0.4180   29.0760 cd        1 PP9     -0.098300
      8 C3A        34.0330    0.5410   29.0540 cd        1 PP9     -0.056300
      9 C4A        34.5010    0.4540   30.4160 cc        1 PP9     -0.156100
     10 CMA        34.8840    0.7200   27.8770 c3        1 PP9     -0.075800
     11 CAA        31.7490    0.4470   27.8920 c3        1 PP9     -0.018100
     12 CBA        31.7380    1.7940   27.1910 c3        1 PP9     -0.193400
     13 CGA        32.0820    1.6990   25.6940 c         1 PP9      0.905600
     14 O1A        31.5460    2.5380   24.9150 o         1 PP9     -0.853300
     15 O2A        32.9070    0.8170   25.3050 o         1 PP9     -0.853300
     16 NB         35.5620    0.2880   33.2860 nd        1 PP9     -0.600300
     17 C1B        36.3310    0.4700   32.1170 cd        1 PP9     -0.008400
     18 C2B        37.7540    0.5850   32.4980 cd        1 PP9     -0.072200
     19 C3B        37.8070    0.4890   33.8800 cc        1 PP9     -0.235600
     20 C4B        36.4040    0.2940   34.3340 cc        1 PP9      0.467900
     21 CMB        38.8500    0.7820   31.5490 c3        1 PP9     -0.038900
     22 CAB        38.9850    0.5560   34.7010 ce        1 PP9     -0.068000
     23 CBB        39.0830    1.1800   35.8770 c2        1 PP9     -0.254000
     24 NC         33.5680   -0.0110   35.4030 na        1 PP9     -0.611800
     25 C1C        34.7480   -0.0420   36.1590 cd        1 PP9      0.154000
     26 C2C        34.3390   -0.2590   37.5770 cd        1 PP9     -0.078200
     27 C3C        32.9710   -0.3930   37.6150 cc        1 PP9     -0.070000
     28 C4C        32.4540   -0.2630   36.2170 cc        1 PP9      0.162000
     29 CMC        35.2950   -0.2890   38.6850 c3        1 PP9     -0.042900
     30 CAC        32.0950   -0.6020   38.7350 ce        1 PP9     -0.092000
     31 CBC        32.4410   -1.1910   39.8840 c2        1 PP9     -0.229000
     32 ND         31.4210   -0.1040   33.3720 nd        1 PP9     -0.655300
     33 C1D        30.6800   -0.2860   34.4690 cc        1 PP9      0.502900
     34 C2D        29.2290   -0.4110   34.1290 cc        1 PP9     -0.235800
     35 C3D        29.1350   -0.3010   32.7610 cd        1 PP9     -0.047200
     36 C4D        30.5330   -0.0990   32.2540 cd        1 PP9      0.085600
     37 CMD        28.1590   -0.6040   35.1050 c3        1 PP9     -0.062900
     38 CAD        27.9110   -0.3530   31.9460 c3        1 PP9     -0.032200
     39 CBD        27.2190   -1.7040   31.9950 c3        1 PP9     -0.191400
     40 CGD        25.7650   -1.6270   32.4930 c         1 PP9      0.905600
     41 O1D        25.4300   -0.6980   33.2880 o         1 PP9     -0.853300
     42 O2D        24.9670   -2.5270   32.1030 o         1 PP9     -0.853300
     43 HHA        30.1160    0.0550   30.1770 ha        1 PP9      0.164000
     44 HHB        36.5740    0.6830   30.0150 ha        1 PP9      0.137000
     45 HHC        36.8520    0.0620   36.4300 ha        1 PP9      0.136000
     46 HHD        30.3780   -0.5560   36.5780 ha        1 PP9      0.145000
     47 HNA        33.4070    0.1860   32.2210 hn        1 PP9      0.338700
     48 HMA1       35.6300   -0.1110   27.8020 hc        1 PP9      0.065367
     49 HMA2       34.2590    0.7320   26.9350 hc        1 PP9      0.065367
     50 HMA3       35.4440    1.6860   27.9420 hc        1 PP9      0.065367
     51 HAA1       32.1220   -0.3290   27.1600 hc        1 PP9      0.057200
     52 HAA2       30.7030    0.1600   28.1780 hc        1 PP9      0.057200
     53 HBA1       30.7340    2.2730   27.2990 hc        1 PP9      0.032200
     54 HBA2       32.4930    2.4820   27.6510 hc        1 PP9      0.032200
     55 HMB1       39.8430    0.6570   32.0490 hc        1 PP9      0.039367
     56 HMB2       38.7810    0.0460   30.7090 hc        1 PP9      0.039367
     57 HMB3       38.8040    1.8120   31.1120 hc        1 PP9      0.039367
     58 HAB        39.8710    0.0520   34.2700 ha        1 PP9      0.106000
     59 HBB1       38.2470    1.7230   36.3360 ha        1 PP9      0.105500
     60 HBB2       40.0180    1.1910   36.4500 ha        1 PP9      0.105500
     61 HNC        33.5390    0.0130   34.4120 hn        1 PP9      0.501800
     62 HMC1       34.8180    0.0770   39.6300 hc        1 PP9      0.044700
     63 HMC2       35.6550   -1.3370   38.8580 hc        1 PP9      0.044700
     64 HMC3       36.1840    0.3530   38.4650 hc        1 PP9      0.044700
     65 HAC        31.0600   -0.2390   38.5870 ha        1 PP9      0.135000
     66 HBC1       33.4430   -1.5960   40.0720 ha        1 PP9      0.108000
     67 HBC2       31.7240   -1.3180   40.7050 ha        1 PP9      0.108000
     68 HMD1       27.1570   -0.6420   34.5850 hc        1 PP9      0.057700
     69 HMD2       28.3070   -1.5620   35.6640 hc        1 PP9      0.057700
     70 HMD3       28.1480    0.2340   35.8470 hc        1 PP9      0.057700
     71 HAD1       27.1910    0.4230   32.3430 hc        1 PP9      0.059700
     72 HAD2       28.1440   -0.0840   30.8820 hc        1 PP9      0.059700
     73 HBD1       27.2220   -2.1700   30.9780 hc        1 PP9      0.032700
     74 HBD2       27.7590   -2.3990   32.6880 hc        1 PP9      0.032700
@<TRIPOS>BOND
     1    1    6 1   
     2    1   36 2   
     3    1   43 1   
     4    2    9 1   
     5    2   17 2   
     6    2   44 1   
     7    3   20 1   
     8    3   25 2   
     9    3   45 1   
    10    4   28 2   
    11    4   33 1   
    12    4   46 1   
    13    5    6 1   
    14    5    9 1   
    15    5   47 1   
    16    6    7 2   
    17    7    8 1   
    18    7   11 1   
    19    8    9 2   
    20    8   10 1   
    21   10   48 1   
    22   10   49 1   
    23   10   50 1   
    24   11   12 1   
    25   11   51 1   
    26   11   52 1   
    27   12   13 1   
    28   12   53 1   
    29   12   54 1   
    30   13   14 1   
    31   13   15 1   
    32   16   17 1   
    33   16   20 2   
    34   17   18 1   
    35   18   19 2   
    36   18   21 1   
    37   19   20 1   
    38   19   22 1   
    39   21   55 1   
    40   21   56 1   
    41   21   57 1   
    42   22   23 2   
    43   22   58 1   
    44   23   59 1   
    45   23   60 1   
    46   24   25 1   
    47   24   28 1   
    48   24   61 1   
    49   25   26 1   
    50   26   27 2   
    51   26   29 1   
    52   27   28 1   
    53   27   30 1   
    54   29   62 1   
    55   29   63 1   
    56   29   64 1   
    57   30   31 2   
    58   30   65 1   
    59   31   66 1   
    60   31   67 1   
    61   32   33 2   
    62   32   36 1   
    63   33   34 1   
    64   34   35 2   
    65   34   37 1   
    66   35   36 1   
    67   35   38 1   
    68   37   68 1   
    69   37   69 1   
    70   37   70 1   
    71   38   39 1   
    72   38   71 1   
    73   38   72 1   
    74   39   40 1   
    75   39   73 1   
    76   39   74 1   
    77   40   41 1   
    78   40   42 1   
@<TRIPOS>SUBSTRUCTURE
     1 PP9         1 TEMP              0 ****  ****    0 ROOT
