@<TRIPOS>MOLECULE
PP9
   74    84     1     0     0
SMALL
bcc


@<TRIPOS>ATOM
      1 CHA         0.0000    0.0000    0.0000 c2        1 PP9     -0.167000
      2 CHB         4.4850    0.0560   -1.6100 c2        1 PP9     -0.220000
      3 CHC         2.8090   -0.5320   -6.0150 c2        1 PP9     -0.287000
      4 CHD        -1.6510   -0.1680   -4.4720 c2        1 PP9     -0.318000
      5 NA          2.1030    0.0110   -1.1650 n7        1 PP9      0.138000
      6 C1A         1.3850    0.0000    0.0000 c2        1 PP9     -0.011000
      7 C2A         2.2820    0.0000    1.1760 c2        1 PP9     -0.028000
      8 C3A         3.5320    0.0540    0.6840 c2        1 PP9     -0.058000
      9 C4A         3.4170    0.0520   -0.7560 c3        1 PP9     -0.137000
     10 CMA         4.8180    0.1150    1.5040 c3        1 PP9     -0.038000
     11 CAA         1.9660   -0.0520    2.6740 c3        1 PP9     -0.027000
     12 CBA         2.5250   -1.2240    3.4680 c3        1 PP9     -0.184000
     13 CGA         2.2420   -1.2800    4.9590 c2        1 PP9      0.442000
     14 O1A         1.8080   -2.3360    5.4190 o         1 PP9     -0.630500
     15 O2A         2.4810   -0.2980    5.6620 o         1 PP9     -0.630500
     16 NB          3.2130   -0.0430   -3.6740 n2        1 PP9     -0.383000
     17 C1B         4.3870    0.0110   -2.9700 c3        1 PP9     -0.023000
     18 C2B         5.5030   -0.1230   -3.8520 c2        1 PP9     -0.074000
     19 C3B         5.0360   -0.1970   -5.0900 c2        1 PP9     -0.081000
     20 C4B         3.6200   -0.1790   -4.9800 c3        1 PP9      0.001000
     21 CMB         6.9390   -0.3600   -3.4890 c3        1 PP9     -0.039000
     22 CAB         5.7730   -0.3950   -6.2270 c2        1 PP9     -0.052000
     23 CBB         5.9680   -1.7460   -6.6530 c2        1 PP9     -0.165000
     24 NC          0.7340   -0.4030   -4.7810 n7        1 PP9      0.100000
     25 C1C         1.4710   -0.7120   -5.8900 c3        1 PP9     -0.142000
     26 C2C         0.6560   -0.9010   -7.0200 c2        1 PP9     -0.042000
     27 C3C        -0.5720   -0.4750   -6.6960 c2        1 PP9     -0.064000
     28 C4C        -0.5500   -0.3260   -5.2610 c3        1 PP9     -0.038000
     29 CMC         1.1110   -1.5700   -8.2920 c3        1 PP9     -0.028000
     30 CAC        -1.4180    0.1520   -7.5750 c2        1 PP9     -0.044000
     31 CBC        -0.9090    1.3330   -8.2580 c2        1 PP9     -0.173000
     32 ND         -0.4550   -0.0390   -2.3660 n2        1 PP9     -0.447000
     33 C1D        -1.6150   -0.0440   -3.1120 c3        1 PP9      0.092000
     34 C2D        -2.7880    0.0190   -2.2760 c2        1 PP9     -0.136000
     35 C3D        -2.3520    0.0310   -1.0090 c2        1 PP9     -0.028000
     36 C4D        -0.8820   -0.0090   -1.0690 c2        1 PP9      0.102000
     37 CMD        -4.2480    0.0610   -2.7190 c3        1 PP9     -0.032000
     38 CAD        -3.2900   -0.0250    0.1880 c3        1 PP9     -0.040000
     39 CBD        -4.1650    1.1720    0.5230 c3        1 PP9     -0.175000
     40 CGD        -5.1400    0.8500    1.6420 c2        1 PP9      0.428000
     41 O1D        -6.3370    0.7220    1.3770 o         1 PP9     -0.629500
     42 O2D        -4.6930    0.7170    2.7830 o         1 PP9     -0.629500
     43 HHA         0.4620   -0.0090   -0.9800 ha        1 PP9      0.142000
     44 HHB         3.4930    0.0140   -2.0430 DU        1 PP9      0.253000
     45 HHC         2.3620   -0.3870   -5.0400 DU        1 PP9      0.286000
     46 HHD        -0.6820   -0.1970   -3.9880 DU        1 PP9      0.247000
     47 HNA         1.7580    0.2790   -2.0660 hn        1 PP9      0.169000
     48 HMA1        5.5940    0.6010    0.9250 hc        1 PP9      0.059000
     49 HMA2        5.1330   -0.8900    1.7580 hc        1 PP9      0.059000
     50 HMA3        4.6400    0.6780    2.4130 hc        1 PP9      0.059000
     51 HAA1        2.3400    0.8610    3.1230 hc        1 PP9      0.077000
     52 HAA2        0.8880   -0.0610    2.7850 hc        1 PP9      0.077000
     53 HBA1        2.1380   -2.1340    3.0260 hc        1 PP9      0.036500
     54 HBA2        3.6010   -1.2240    3.3390 hc        1 PP9      0.036500
     55 HMB1        7.5740   -0.0490   -4.3100 hc        1 PP9      0.048000
     56 HMB2        7.0920   -1.4140   -3.2920 hc        1 PP9      0.048000
     57 HMB3        7.1870    0.2130   -2.6040 hc        1 PP9      0.048000
     58 HAB         6.1930    0.4340   -6.7830 ha        1 PP9      0.103000
     59 HBB1        5.5390   -2.5620   -6.0830 ha        1 PP9      0.079500
     60 HBB2        6.5440   -1.9550   -7.5470 ha        1 PP9      0.079500
     61 HNC         0.9980   -0.5800   -3.8320 hn        1 PP9      0.171000
     62 HMC1        1.6810   -2.4590   -8.0480 hc        1 PP9      0.048667
     63 HMC2        1.7330   -0.8870   -8.8570 hc        1 PP9      0.048667
     64 HMC3        0.2470   -1.8460   -8.8840 hc        1 PP9      0.048667
     65 HAC        -2.4230   -0.2110   -7.7560 ha        1 PP9      0.110000
     66 HBC1        0.0990    1.6800   -8.0630 ha        1 PP9      0.084000
     67 HBC2       -1.5380    1.8650   -8.9620 ha        1 PP9      0.084000
     68 HMD1       -4.6200    1.0750   -2.6440 hc        1 PP9      0.055333
     69 HMD2       -4.8370   -0.5880   -2.0830 hc        1 PP9      0.055333
     70 HMD3       -4.3230   -0.2760   -3.7460 hc        1 PP9      0.055333
     71 HAD1       -2.6830   -0.2330    1.0610 hc        1 PP9      0.074500
     72 HAD2       -3.9490   -0.8720    0.0390 hc        1 PP9      0.074500
     73 HBD1       -4.7220    1.4620   -0.3600 hc        1 PP9      0.039000
     74 HBD2       -3.5330    1.9970    0.8300 hc        1 PP9      0.039000
@<TRIPOS>BOND
     1    1    6 1   
     2    1   36 1   
     3    1   43 1   
     4    2    9 1   
     5    2   17 1   
     6    2   44 1   
     7    3   20 1   
     8    3   25 1   
     9    3   45 1   
    10    4   28 1   
    11    4   33 1   
    12    4   46 1   
    13    5    6 1   
    14    5    9 1   
    15    5   47 1   
    16    6    7 1   
    17    7    8 1   
    18    7   11 1   
    19    8    9 1   
    20    8   10 1   
    21    9   44 1   
    22   10   48 1   
    23   10   49 1   
    24   10   50 1   
    25   11   12 1   
    26   11   51 1   
    27   11   52 1   
    28   12   13 1   
    29   12   53 1   
    30   12   54 1   
    31   13   14 1   
    32   13   15 1   
    33   16   17 1   
    34   16   20 1   
    35   17   18 1   
    36   17   44 1   
    37   18   19 1   
    38   18   21 1   
    39   19   20 1   
    40   19   22 1   
    41   20   45 1   
    42   21   55 1   
    43   21   56 1   
    44   21   57 1   
    45   22   23 1   
    46   22   58 1   
    47   23   59 1   
    48   23   60 1   
    49   24   25 1   
    50   24   28 1   
    51   24   61 1   
    52   25   26 1   
    53   25   45 1   
    54   26   27 1   
    55   26   29 1   
    56   27   28 1   
    57   27   30 1   
    58   28   46 1   
    59   29   62 1   
    60   29   63 1   
    61   29   64 1   
    62   30   31 1   
    63   30   65 1   
    64   31   66 1   
    65   31   67 1   
    66   32   33 1   
    67   32   36 1   
    68   33   34 1   
    69   33   46 1   
    70   34   35 1   
    71   34   37 1   
    72   35   36 1   
    73   35   38 1   
    74   37   68 1   
    75   37   69 1   
    76   37   70 1   
    77   38   39 1   
    78   38   71 1   
    79   38   72 1   
    80   39   40 1   
    81   39   73 1   
    82   39   74 1   
    83   40   41 1   
    84   40   42 1   
@<TRIPOS>SUBSTRUCTURE
     1 PP9         1 TEMP              0 ****  ****    0 ROOT
