@<TRIPOS>MOLECULE
PP9
   74    78     1     0     0
SMALL
bcc


@<TRIPOS>ATOM
      1 CHA        -0.8650   -1.5830   -0.9510 ce        1 PP9     -0.016200
      2 CHB         3.6570    0.1990   -1.1700 ce        1 PP9      0.103800
      3 CHC         2.2030    1.1430   -5.7060 ce        1 PP9     -0.249600
      4 CHD        -2.0560    0.2470   -5.0740 ce        1 PP9     -0.238600
      5 NA          1.2140   -0.3070   -1.0450 na        1 PP9     -0.118100
      6 C1A         0.4060   -1.2130   -0.3690 cc        1 PP9     -0.049100
      7 C2A         1.1880   -1.8280    0.6570 cd        1 PP9     -0.105300
      8 C3A         2.5000   -1.2850    0.5660 cd        1 PP9     -0.050300
      9 C4A         2.5180   -0.3770   -0.5470 cc        1 PP9     -0.164100
     10 CMA         3.6310   -1.6230    1.4320 c3        1 PP9     -0.072800
     11 CAA         0.7450   -2.8570    1.6140 c3        1 PP9     -0.010100
     12 CBA         1.2760   -4.2390    1.2760 c3        1 PP9     -0.193400
     13 CGA         1.9380   -4.9270    2.4810 c         1 PP9      0.906600
     14 O1A         1.6250   -6.1280    2.7250 o         1 PP9     -0.855300
     15 O2A         2.7900   -4.2780    3.1590 o         1 PP9     -0.855300
     16 NB          2.6660    0.5460   -3.4060 nd        1 PP9     -0.561300
     17 C1B         3.7330    0.6250   -2.4720 cd        1 PP9     -0.025400
     18 C2B         4.9120    1.1850   -3.1650 cd        1 PP9     -0.066200
     19 C3B         4.5380    1.4100   -4.4850 cc        1 PP9     -0.224600
     20 C4B         3.1180    0.9910   -4.5840 cc        1 PP9      0.459900
     21 CMB         6.2010    1.4190   -2.5140 c3        1 PP9     -0.040900
     22 CAB         5.3550    1.9380   -5.5390 ce        1 PP9     -0.074000
     23 CBB         5.0900    1.8570   -6.8460 c2        1 PP9     -0.251000
     24 NC         -0.0640    0.4830   -6.5540 na        1 PP9     -0.585800
     25 C1C         1.2280    0.2300   -5.9330 cd        1 PP9      0.109000
     26 C2C         1.1570   -1.1570   -5.3920 cd        1 PP9     -0.039200
     27 C3C        -0.1730   -1.4740   -5.2600 cc        1 PP9     -0.036000
     28 C4C        -0.9480   -0.2670   -5.6660 cc        1 PP9      0.104000
     29 CMC         2.3200   -2.0080   -5.1350 c3        1 PP9     -0.046900
     30 CAC        -0.7180   -2.7560   -4.8980 ce        1 PP9     -0.094000
     31 CBC        -1.9210   -3.2030   -5.2640 c2        1 PP9     -0.189000
     32 ND         -2.1610   -1.1360   -2.9700 nd        1 PP9     -0.580300
     33 C1D        -2.2880   -0.0100   -3.6620 cc        1 PP9      0.470900
     34 C2D        -2.1980    1.2110   -2.7810 cc        1 PP9     -0.224800
     35 C3D        -1.7460    0.7630   -1.5660 cd        1 PP9     -0.064200
     36 C4D        -1.6180   -0.7260   -1.6910 cd        1 PP9      0.066600
     37 CMD        -2.5430    2.5520   -3.2480 c3        1 PP9     -0.056900
     38 CAD        -1.5570    1.4800   -0.2950 c3        1 PP9     -0.030200
     39 CBD        -0.9340    2.8570   -0.4180 c3        1 PP9     -0.194400
     40 CGD        -1.9480    3.9860   -0.1650 c         1 PP9      0.902600
     41 O1D        -1.9840    4.9430   -0.9950 o         1 PP9     -0.853800
     42 O2D        -2.6960    3.9220    0.8530 o         1 PP9     -0.853800
     43 HHA        -1.0570   -2.6710   -0.9650 ha        1 PP9      0.156000
     44 HHB         4.5710    0.2400   -0.5490 ha        1 PP9      0.135000
     45 HHC         2.2400    2.1110   -6.2270 ha        1 PP9      0.138000
     46 HHD        -2.5990    1.1050   -5.4990 ha        1 PP9      0.139000
     47 HNA         0.9040    0.2750   -1.7880 hn        1 PP9      0.331700
     48 HMA1        3.7950   -0.8090    2.1840 hc        1 PP9      0.064033
     49 HMA2        4.5700   -1.7440    0.8380 hc        1 PP9      0.064033
     50 HMA3        3.4230   -2.5830    1.9920 hc        1 PP9      0.064033
     51 HAA1        1.1130   -2.5720    2.6410 hc        1 PP9      0.054200
     52 HAA2       -0.3760   -2.8780    1.6490 hc        1 PP9      0.054200
     53 HBA1        0.4450   -4.8850    0.8970 hc        1 PP9      0.027700
     54 HBA2        2.0520   -4.1750    0.4710 hc        1 PP9      0.027700
     55 HMB1        6.9260    1.9130   -3.2060 hc        1 PP9      0.040033
     56 HMB2        6.6450    0.4480   -2.1730 hc        1 PP9      0.040033
     57 HMB3        6.0680    2.0720   -1.6140 hc        1 PP9      0.040033
     58 HAB         6.2800    2.4410   -5.1980 ha        1 PP9      0.105000
     59 HBB1        4.1940    1.3600   -7.2420 ha        1 PP9      0.108000
     60 HBB2        5.7600    2.2870   -7.5990 ha        1 PP9      0.108000
     61 HNC        -0.2910    1.4580   -6.5910 hn        1 PP9      0.378800
     62 HMC1        2.3730   -2.2690   -4.0450 hc        1 PP9      0.053033
     63 HMC2        3.2690   -1.4910   -5.4200 hc        1 PP9      0.053033
     64 HMC3        2.2380   -2.9610   -5.7170 hc        1 PP9      0.053033
     65 HAC        -0.0430   -3.3810   -4.2840 ha        1 PP9      0.129000
     66 HBC1       -2.6240   -2.6000   -5.8510 ha        1 PP9      0.107500
     67 HBC2       -2.2840   -4.1950   -4.9660 ha        1 PP9      0.107500
     68 HMD1       -1.7850    2.9100   -3.9910 hc        1 PP9      0.057700
     69 HMD2       -2.5710    3.2920   -2.4000 hc        1 PP9      0.057700
     70 HMD3       -3.5440    2.5420   -3.7500 hc        1 PP9      0.057700
     71 HAD1       -0.9350    0.8430    0.3920 hc        1 PP9      0.064700
     72 HAD2       -2.5660    1.5940    0.2010 hc        1 PP9      0.064700
     73 HBD1       -0.4720    2.9980   -1.4270 hc        1 PP9      0.031700
     74 HBD2       -0.1240    2.9630    0.3480 hc        1 PP9      0.031700
@<TRIPOS>BOND
     1    1    6 1   
     2    1   36 2   
     3    1   43 1   
     4    2    9 1   
     5    2   17 2   
     6    2   44 1   
     7    3   20 1   
     8    3   25 2   
     9    3   45 1   
    10    4   28 2   
    11    4   33 1   
    12    4   46 1   
    13    5    6 1   
    14    5    9 1   
    15    5   47 1   
    16    6    7 2   
    17    7    8 1   
    18    7   11 1   
    19    8    9 2   
    20    8   10 1   
    21   10   48 1   
    22   10   49 1   
    23   10   50 1   
    24   11   12 1   
    25   11   51 1   
    26   11   52 1   
    27   12   13 1   
    28   12   53 1   
    29   12   54 1   
    30   13   14 1   
    31   13   15 1   
    32   16   17 1   
    33   16   20 2   
    34   17   18 1   
    35   18   19 2   
    36   18   21 1   
    37   19   20 1   
    38   19   22 1   
    39   21   55 1   
    40   21   56 1   
    41   21   57 1   
    42   22   23 2   
    43   22   58 1   
    44   23   59 1   
    45   23   60 1   
    46   24   25 1   
    47   24   28 1   
    48   24   61 1   
    49   25   26 1   
    50   26   27 2   
    51   26   29 1   
    52   27   28 1   
    53   27   30 1   
    54   29   62 1   
    55   29   63 1   
    56   29   64 1   
    57   30   31 2   
    58   30   65 1   
    59   31   66 1   
    60   31   67 1   
    61   32   33 2   
    62   32   36 1   
    63   33   34 1   
    64   34   35 2   
    65   34   37 1   
    66   35   36 1   
    67   35   38 1   
    68   37   68 1   
    69   37   69 1   
    70   37   70 1   
    71   38   39 1   
    72   38   71 1   
    73   38   72 1   
    74   39   40 1   
    75   39   73 1   
    76   39   74 1   
    77   40   41 1   
    78   40   42 1   
@<TRIPOS>SUBSTRUCTURE
     1 PP9         1 TEMP              0 ****  ****    0 ROOT
