@<TRIPOS>MOLECULE
PPC
   32    32     1     0     0
SMALL
bcc


@<TRIPOS>ATOM
      1 C1          0.7870   -0.7400   -0.0490 c3        1 PPC      0.367900
      2 C2          2.1450   -0.5530   -0.8050 c3        1 PPC      0.067100
      3 C3          1.8510    0.6180   -1.7720 c3        1 PPC      0.112100
      4 C4          0.3400    0.4890   -2.0510 c3        1 PPC      0.100100
      5 C5          0.0350   -0.1740   -3.4130 c3        1 PPC      0.199400
      6 O1          0.6990    0.0460    1.0630 os        1 PPC     -0.601200
      7 O2          3.2520   -0.2740    0.0100 oh        1 PPC     -0.672800
      8 O3          2.1560    1.8620   -1.1590 oh        1 PPC     -0.640800
      9 P          -0.1740    0.1140   -6.0030 p5        1 PPC      1.327900
     10 O1P        -1.6550   -0.1690   -5.9050 o         1 PPC     -0.954500
     11 O2P         0.1730    1.2730   -6.9110 o         1 PPC     -0.954500
     12 O3P         0.6850   -1.1120   -6.2120 o         1 PPC     -0.954500
     13 PA          0.8120   -0.7430    2.6190 p5        1 PPC      1.471600
     14 O1A         0.1110   -2.0340    2.3560 o         1 PPC     -0.930000
     15 O2A         2.3110   -0.8280    2.6380 o         1 PPC     -0.930000
     16 PB         -0.1650    0.5410    5.6950 p5        1 PPC      1.234700
     17 O1B         0.5530    1.8360    5.9660 o         1 PPC     -0.942167
     18 O2B         0.4000   -0.6420    6.4270 o         1 PPC     -0.942167
     19 O3B        -1.6620    0.6630    5.7900 o         1 PPC     -0.942167
     20 C3A         0.1160    0.3030    3.6240 c3        1 PPC     -0.622800
     21 O5          0.2730    0.7050   -4.4550 os        1 PPC     -0.583200
     22 O4         -0.2230   -0.2900   -0.9790 os        1 PPC     -0.465600
     23 H1          0.5560   -1.8170    0.1810 h2        1 PPC      0.074700
     24 H2          2.3810   -1.4790   -1.3950 h1        1 PPC      0.016700
     25 H3          2.4470    0.5920   -2.7160 h1        1 PPC      0.072700
     26 H4         -0.1500    1.4980   -2.0090 h1        1 PPC      0.039700
     27 H51         0.6780   -1.0910   -3.5340 h1        1 PPC      0.000200
     28 H52        -1.0440   -0.4970   -3.4300 h1        1 PPC      0.000200
     29 HO2         2.9340   -0.2590    0.9470 ho        1 PPC      0.484000
     30 HO3         1.8370    1.7860   -0.2460 ho        1 PPC      0.424000
     31 H3A1        0.5790    1.3040    3.5870 hc        1 PPC      0.071700
     32 H3A2       -0.9750    0.3760    3.4780 hc        1 PPC      0.071700
@<TRIPOS>BOND
     1    1    2 1   
     2    1    6 1   
     3    1   22 1   
     4    1   23 1   
     5    2    3 1   
     6    2    7 1   
     7    2   24 1   
     8    3    4 1   
     9    3    8 1   
    10    3   25 1   
    11    4    5 1   
    12    4   22 1   
    13    4   26 1   
    14    5   21 1   
    15    5   27 1   
    16    5   28 1   
    17    6   13 1   
    18    7   29 1   
    19    8   30 1   
    20    9   10 1   
    21    9   11 1   
    22    9   12 1   
    23    9   21 1   
    24   13   14 1   
    25   13   15 1   
    26   13   20 1   
    27   16   17 1   
    28   16   18 1   
    29   16   19 1   
    30   16   20 1   
    31   20   31 1   
    32   20   32 1   
@<TRIPOS>SUBSTRUCTURE
     1 PPC         1 TEMP              0 ****  ****    0 ROOT
