@<TRIPOS>MOLECULE
PPC
   32    31     1     0     0
SMALL
bcc


@<TRIPOS>ATOM
      1 C1         -0.4970    0.1260    0.4740 c3        1 PPC      0.185000
      2 C2          1.0630    0.1370    0.5970 c3        1 PPC     -0.044000
      3 C3          1.3080   -0.4300    2.0160 c3        1 PPC      0.001000
      4 C4          0.0470   -0.0090    2.7980 c3        1 PPC     -0.011000
      5 C5          0.2840    1.2280    3.6960 c3        1 PPC      0.049000
      6 O1         -0.9730   -1.0590   -0.0080 os        1 PPC     -0.763000
      7 O2          1.7470   -0.6110   -0.3740 oh        1 PPC     -0.400000
      8 O3          1.4380   -1.8440    1.9740 oh        1 PPC     -0.368000
      9 P           1.2060    2.1610    5.9560 p5        1 PPC      1.561500
     10 O1P        -0.1980    2.5460    6.3590 o         1 PPC     -0.954500
     11 O2P         2.0040    1.5010    7.0600 o         1 PPC     -0.954500
     12 O3P         1.9610    3.2360    5.2090 o         1 PPC     -0.954500
     13 PA         -1.5930   -1.0740   -1.6430 p5        1 PPC      2.113000
     14 O1A        -2.2320    0.2730   -1.7370 o         1 PPC     -0.930000
     15 O2A        -0.2550   -1.1880   -2.3120 o         1 PPC     -0.930000
     16 PB         -3.6510   -3.4730   -3.0820 p3        1 PPC      2.601000
     17 O1B        -3.0010   -4.8290   -2.9990 o         1 PPC     -1.261667
     18 O2B        -3.5530   -2.8230   -4.4320 o         1 PPC     -1.261667
     19 O3B        -5.0330   -3.4430   -2.4850 o         1 PPC     -1.261667
     20 C3A        -2.5500   -2.3660   -1.6720 c2        1 PPC     -1.517000
     21 O5          1.0130    0.8880    4.8210 os        1 PPC     -0.745000
     22 O4         -0.9800    0.2680    1.8280 os        1 PPC     -0.322000
     23 H1         -0.8990    1.0040   -0.1040 h2        1 PPC      0.114000
     24 H2          1.4410    1.1920    0.5430 h1        1 PPC      0.056000
     25 H3          2.2400   -0.0550    2.5030 h1        1 PPC      0.112000
     26 H4         -0.3220   -0.8610    3.4270 h1        1 PPC      0.079000
     27 H51        -0.7130    1.6510    4.0050 h1        1 PPC      0.039500
     28 H52         0.8340    2.0160    3.1080 h1        1 PPC      0.039500
     29 HO2         1.0680   -1.0070   -0.9750 ho        1 PPC      0.283000
     30 HO3         0.7590   -2.1480    1.3510 ho        1 PPC      0.223000
     31 H3A1       -3.4680   -2.2340   -1.0750 ha        1 PPC      0.111000
     32 H3A2       -2.0270   -3.2920   -1.3760 ha        1 PPC      0.111000
@<TRIPOS>BOND
     1    1    2 1   
     2    1    6 1   
     3    1   22 1   
     4    1   23 1   
     5    2    3 1   
     6    2    7 1   
     7    2   24 1   
     8    3    4 1   
     9    3    8 1   
    10    3   25 1   
    11    4    5 1   
    12    4   22 1   
    13    4   26 1   
    14    5   21 1   
    15    5   27 1   
    16    5   28 1   
    17    6   13 1   
    18    7   29 1   
    19    8   30 1   
    20    9   10 1   
    21    9   11 1   
    22    9   12 1   
    23    9   21 1   
    24   13   14 1   
    25   13   15 1   
    26   13   20 1   
    27   16   17 1   
    28   16   18 1   
    29   16   19 1   
    30   20   31 1   
    31   20   32 1   
@<TRIPOS>SUBSTRUCTURE
     1 PPC         1 TEMP              0 ****  ****    0 ROOT
