@<TRIPOS>MOLECULE
PPC
   32    32     1     0     0
SMALL
bcc


@<TRIPOS>ATOM
      1 C1         -0.5080    0.1240    0.4740 c3        1 PPC      0.367900
      2 C2          1.0520    0.1590    0.5910 c3        1 PPC      0.067100
      3 C3          1.3100   -0.4030    2.0090 c3        1 PPC      0.112100
      4 C4          0.0470    0.0000    2.7960 c3        1 PPC      0.100100
      5 C5          0.2680    1.2410    3.6920 c3        1 PPC      0.198400
      6 O1         -0.9680   -1.0680   -0.0060 os        1 PPC     -0.601200
      7 O2          1.7440   -0.5790   -0.3820 oh        1 PPC     -0.672800
      8 O3          1.4620   -1.8140    1.9680 oh        1 PPC     -0.640800
      9 P           1.1840    2.1900    5.9480 p5        1 PPC      1.327900
     10 O1P        -0.2240    2.5590    6.3540 o         1 PPC     -0.954500
     11 O2P         1.9930    1.5420    7.0510 o         1 PPC     -0.954500
     12 O3P         1.9230    3.2730    5.1960 o         1 PPC     -0.954500
     13 PA         -1.5940   -1.0930   -1.6380 p5        1 PPC      1.471600
     14 O1A        -2.2540    0.2430   -1.7300 o         1 PPC     -0.930000
     15 O2A        -0.2560   -1.1870   -2.3130 o         1 PPC     -0.930000
     16 PB         -3.6190   -3.5250   -3.0670 p5        1 PPC      1.234700
     17 O1B        -2.9470   -4.8710   -2.9870 o         1 PPC     -0.942167
     18 O2B        -3.5370   -2.8750   -4.4180 o         1 PPC     -0.942167
     19 O3B        -4.9990   -3.5170   -2.4650 o         1 PPC     -0.942167
     20 C3A        -2.5310   -2.4010   -1.6620 c3        1 PPC     -0.622800
     21 O5          1.0040    0.9120    4.8160 os        1 PPC     -0.583200
     22 O4         -0.9880    0.2600    1.8290 os        1 PPC     -0.465600
     23 H1         -0.9260    0.9950   -0.1030 h2        1 PPC      0.074700
     24 H2          1.4140    1.2200    0.5350 h1        1 PPC      0.016700
     25 H3          2.2390   -0.0130    2.4930 h1        1 PPC      0.072700
     26 H4         -0.3070   -0.8570    3.4270 h1        1 PPC      0.039700
     27 H51         0.8050    2.0360    3.1030 h1        1 PPC      0.000200
     28 H52        -0.7340    1.6500    4.0030 h1        1 PPC      0.000200
     29 HO2         1.0680   -0.9850   -0.9800 ho        1 PPC      0.484000
     30 HO3         0.7860   -2.1300    1.3480 ho        1 PPC      0.424000
     31 H3A1       -3.4490   -2.2820   -1.0620 hc        1 PPC      0.071700
     32 H3A2       -1.9920   -3.3170   -1.3680 hc        1 PPC      0.071700
@<TRIPOS>BOND
     1    1    2 1   
     2    1    6 1   
     3    1   22 1   
     4    1   23 1   
     5    2    3 1   
     6    2    7 1   
     7    2   24 1   
     8    3    4 1   
     9    3    8 1   
    10    3   25 1   
    11    4    5 1   
    12    4   22 1   
    13    4   26 1   
    14    5   21 1   
    15    5   27 1   
    16    5   28 1   
    17    6   13 1   
    18    7   29 1   
    19    8   30 1   
    20    9   10 1   
    21    9   11 1   
    22    9   12 1   
    23    9   21 1   
    24   13   14 1   
    25   13   15 1   
    26   13   20 1   
    27   16   17 1   
    28   16   18 1   
    29   16   19 1   
    30   16   20 1   
    31   20   31 1   
    32   20   32 1   
@<TRIPOS>SUBSTRUCTURE
     1 PPC         1 TEMP              0 ****  ****    0 ROOT
