@<TRIPOS>MOLECULE
PPD
   38    38     1     0     0
SMALL
bcc


@<TRIPOS>ATOM
      1 N1         -0.3330   -0.0020    0.2830 nb        1 PPD     -0.679000
      2 C2          0.9850   -0.3400    0.4060 ca        1 PPD      0.329600
      3 C2A         1.7850   -0.6120   -0.8250 c3        1 PPD     -0.116400
      4 C3          1.6040   -0.4470    1.6650 ca        1 PPD     -0.030200
      5 O3          2.9370   -0.8140    1.6980 oh        1 PPD     -0.559100
      6 C4          0.8490   -0.2430    2.8510 ca        1 PPD     -0.185300
      7 C4A         1.5370   -0.2860    4.1780 c3        1 PPD      0.168100
      8 C5         -0.4980    0.0930    2.7190 ca        1 PPD     -0.131600
      9 C6         -1.0300    0.2220    1.3930 ca        1 PPD      0.388200
     10 C5A        -1.4410    0.3870    3.8650 c3        1 PPD      0.240700
     11 O4P        -2.7470    0.1140    3.5660 os        1 PPD     -0.557200
     12 P          -3.7910    1.4850    3.3020 p5        1 PPD      1.314900
     13 O1P        -3.6010    1.6450    1.8120 o         1 PPD     -0.919167
     14 O2P        -5.1330    0.9930    3.7570 o         1 PPD     -0.919167
     15 O3P        -3.1350    2.5420    4.1490 o         1 PPD     -0.919167
     16 N           2.2920   -1.5480    4.4320 ny        1 PPD     -0.757000
     17 CA          3.3240   -1.3920    5.5080 c3        1 PPD      0.009500
     18 CB          4.0420   -2.7080    5.7900 c3        1 PPD     -0.204400
     19 CG          3.1460   -3.8860    6.1800 c         1 PPD      0.901600
     20 OD1         3.6160   -4.7540    6.9680 o         1 PPD     -0.852300
     21 OD2         1.9820   -3.9770    5.6750 o         1 PPD     -0.852300
     22 C           4.4130   -0.3230    5.1510 c         1 PPD      0.914600
     23 O           4.5840   -0.0130    3.9370 o         1 PPD     -0.829800
     24 OXT         5.0640    0.1550    6.1130 o         1 PPD     -0.829800
     25 H2A1        1.4480    0.0180   -1.6830 hc        1 PPD      0.026033
     26 H2A2        1.6770   -1.6870   -1.1130 hc        1 PPD      0.026033
     27 H2A3        2.8660   -0.4070   -0.6260 hc        1 PPD      0.026033
     28 HO3         3.4080   -0.1700    2.2620 ho        1 PPD      0.456000
     29 H4A1        0.7990   -0.1570    5.0190 hx        1 PPD      0.101200
     30 H4A2        2.2840    0.5650    4.2170 hx        1 PPD      0.101200
     31 H6         -2.1160    0.5820    1.3170 h4        1 PPD      0.161100
     32 H5A1       -1.1280   -0.2570    4.7420 h1        1 PPD      0.024200
     33 H5A2       -1.3140    1.4800    4.1430 h1        1 PPD      0.024200
     34 HN          2.7830   -1.8250    3.5740 hn        1 PPD      0.465800
     35 HA          2.7790   -1.0540    6.4330 hx        1 PPD      0.079700
     36 HB1         4.7640   -2.5050    6.6230 hc        1 PPD      0.057700
     37 HB2         4.6360   -3.0160    4.8910 hc        1 PPD      0.057700
     38 H2          1.6530   -2.3240    4.7090 hn        1 PPD      0.465800
@<TRIPOS>BOND
     1    1    2 ar  
     2    1    9 ar  
     3    2    3 1   
     4    2    4 ar  
     5    3   25 1   
     6    3   26 1   
     7    3   27 1   
     8    4    5 1   
     9    4    6 ar  
    10    5   28 1   
    11    6    7 1   
    12    6    8 ar  
    13    7   16 1   
    14    7   29 1   
    15    7   30 1   
    16    8    9 ar  
    17    8   10 1   
    18    9   31 1   
    19   10   11 1   
    20   10   32 1   
    21   10   33 1   
    22   11   12 1   
    23   12   13 1   
    24   12   14 1   
    25   12   15 1   
    26   16   17 1   
    27   16   34 1   
    28   16   38 1   
    29   17   18 1   
    30   17   22 1   
    31   17   35 1   
    32   18   19 1   
    33   18   36 1   
    34   18   37 1   
    35   19   20 1   
    36   19   21 1   
    37   22   23 1   
    38   22   24 1   
@<TRIPOS>SUBSTRUCTURE
     1 PPD         1 TEMP              0 ****  ****    0 ROOT
