@<TRIPOS>MOLECULE
PPD
   38    38     1     0     0
SMALL
bcc


@<TRIPOS>ATOM
      1 N1         -0.2780    0.0680    0.2720 nb        1 PPD     -0.679000
      2 C2          1.0420   -0.2570    0.4120 ca        1 PPD      0.329600
      3 C2A         1.8700   -0.4840   -0.8090 c3        1 PPD     -0.116400
      4 C3          1.6360   -0.3930    1.6800 ca        1 PPD     -0.030200
      5 O3          2.9730   -0.7440    1.7310 oh        1 PPD     -0.559100
      6 C4          0.8550   -0.2320    2.8560 ca        1 PPD     -0.185300
      7 C4A         1.5170   -0.3040    4.1950 c3        1 PPD      0.168100
      8 C5         -0.4940    0.0920    2.7050 ca        1 PPD     -0.131600
      9 C6         -0.9990    0.2520    1.3730 ca        1 PPD      0.388200
     10 C5A        -1.4630    0.3410    3.8390 c3        1 PPD      0.240700
     11 O4P        -2.7590    0.0610    3.5060 os        1 PPD     -0.557200
     12 P          -3.8150    1.4260    3.2600 p5        1 PPD      1.314900
     13 O1P        -3.5970    1.6310    1.7790 o         1 PPD     -0.919167
     14 O2P        -5.1590    0.9050    3.6720 o         1 PPD     -0.919167
     15 O3P        -3.1900    2.4660    4.1500 o         1 PPD     -0.919167
     16 N           2.2820   -1.5630    4.4280 n4        1 PPD     -0.757000
     17 CA          3.2900   -1.4260    5.5290 c3        1 PPD      0.009500
     18 CB          4.0190   -2.7410    5.7900 c3        1 PPD     -0.204400
     19 CG          3.1300   -3.9400    6.1270 c         1 PPD      0.901600
     20 OD1         3.5960   -4.8240    6.9000 o         1 PPD     -0.852300
     21 OD2         1.9780   -4.0310    5.5950 o         1 PPD     -0.852300
     22 C           4.3720   -0.3340    5.2260 c         1 PPD      0.914600
     23 O           4.5640    0.0130    4.0250 o         1 PPD     -0.829800
     24 OXT         4.9980    0.1250    6.2150 o         1 PPD     -0.829800
     25 H2A1        2.9440   -0.2720   -0.5820 hc        1 PPD      0.026033
     26 H2A2        1.5420    0.1670   -1.6560 hc        1 PPD      0.026033
     27 H2A3        1.7820   -1.5520   -1.1300 hc        1 PPD      0.026033
     28 HO3         3.4240   -0.1110    2.3220 ho        1 PPD      0.456000
     29 H4A1        2.2510    0.5550    4.2740 hx        1 PPD      0.101200
     30 H4A2        0.7600   -0.2080    5.0240 hx        1 PPD      0.101200
     31 H6         -2.0880    0.6000    1.2840 h4        1 PPD      0.161100
     32 H5A1       -1.3550    1.4270    4.1510 h1        1 PPD      0.024200
     33 H5A2       -1.1590   -0.3240    4.7050 h1        1 PPD      0.024200
     34 HN          1.6480   -2.3550    4.6700 hn        1 PPD      0.465800
     35 HA          2.7220   -1.1210    6.4520 hx        1 PPD      0.079700
     36 HB1         4.6350   -3.0150    4.8950 hc        1 PPD      0.057700
     37 HB2         4.7210   -2.5520    6.6430 hc        1 PPD      0.057700
     38 H2          2.7940   -1.8100    3.5740 hn        1 PPD      0.465800
@<TRIPOS>BOND
     1    1    2 ar  
     2    1    9 ar  
     3    2    3 1   
     4    2    4 ar  
     5    3   25 1   
     6    3   26 1   
     7    3   27 1   
     8    4    5 1   
     9    4    6 ar  
    10    5   28 1   
    11    6    7 1   
    12    6    8 ar  
    13    7   16 1   
    14    7   29 1   
    15    7   30 1   
    16    8    9 ar  
    17    8   10 1   
    18    9   31 1   
    19   10   11 1   
    20   10   32 1   
    21   10   33 1   
    22   11   12 1   
    23   12   13 1   
    24   12   14 1   
    25   12   15 1   
    26   16   17 1   
    27   16   34 1   
    28   16   38 1   
    29   17   18 1   
    30   17   22 1   
    31   17   35 1   
    32   18   19 1   
    33   18   36 1   
    34   18   37 1   
    35   19   20 1   
    36   19   21 1   
    37   22   23 1   
    38   22   24 1   
@<TRIPOS>SUBSTRUCTURE
     1 PPD         1 TEMP              0 ****  ****    0 ROOT
