@<TRIPOS>MOLECULE
PPD
   37    37     1     0     0
SMALL
bcc


@<TRIPOS>ATOM
      1 N1          3.6740    0.8050    0.4600 nb        1 PPD     -0.700000
      2 C2          3.3020    0.7530   -0.8450 ca        1 PPD      0.257600
      3 C2A         4.2530    1.1790   -1.9110 c3        1 PPD     -0.094400
      4 C3          2.0150    0.2970   -1.2410 ca        1 PPD      0.069800
      5 O3          1.8210    0.2540   -2.5920 oh        1 PPD     -0.551100
      6 C4          1.0630   -0.0860   -0.2600 ca        1 PPD     -0.139300
      7 C4A        -0.3090   -0.5370   -0.7010 c3        1 PPD      0.208100
      8 C5          1.4730   -0.0730    1.0820 ca        1 PPD     -0.128600
      9 C6          2.7880    0.3900    1.3690 ca        1 PPD      0.349200
     10 C5A         0.6320   -0.5380    2.2540 c3        1 PPD      0.241700
     11 O4P         1.1440   -0.1370    3.4640 os        1 PPD     -0.581200
     12 P           1.3070   -1.3020    4.7420 p5        1 PPD      1.321900
     13 O1P         0.8580   -2.5980    4.1170 o         1 PPD     -0.939167
     14 O2P         2.7790   -1.2100    5.0550 o         1 PPD     -0.939167
     15 O3P         0.3980   -0.7580    5.8140 o         1 PPD     -0.939167
     16 N          -0.9440    0.3750   -1.6380 n3        1 PPD     -0.839200
     17 CA         -1.9340   -0.2320   -2.5230 c3        1 PPD      0.094500
     18 CB         -2.5270    0.7940   -3.5010 c3        1 PPD     -0.161400
     19 CG         -3.4650    1.8440   -2.9150 c         1 PPD      0.898600
     20 OD1        -3.4850    2.0980   -1.6740 o         1 PPD     -0.890300
     21 OD2        -4.2230    2.4750   -3.7280 o         1 PPD     -0.890300
     22 C          -1.3990   -1.4090   -3.3910 c         1 PPD      0.904600
     23 O          -2.2220   -2.3250   -3.7030 o         1 PPD     -0.877800
     24 OXT        -0.1990   -1.4380   -3.8050 o         1 PPD     -0.877800
     25 H2A1        4.4030    0.3350   -2.6300 hc        1 PPD      0.010700
     26 H2A2        3.8150    2.0370   -2.4790 hc        1 PPD      0.010700
     27 H2A3        5.2470    1.4870   -1.5040 hc        1 PPD      0.010700
     28 HO3         0.9450   -0.1450   -2.8010 ho        1 PPD      0.502000
     29 H4A1       -0.1790   -1.5370   -1.2130 h1        1 PPD      0.044700
     30 H4A2       -0.9440   -0.7120    0.2170 h1        1 PPD      0.044700
     31 H6          3.1130    0.4140    2.4310 h4        1 PPD      0.065100
     32 H5A1       -0.4000   -0.0920    2.1110 h1        1 PPD      0.027700
     33 H5A2        0.5530   -1.6670    2.2130 h1        1 PPD      0.027700
     34 HN         -1.3730    1.1480   -1.1600 hn        1 PPD      0.384800
     35 HA         -2.7940   -0.6510   -1.9150 h1        1 PPD      0.014700
     36 HB1        -1.7000    1.3360   -4.0270 hc        1 PPD      0.030700
     37 HB2        -3.1000    0.2170   -4.2740 hc        1 PPD      0.030700
@<TRIPOS>BOND
     1    1    2 ar  
     2    1    9 ar  
     3    2    3 1   
     4    2    4 ar  
     5    3   25 1   
     6    3   26 1   
     7    3   27 1   
     8    4    5 1   
     9    4    6 ar  
    10    5   28 1   
    11    6    7 1   
    12    6    8 ar  
    13    7   16 1   
    14    7   29 1   
    15    7   30 1   
    16    8    9 ar  
    17    8   10 1   
    18    9   31 1   
    19   10   11 1   
    20   10   32 1   
    21   10   33 1   
    22   11   12 1   
    23   12   13 1   
    24   12   14 1   
    25   12   15 1   
    26   16   17 1   
    27   16   34 1   
    28   17   18 1   
    29   17   22 1   
    30   17   35 1   
    31   18   19 1   
    32   18   36 1   
    33   18   37 1   
    34   19   20 1   
    35   19   21 1   
    36   22   23 1   
    37   22   24 1   
@<TRIPOS>SUBSTRUCTURE
     1 PPD         1 TEMP              0 ****  ****    0 ROOT
