@<TRIPOS>MOLECULE
PPD
   38    38     1     0     0
SMALL
bcc


@<TRIPOS>ATOM
      1 N1         -0.2680    0.0240    0.2580 nb        1 PPD     -0.679000
      2 C2          1.0520   -0.2940    0.4070 ca        1 PPD      0.329600
      3 C2A         1.8860   -0.5330   -0.8080 c3        1 PPD     -0.116400
      4 C3          1.6420   -0.4120    1.6790 ca        1 PPD     -0.030200
      5 O3          2.9800   -0.7570    1.7390 oh        1 PPD     -0.559100
      6 C4          0.8550   -0.2400    2.8490 ca        1 PPD     -0.185300
      7 C4A         1.5120   -0.2930    4.1920 c3        1 PPD      0.168100
      8 C5         -0.4940    0.0760    2.6900 ca        1 PPD     -0.131600
      9 C6         -0.9950    0.2180    1.3540 ca        1 PPD      0.388200
     10 C5A        -1.4690    0.3360    3.8170 c3        1 PPD      0.240700
     11 O4P        -2.7620    0.0460    3.4820 os        1 PPD     -0.557200
     12 P          -3.8230    1.4030    3.2150 p5        1 PPD      1.314900
     13 O1P        -3.6000    1.5910    1.7320 o         1 PPD     -0.919167
     14 O2P        -5.1660    0.8820    3.6290 o         1 PPD     -0.919167
     15 O3P        -3.2060    2.4580    4.0940 o         1 PPD     -0.919167
     16 N           2.2810   -1.5460    4.4440 n4        1 PPD     -0.757000
     17 CA          3.2840   -1.3910    5.5470 c3        1 PPD      0.009500
     18 CB          4.0180   -2.7000    5.8260 c3        1 PPD     -0.204400
     19 CG          3.1330   -3.8980    6.1750 c         1 PPD      0.901600
     20 OD1         3.5990   -4.7720    6.9590 o         1 PPD     -0.852300
     21 OD2         1.9830   -4.0010    5.6390 o         1 PPD     -0.852300
     22 C           4.3630   -0.2980    5.2350 c         1 PPD      0.914600
     23 O           4.5590    0.0350    4.0300 o         1 PPD     -0.829800
     24 OXT         4.9830    0.1750    6.2200 o         1 PPD     -0.829800
     25 H2A1        1.5580    0.1050   -1.6640 hc        1 PPD      0.026033
     26 H2A2        1.8040   -1.6050   -1.1150 hc        1 PPD      0.026033
     27 H2A3        2.9580   -0.3130   -0.5800 hc        1 PPD      0.026033
     28 HO3         3.4260   -0.1140    2.3250 ho        1 PPD      0.456000
     29 H4A1        0.7520   -0.1900    5.0170 hx        1 PPD      0.101200
     30 H4A2        2.2430    0.5700    4.2630 hx        1 PPD      0.101200
     31 H6         -2.0850    0.5610    1.2560 h4        1 PPD      0.161100
     32 H5A1       -1.1660   -0.3170    4.6920 h1        1 PPD      0.024200
     33 H5A2       -1.3670    1.4260    4.1160 h1        1 PPD      0.024200
     34 HN          2.7980   -1.8010    3.5940 hn        1 PPD      0.465800
     35 HA          2.7120   -1.0770    6.4640 hx        1 PPD      0.079700
     36 HB1         4.7160   -2.4980    6.6800 hc        1 PPD      0.057700
     37 HB2         4.6390   -2.9820    4.9370 hc        1 PPD      0.057700
     38 H2          1.6500   -2.3370    4.6930 hn        1 PPD      0.465800
@<TRIPOS>BOND
     1    1    2 ar  
     2    1    9 ar  
     3    2    3 1   
     4    2    4 ar  
     5    3   25 1   
     6    3   26 1   
     7    3   27 1   
     8    4    5 1   
     9    4    6 ar  
    10    5   28 1   
    11    6    7 1   
    12    6    8 ar  
    13    7   16 1   
    14    7   29 1   
    15    7   30 1   
    16    8    9 ar  
    17    8   10 1   
    18    9   31 1   
    19   10   11 1   
    20   10   32 1   
    21   10   33 1   
    22   11   12 1   
    23   12   13 1   
    24   12   14 1   
    25   12   15 1   
    26   16   17 1   
    27   16   34 1   
    28   16   38 1   
    29   17   18 1   
    30   17   22 1   
    31   17   35 1   
    32   18   19 1   
    33   18   36 1   
    34   18   37 1   
    35   19   20 1   
    36   19   21 1   
    37   22   23 1   
    38   22   24 1   
@<TRIPOS>SUBSTRUCTURE
     1 PPD         1 TEMP              0 ****  ****    0 ROOT
