@<TRIPOS>MOLECULE
PPE
   42    42     1     0     0
SMALL
bcc


@<TRIPOS>ATOM
      1 N1          0.0000    0.0000    0.0000 na        1 PPE      0.406900
      2 C2          1.3690    0.0000    0.0000 ca        1 PPE     -0.454600
      3 C2A         1.8610    0.0060   -1.4340 c3        1 PPE      0.107200
      4 C3          2.0570    0.0000    1.2710 ca        1 PPE      0.190100
      5 O3          3.4070   -0.0000    1.1040 oh        1 PPE     -0.474100
      6 C4          1.4020   -0.0330    2.4980 ca        1 PPE     -0.176300
      7 C4A         2.1650   -0.0600    3.8160 c3        1 PPE      0.108100
      8 C5         -0.0150   -0.0320    2.3410 ca        1 PPE     -0.031300
      9 C6         -0.7050   -0.0190    1.1480 ca        1 PPE     -0.292300
     10 C5A        -0.9760   -0.0890    3.5340 c3        1 PPE      0.351700
     11 OP4        -0.5100    0.3100    4.7690 os        1 PPE     -0.486200
     12 P          -1.4720    0.5880    6.0220 p5        1 PPE      0.894900
     13 OP1        -0.5870    0.3730    7.2340 o         1 PPE     -0.585167
     14 OP2        -2.4990   -0.5160    5.9130 o         1 PPE     -0.585167
     15 OP3        -2.2580    1.7850    5.8670 o         1 PPE     -0.585167
     16 NA          3.4140   -0.8560    3.4610 ny        1 PPE     -0.140000
     17 CAA         4.5810   -0.3780    4.2780 c3        1 PPE     -0.093500
     18 CBA         4.2430   -0.3580    5.7620 c3        1 PPE     -0.002400
     19 CGA         4.3480   -1.7090    6.4510 c3        1 PPE     -0.220400
     20 CDA         3.2880   -2.6570    5.9220 c         1 PPE      0.993600
     21 OE1         2.2060   -2.5950    6.5340 o         1 PPE     -0.876800
     22 OE2         3.6330   -3.3740    5.0090 o         1 PPE     -0.876800
     23 CA          5.8240   -1.2370    3.9930 c         1 PPE      1.008600
     24 OA          6.8260   -1.4080    4.8340 o         1 PPE     -0.883300
     25 OXT         5.7660   -1.7600    2.7350 o         1 PPE     -0.883300
     26 HN1        -0.4890    0.0100   -0.8730 hn        1 PPE      0.092700
     27 H2A1        2.9150   -0.2410   -1.4550 hc        1 PPE      0.001033
     28 H2A2        1.3070   -0.7270   -2.0080 hc        1 PPE      0.001033
     29 H2A3        1.7110    0.9890   -1.8630 hc        1 PPE      0.001033
     30 HO3         3.6820    0.8330    0.7600 ho        1 PPE      0.410000
     31 H4A1        1.5910   -0.5670    4.5820 hx        1 PPE      0.105200
     32 H4A2        2.4250    0.9440    4.1290 hx        1 PPE      0.105200
     33 H6         -1.7880   -0.0190    1.1330 h4        1 PPE      0.146000
     34 H5A1       -1.8330    0.5280    3.2930 h1        1 PPE     -0.008800
     35 H5A2       -1.3190   -1.1120    3.6290 h1        1 PPE     -0.008800
     36 HNA         3.2530   -1.8250    3.6490 hn        1 PPE      0.310300
     37 HAA         4.8040    0.6380    3.9750 hx        1 PPE      0.016700
     38 HBA1        4.9150    0.3320    6.2570 hc        1 PPE      0.013700
     39 HBA2        3.2290    0.0070    5.8770 hc        1 PPE      0.013700
     40 HGA1        5.3290   -2.1290    6.2650 hc        1 PPE      0.038700
     41 HGA2        4.2110   -1.5780    7.5170 hc        1 PPE      0.038700
     42 HA2         3.6180   -0.7350    2.4890 hn        1 PPE      0.310300
@<TRIPOS>BOND
     1    1    2 1   
     2    1    9 2   
     3    1   26 1   
     4    2    3 1   
     5    2    4 ar  
     6    3   27 1   
     7    3   28 1   
     8    3   29 1   
     9    4    5 1   
    10    4    6 ar  
    11    5   30 1   
    12    6    7 1   
    13    6    8 ar  
    14    7   16 1   
    15    7   31 1   
    16    7   32 1   
    17    8    9 ar  
    18    8   10 1   
    19    9   33 1   
    20   10   11 1   
    21   10   34 1   
    22   10   35 1   
    23   11   12 1   
    24   12   13 1   
    25   12   14 1   
    26   12   15 1   
    27   16   17 1   
    28   16   36 1   
    29   16   42 1   
    30   17   18 1   
    31   17   23 1   
    32   17   37 1   
    33   18   19 1   
    34   18   38 1   
    35   18   39 1   
    36   19   20 1   
    37   19   40 1   
    38   19   41 1   
    39   20   21 1   
    40   20   22 1   
    41   23   24 1   
    42   23   25 1   
@<TRIPOS>SUBSTRUCTURE
     1 PPE         1 TEMP              0 ****  ****    0 ROOT
