@<TRIPOS>MOLECULE
PPE
   41    41     1     0     0
SMALL
bcc


@<TRIPOS>ATOM
      1 N1          0.0310   -0.0290    0.4070 nh        1 PPE     -0.370800
      2 C2          1.4230   -0.1360    0.3820 c2        1 PPE     -0.129200
      3 C2A         2.1250   -0.3770   -0.9050 c3        1 PPE     -0.023900
      4 C3          2.1160   -0.0010    1.5880 ce        1 PPE      0.171100
      5 O3          3.4710   -0.0720    1.4870 oh        1 PPE     -0.535100
      6 C4          1.3970    0.2290    2.8230 ce        1 PPE     -0.066200
      7 C4A         2.2190    0.3630    4.0770 c3        1 PPE      0.178000
      8 C5          0.0240    0.3440    2.7670 cf        1 PPE     -0.094900
      9 C6         -0.6730    0.2000    1.5100 ch        1 PPE     -0.246300
     10 C5A        -0.8960    0.5860    3.9370 c3        1 PPE      0.240600
     11 OP4        -1.5300    1.8250    3.8490 os        1 PPE     -0.580200
     12 P          -3.1830    1.8500    3.7270 p5        1 PPE      1.436800
     13 OP1        -3.2950    1.6920    2.1130 oh        1 PPE     -0.808400
     14 OP2        -3.6550    3.2000    4.1060 o         1 PPE     -0.852000
     15 OP3        -3.6960    0.6060    4.3470 o         1 PPE     -0.852000
     16 NA          2.9760   -0.8390    4.3760 n3        1 PPE     -0.818200
     17 CAA         4.0690   -0.6210    5.3170 c3        1 PPE      0.064500
     18 CBA         4.6500   -1.9280    5.8810 c3        1 PPE     -0.049400
     19 CGA         4.9970   -3.0110    4.8900 c3        1 PPE     -0.170400
     20 CDA         5.3960   -4.3250    5.5740 c         1 PPE      0.900600
     21 OE1         4.8150   -4.6910    6.6410 o         1 PPE     -0.884300
     22 OE2         6.2880   -5.0460    5.0230 o         1 PPE     -0.884300
     23 CA          5.2020    0.3080    4.7840 c         1 PPE      0.921600
     24 OA          5.2110    0.7240    3.5840 o         1 PPE     -0.858800
     25 OXT         6.0680    0.6830    5.6260 o         1 PPE     -0.858800
     26 HN1        -0.4480   -0.1320   -0.4580 hn        1 PPE      0.423800
     27 H2A1        1.6390   -1.2000   -1.4860 hc        1 PPE      0.030367
     28 H2A2        3.1890   -0.6600   -0.7050 hc        1 PPE      0.030367
     29 H2A3        2.1160    0.5480   -1.5360 hc        1 PPE      0.030367
     30 HO3         3.9080   -0.0130    2.3740 ho        1 PPE      0.521000
     31 H4A1        2.9620    1.2030    3.9060 h1        1 PPE      0.056200
     32 H4A2        1.5600    0.6820    4.9350 h1        1 PPE      0.056200
     33 H6         -2.6360    1.1060    1.7400 ho        1 PPE      0.459000
     34 H5A1       -1.6670   -0.2400    3.9600 h1        1 PPE      0.039200
     35 H5A2       -0.3160    0.5630    4.9020 h1        1 PPE      0.039200
     36 HNA         2.3720   -1.5640    4.7140 hn        1 PPE      0.349800
     37 HAA         3.6690   -0.0560    6.2240 h1        1 PPE     -0.009300
     38 HBA1        5.5770   -1.6400    6.4470 hc        1 PPE      0.040200
     39 HBA2        3.9210   -2.3550    6.6220 hc        1 PPE      0.040200
     40 HGA1        5.8340   -2.6720    4.2290 hc        1 PPE      0.031700
     41 HGA2        4.1210   -3.2430    4.2320 hc        1 PPE      0.031700
@<TRIPOS>BOND
     1    1    2 1   
     2    1    9 3   
     3    1   26 1   
     4    2    3 1   
     5    2    4 2   
     6    3   27 1   
     7    3   28 1   
     8    3   29 1   
     9    4    5 1   
    10    4    6 1   
    11    5   30 1   
    12    6    7 1   
    13    6    8 2   
    14    7   16 1   
    15    7   31 1   
    16    7   32 1   
    17    8    9 1   
    18    8   10 1   
    19   10   11 1   
    20   10   34 1   
    21   10   35 1   
    22   11   12 1   
    23   12   13 1   
    24   12   14 1   
    25   12   15 1   
    26   13   33 1   
    27   16   17 1   
    28   16   36 1   
    29   17   18 1   
    30   17   23 1   
    31   17   37 1   
    32   18   19 1   
    33   18   38 1   
    34   18   39 1   
    35   19   20 1   
    36   19   40 1   
    37   19   41 1   
    38   20   21 1   
    39   20   22 1   
    40   23   24 1   
    41   23   25 1   
@<TRIPOS>SUBSTRUCTURE
     1 PPE         1 TEMP              0 ****  ****    0 ROOT
