@<TRIPOS>MOLECULE
PPF
    7     6     1     0     0
SMALL
bcc


@<TRIPOS>ATOM
      1 C1         -0.1060    0.0170    1.1220 c         1 PPF      0.766600
      2 O1         -1.3230    0.0750   -1.2710 o         1 PPF     -0.992500
      3 O2          0.9120    1.1660   -1.0160 o         1 PPF     -0.992500
      4 O3          0.6930   -1.3720   -0.9650 o         1 PPF     -0.992500
      5 O4          0.9240   -0.0550    1.8910 o         1 PPF     -0.971800
      6 O5         -1.2390    0.1250    1.7250 o         1 PPF     -0.971800
      7 P1          0.0500   -0.0310   -0.6100 p5        1 PPF      1.153500
@<TRIPOS>BOND
     1    1    5 1   
     2    1    6 1   
     3    1    7 1   
     4    2    7 1   
     5    3    7 1   
     6    4    7 1   
@<TRIPOS>SUBSTRUCTURE
     1 PPF         1 TEMP              0 ****  ****    0 ROOT
