@<TRIPOS>MOLECULE
PPF
    7     5     1     0     0
SMALL
bcc


@<TRIPOS>ATOM
      1 C1         -0.0240    0.2890    1.0330 c1        1 PPF      0.702500
      2 O1          0.9570   -1.3690   -0.8890 o         1 PPF     -0.992500
      3 O2          0.4960    0.9610   -1.5520 o         1 PPF     -0.992500
      4 O3         -1.3710   -0.6000   -1.1570 o         1 PPF     -0.992500
      5 O4          0.7840    1.1540    1.4640 os        1 PPF     -0.709000
      6 O5         -0.8590   -0.2360    1.8150 o         1 PPF     -0.937500
      7 P1          0.0160   -0.2000   -0.7150 p5        1 PPF      0.920500
@<TRIPOS>BOND
     1    1    6 2   
     2    1    7 2   
     3    2    7 1   
     4    3    7 1   
     5    4    7 1   
@<TRIPOS>SUBSTRUCTURE
     1 PPF         1 TEMP              0 ****  ****    0 ROOT
