@<TRIPOS>MOLECULE
PPG
   43    38     1     0     0
SMALL
bcc


@<TRIPOS>ATOM
      1 N1         -3.2250    0.0060   -2.5840 n1        1 PPG     -0.159000
      2 C2         -1.8750   -0.0970   -2.6260 c1        1 PPG     -0.126000
      3 C2A        -1.1520   -0.1680   -3.9720 c3        1 PPG     -0.134000
      4 C3         -1.1450   -0.2600   -1.4420 c1        1 PPG      0.020000
      5 O3          0.2620   -0.4370   -1.5010 o         1 PPG     -0.324000
      6 C4         -1.7920   -0.3170   -0.2360 c2        1 PPG     -0.126000
      7 C4A        -0.9850   -0.4740    1.0580 c3        1 PPG     -0.064000
      8 C5         -3.1580   -0.2130   -0.1880 c1        1 PPG     -0.067000
      9 C6         -3.8850   -0.0500   -1.3680 c1        1 PPG     -0.095000
     10 C5A        -3.8880   -0.3420    1.1430 c3        1 PPG      0.085000
     11 OP4        -5.2550   -0.7390    0.9020 os        1 PPG     -0.727000
     12 P          -6.2560   -0.8010    2.1320 p5        1 PPG      1.549500
     13 OP1        -6.1610    0.5270    2.9470 o         1 PPG     -0.927500
     14 OP2        -7.6630   -0.9810    1.6210 o         1 PPG     -0.927500
     15 OP3        -5.8900   -1.9970    3.0520 o         1 PPG     -0.927500
     16 N4A         0.0430    0.5240    1.1080 n2        1 PPG     -0.181000
     17 CAI         1.0450    0.3860    1.9390 c1        1 PPG     -0.063000
     18 CBC         1.1140   -0.8190    2.8410 c1        1 PPG      0.337000
     19 O2B         0.7340   -0.7310    4.0230 o         1 PPG     -0.571500
     20 O3B         1.6700   -1.8790    2.4350 o         1 PPG     -0.571500
     21 CBI         2.1240    1.4280    1.9930 c2        1 PPG     -0.168000
     22 CGI         3.2460    1.3370    1.1370 c1        1 PPG     -0.046000
     23 OET         3.3590    0.2370    0.2040 o         1 PPG     -0.251000
     24 CEI         4.2570    0.4770   -0.8610 c3        1 PPG     -0.090000
     25 CFI         5.7260    0.5140   -0.3140 c3        1 PPG     -0.081000
     26 NI          6.6160    0.8960   -1.3740 n3        1 PPG     -0.343000
     27 H2A1       -0.4670   -0.9000   -3.9420 hc        1 PPG      0.059000
     28 H2A2       -0.6830    0.7310   -4.1580 hc        1 PPG      0.059000
     29 H2A3       -1.7890   -0.3510   -4.6720 hc        1 PPG      0.059000
     30 HO3         0.4430   -1.2350   -1.8040 ho        1 PPG      0.261000
     31 H4A1       -0.5650   -1.3860    1.0790 h1        1 PPG      0.098500
     32 H4A2       -1.5760   -0.3720    1.8230 h1        1 PPG      0.098500
     33 H6         -4.8640    0.0240   -1.3360 ha        1 PPG      0.282000
     34 H5A1       -3.4430   -1.0230    1.7010 h1        1 PPG      0.061500
     35 H5A2       -3.8740    0.5270    1.6090 h1        1 PPG      0.061500
     36 HBI         2.0510    2.1650    2.6170 ha        1 PPG      0.129000
     37 HGI         3.9650    2.0380    1.1780 ha        1 PPG      0.113000
     38 HEI1        4.0340    1.3640   -1.2950 h1        1 PPG      0.127000
     39 HEI2        4.1770   -0.2320   -1.5210 h1        1 PPG      0.127000
     40 HFI1        5.9860   -0.4070    0.0310 h1        1 PPG      0.068000
     41 HFI2        5.7860    1.1650    0.4150 h1        1 PPG      0.068000
     42 HNI1        6.2780    1.6690   -1.8030 hn        1 PPG      0.153500
     43 HNI2        6.6810    0.1980   -1.9940 hn        1 PPG      0.153500
@<TRIPOS>BOND
     1    1    9 1   
     2    2    3 1   
     3    2    4 1   
     4    3   27 1   
     5    3   28 1   
     6    3   29 1   
     7    4    6 1   
     8    5   30 1   
     9    6    7 1   
    10    6    8 1   
    11    7   16 1   
    12    7   31 1   
    13    7   32 1   
    14    8   10 1   
    15    9   33 1   
    16   10   11 1   
    17   10   34 1   
    18   10   35 1   
    19   11   12 1   
    20   12   13 1   
    21   12   14 1   
    22   12   15 1   
    23   16   17 1   
    24   17   21 1   
    25   18   19 1   
    26   18   20 1   
    27   21   22 1   
    28   21   36 1   
    29   22   37 1   
    30   23   24 1   
    31   24   25 1   
    32   24   38 1   
    33   24   39 1   
    34   25   26 1   
    35   25   40 1   
    36   25   41 1   
    37   26   42 1   
    38   26   43 1   
@<TRIPOS>SUBSTRUCTURE
     1 PPG         1 TEMP              0 ****  ****    0 ROOT
