@<TRIPOS>MOLECULE
PPG
   43    43     1     0     0
SMALL
bcc


@<TRIPOS>ATOM
      1 N1          2.1120   -3.0510    0.7630 nb        1 PPG     -0.695000
      2 C2          0.8000   -2.9890    1.1290 ca        1 PPG      0.321600
      3 C2A         0.1470   -4.2000    1.7090 c3        1 PPG     -0.112400
      4 C3          0.0320   -1.8210    0.9380 ca        1 PPG     -0.030200
      5 O3         -1.3250   -1.9130    1.2070 oh        1 PPG     -0.552100
      6 C4          0.6250   -0.6510    0.4030 ca        1 PPG     -0.105300
      7 C4A        -0.2070    0.5680    0.1180 c3        1 PPG      0.141100
      8 C5          1.9800   -0.7160    0.0600 ca        1 PPG     -0.159600
      9 C6          2.6640   -1.9570    0.2390 ca        1 PPG      0.388200
     10 C5A         2.7820    0.4180   -0.5390 c3        1 PPG      0.243700
     11 OP4         4.1220    0.3340   -0.2610 os        1 PPG     -0.565200
     12 P           5.1720   -0.1100   -1.5690 p5        1 PPG      1.315900
     13 OP1         4.4360    0.4120   -2.7750 o         1 PPG     -0.926167
     14 OP2         6.4570    0.5890   -1.2260 o         1 PPG     -0.926167
     15 OP3         5.1640   -1.6110   -1.4050 o         1 PPG     -0.926167
     16 N4A        -0.9990    1.0810    1.2130 n2        1 PPG     -0.581900
     17 CAI        -2.2860    1.0970    1.1750 ce        1 PPG      0.390600
     18 CBC        -3.1260    1.7280    2.3130 c         1 PPG      0.841300
     19 O2B        -3.2800    1.0700    3.3740 o         1 PPG     -0.836800
     20 O3B        -3.6720    2.8430    2.0730 o         1 PPG     -0.836800
     21 CBI        -3.1510    0.5330    0.1120 ce        1 PPG     -0.252600
     22 CGI        -4.1930    1.2300   -0.3590 c2        1 PPG     -0.031900
     23 OET        -4.9710    0.6880   -1.3880 os        1 PPG     -0.374900
     24 CEI        -6.3650    0.8880   -1.1600 c3        1 PPG      0.094400
     25 CFI        -7.1090    0.1950   -2.3080 c3        1 PPG      0.148800
     26 NI         -6.8620   -1.2160   -2.4770 n3        1 PPG     -0.905800
     27 H2A1       -0.7030   -3.8920    2.3670 hc        1 PPG      0.020700
     28 H2A2       -0.2600   -4.8400    0.8880 hc        1 PPG      0.020700
     29 H2A3        0.8660   -4.8100    2.3080 hc        1 PPG      0.020700
     30 HO3        -1.5390   -1.2180    1.8480 ho        1 PPG      0.429000
     31 H4A1        0.4740    1.4220   -0.1710 h1        1 PPG      0.048700
     32 H4A2       -0.8270    0.3180   -0.7970 h1        1 PPG      0.048700
     33 H6          3.7410   -2.0010   -0.1340 h4        1 PPG      0.147100
     34 H5A1        2.6070    0.4150   -1.6590 h1        1 PPG      0.021700
     35 H5A2        2.3900    1.3890   -0.1080 h1        1 PPG      0.021700
     36 HBI        -2.9040   -0.4820   -0.2410 ha        1 PPG      0.142000
     37 HGI        -4.4820    2.2330   -0.0050 h4        1 PPG      0.171000
     38 HEI1       -6.6550    0.4520   -0.1680 h1        1 PPG      0.030700
     39 HEI2       -6.5970    1.9850   -1.1570 h1        1 PPG      0.030700
     40 HFI1       -8.2120    0.3390   -2.1300 h1        1 PPG      0.038200
     41 HFI2       -6.8380    0.7110   -3.2710 h1        1 PPG      0.038200
     42 HNI1       -5.9110   -1.3580   -2.7660 hn        1 PPG      0.350300
     43 HNI2       -6.9830   -1.6910   -1.6010 hn        1 PPG      0.350300
@<TRIPOS>BOND
     1    1    2 ar  
     2    1    9 ar  
     3    2    3 1   
     4    2    4 ar  
     5    3   27 1   
     6    3   28 1   
     7    3   29 1   
     8    4    5 1   
     9    4    6 ar  
    10    5   30 1   
    11    6    7 1   
    12    6    8 ar  
    13    7   16 1   
    14    7   31 1   
    15    7   32 1   
    16    8    9 ar  
    17    8   10 1   
    18    9   33 1   
    19   10   11 1   
    20   10   34 1   
    21   10   35 1   
    22   11   12 1   
    23   12   13 1   
    24   12   14 1   
    25   12   15 1   
    26   16   17 2   
    27   17   18 1   
    28   17   21 1   
    29   18   19 1   
    30   18   20 1   
    31   21   22 2   
    32   21   36 1   
    33   22   23 1   
    34   22   37 1   
    35   23   24 1   
    36   24   25 1   
    37   24   38 1   
    38   24   39 1   
    39   25   26 1   
    40   25   40 1   
    41   25   41 1   
    42   26   42 1   
    43   26   43 1   
@<TRIPOS>SUBSTRUCTURE
     1 PPG         1 TEMP              0 ****  ****    0 ROOT
