@<TRIPOS>MOLECULE
PPH
   23    23     1     0     0
SMALL
bcc


@<TRIPOS>ATOM
      1 O1          2.4260   -0.3830    1.9860 o         1 PPH     -0.939500
      2 P1          2.1690    0.4080    0.7250 p5        1 PPH      1.199700
      3 O2          3.3850    0.6350   -0.1420 o         1 PPH     -0.939500
      4 C1          1.1770   -0.7560   -0.2790 c3        1 PPH     -0.056700
      5 N1          2.0970   -1.7920   -0.7280 n3        1 PPH     -0.900800
      6 C2          0.0480   -1.2730    0.5900 c3        1 PPH     -0.010100
      7 C3         -1.2820   -0.7050    0.2280 ca        1 PPH     -0.021300
      8 C4         -2.3790   -1.5250   -0.0500 ca        1 PPH     -0.150000
      9 C5         -3.6230   -0.9680   -0.3600 ca        1 PPH     -0.164500
     10 C6         -3.7790    0.4140   -0.3940 ca        1 PPH     -0.186000
     11 C7         -2.6840    1.2400   -0.1190 ca        1 PPH     -0.164500
     12 C8         -1.4440    0.6940    0.1900 ca        1 PPH     -0.150000
     13 O3          1.2730    1.6190    0.8960 o         1 PPH     -0.939500
     14 H2          0.7740   -0.2290   -1.1770 h1        1 PPH      0.034700
     15 H3          2.8590   -1.2880   -1.1660 hn        1 PPH      0.329800
     16 H4          2.4900   -2.1890    0.1130 hn        1 PPH      0.329800
     17 H5         -0.0250   -2.3960    0.5640 hc        1 PPH      0.044700
     18 H6          0.2930   -0.9820    1.6550 hc        1 PPH      0.044700
     19 H7         -2.2630   -2.6170   -0.0310 ha        1 PPH      0.187500
     20 H8         -4.4760   -1.6240   -0.5780 ha        1 PPH      0.091500
     21 H9         -4.7550    0.8530   -0.6370 ha        1 PPH      0.081000
     22 H10        -2.8050    2.3320   -0.1480 ha        1 PPH      0.091500
     23 H11        -0.5260    1.3190    0.4200 ha        1 PPH      0.187500
@<TRIPOS>BOND
     1    1    2 1   
     2    2    3 1   
     3    2    4 1   
     4    2   13 1   
     5    4    5 1   
     6    4    6 1   
     7    4   14 1   
     8    5   15 1   
     9    5   16 1   
    10    6    7 1   
    11    6   17 1   
    12    6   18 1   
    13    7    8 ar  
    14    7   12 ar  
    15    8    9 ar  
    16    8   19 1   
    17    9   10 ar  
    18    9   20 1   
    19   10   11 ar  
    20   10   21 1   
    21   11   12 ar  
    22   11   22 1   
    23   12   23 1   
@<TRIPOS>SUBSTRUCTURE
     1 PPH         1 TEMP              0 ****  ****    0 ROOT
