@<TRIPOS>MOLECULE
PPI
   10     9     1     0     0
SMALL
bcc


@<TRIPOS>ATOM
      1 C1         -0.0350   -0.0000   -0.5310 c         1 PPI      0.907600
      2 C2          0.8020    0.0000    0.7590 c3        1 PPI     -0.197400
      3 C3         -0.0410    0.0000    2.0020 c3        1 PPI     -0.062100
      4 O1         -1.2980   -0.0000   -0.4510 o         1 PPI     -0.856300
      5 O2          0.5960   -0.0000   -1.6290 o         1 PPI     -0.856300
      6 H21         1.4640    0.9020    0.7410 hc        1 PPI      0.016700
      7 H22         1.4640   -0.9020    0.7410 hc        1 PPI      0.016700
      8 H31         0.5930    0.0000    2.9230 hc        1 PPI      0.010367
      9 H32        -0.7010    0.9010    2.0190 hc        1 PPI      0.010367
     10 H33        -0.7010   -0.9010    2.0190 hc        1 PPI      0.010367
@<TRIPOS>BOND
     1    1    2 1   
     2    1    4 1   
     3    1    5 1   
     4    2    3 1   
     5    2    6 1   
     6    2    7 1   
     7    3    8 1   
     8    3    9 1   
     9    3   10 1   
@<TRIPOS>SUBSTRUCTURE
     1 PPI         1 TEMP              0 ****  ****    0 ROOT
