@<TRIPOS>MOLECULE
PPI
   10     9     1     0     0
SMALL
bcc


@<TRIPOS>ATOM
      1 C1         -0.0460    0.0000   -0.0210 c         1 PPI      0.907600
      2 C2          1.4910   -0.0000    0.0250 c3        1 PPI     -0.197400
      3 C3          2.0320   -0.0000    1.4260 c3        1 PPI     -0.062100
      4 O1         -0.6990    0.0000    1.0620 o         1 PPI     -0.856300
      5 O2         -0.5890   -0.0000   -1.1660 o         1 PPI     -0.856300
      6 H21         1.8530    0.9020   -0.5300 hc        1 PPI      0.016700
      7 H22         1.8530   -0.9020   -0.5300 hc        1 PPI      0.016700
      8 H31         1.6700   -0.9010    1.9780 hc        1 PPI      0.010367
      9 H32         1.6700    0.9010    1.9780 hc        1 PPI      0.010367
     10 H33         3.1500   -0.0000    1.4290 hc        1 PPI      0.010367
@<TRIPOS>BOND
     1    1    2 1   
     2    1    4 1   
     3    1    5 1   
     4    2    3 1   
     5    2    6 1   
     6    2    7 1   
     7    3    8 1   
     8    3    9 1   
     9    3   10 1   
@<TRIPOS>SUBSTRUCTURE
     1 PPI         1 TEMP              0 ****  ****    0 ROOT
