@<TRIPOS>MOLECULE
PPI
   10     9     1     0     0
SMALL
bcc


@<TRIPOS>ATOM
      1 C1         -0.0540   -0.0880    0.0190 c         1 PPI      0.907600
      2 C2          1.4800   -0.2040    0.0450 c3        1 PPI     -0.197400
      3 C3          2.0450    0.2280    1.3690 c3        1 PPI     -0.066100
      4 O1         -0.7160   -0.6440    0.9430 o         1 PPI     -0.855300
      5 O2         -0.5830    0.5460   -0.9390 o         1 PPI     -0.855300
      6 H21         1.9110    0.4120   -0.7830 hc        1 PPI      0.016700
      7 H22         1.7450   -1.2750   -0.1500 hc        1 PPI      0.016700
      8 H31         1.5130   -0.3020    2.1960 hc        1 PPI      0.011367
      9 H32         1.9070    1.3270    1.5140 hc        1 PPI      0.011367
     10 H33         3.1380    0.0010    1.4370 hc        1 PPI      0.011367
@<TRIPOS>BOND
     1    1    2 1   
     2    1    4 1   
     3    1    5 1   
     4    2    3 1   
     5    2    6 1   
     6    2    7 1   
     7    3    8 1   
     8    3    9 1   
     9    3   10 1   
@<TRIPOS>SUBSTRUCTURE
     1 PPI         1 TEMP              0 ****  ****    0 ROOT
