@<TRIPOS>MOLECULE
PPJ
   40    40     1     0     0
SMALL
bcc


@<TRIPOS>ATOM
      1 N1         -0.2240   -0.4120    0.4390 nb        1 PPJ     -0.673000
      2 C2          1.0060    0.1050    0.1710 ca        1 PPJ      0.291600
      3 C6         -0.5340   -0.6650    1.7100 ca        1 PPJ      0.358200
      4 C2A         1.4000    0.3980   -1.2380 c3        1 PPJ     -0.104400
      5 C3          1.9400    0.3870    1.1970 ca        1 PPJ      0.026800
      6 O3          3.1320    0.9250    0.7680 oh        1 PPJ     -0.542100
      7 C4          1.6030    0.1290    2.5500 ca        1 PPJ     -0.218900
      8 C4A         2.5070    0.4570    3.6660 ce        1 PPJ      0.481800
      9 C5          0.3440   -0.4300    2.8090 ca        1 PPJ     -0.129600
     10 N           3.7930    0.4440    3.5800 n2        1 PPJ     -0.625900
     11 C5A        -0.1670   -0.7910    4.1860 c3        1 PPJ      0.242700
     12 OP4        -0.9710   -1.9010    4.1790 os        1 PPJ     -0.562200
     13 P          -2.6650   -1.6400    4.4620 p5        1 PPJ      1.315900
     14 OP1        -2.6560   -0.4410    5.3730 o         1 PPJ     -0.924500
     15 OP2        -3.1090   -2.9380    5.0720 o         1 PPJ     -0.924500
     16 OP3        -3.1310   -1.3710    3.0510 o         1 PPJ     -0.924500
     17 CA          4.6080    0.7720    4.7300 c3        1 PPJ      0.005500
     18 CB          5.3370   -0.4540    5.3010 c3        1 PPJ     -0.080400
     19 C           5.6510    1.8990    4.4210 c         1 PPJ      0.925600
     20 CG          6.3010   -1.1300    4.3260 c3        1 PPJ      0.156100
     21 CD          6.1930   -2.6440    4.4040 c3        1 PPJ     -0.089100
     22 O           6.6520    1.6550    3.6850 o         1 PPJ     -0.850800
     23 OXT         5.4640    3.0140    4.9830 o         1 PPJ     -0.850800
     24 OGL         7.6510   -0.8030    4.6540 oh        1 PPJ     -0.670800
     25 HC6        -1.5680   -1.0760    1.9640 h4        1 PPJ      0.150100
     26 H2A1        0.6250    0.0750   -1.9730 hc        1 PPJ      0.018700
     27 H2A2        2.3610   -0.1250   -1.4700 hc        1 PPJ      0.018700
     28 H2A3        1.5710    1.4970   -1.3550 hc        1 PPJ      0.018700
     29 HO3         3.7340    1.0050    1.5250 ho        1 PPJ      0.454000
     30 H4A         1.9570    0.7170    4.6020 h4        1 PPJ     -0.016200
     31 H5A1       -0.7270    0.1050    4.5960 h1        1 PPJ      0.020700
     32 H5A2        0.7290   -0.9960    4.8460 h1        1 PPJ      0.020700
     33 HA          3.9720    1.1770    5.5810 h1        1 PPJ      0.024700
     34 HCB         4.5770   -1.2000    5.6520 hc        1 PPJ      0.030700
     35 HB1         5.9150   -0.1070    6.1970 hc        1 PPJ      0.030700
     36 HCG         6.0960   -0.7820    3.2740 h1        1 PPJ      0.078700
     37 HC1         6.3780   -2.9980    5.4460 hc        1 PPJ      0.022700
     38 HC2         6.9500   -3.1150    3.7330 hc        1 PPJ      0.022700
     39 HC3         5.1720   -2.9600    4.0850 hc        1 PPJ      0.022700
     40 HGL         7.7390    0.1460    4.4660 ho        1 PPJ      0.446000
@<TRIPOS>BOND
     1    1    2 ar  
     2    1    3 ar  
     3    2    4 1   
     4    2    5 ar  
     5    3    9 ar  
     6    3   25 1   
     7    4   26 1   
     8    4   27 1   
     9    4   28 1   
    10    5    6 1   
    11    5    7 ar  
    12    6   29 1   
    13    7    8 1   
    14    7    9 ar  
    15    8   10 2   
    16    8   30 1   
    17    9   11 1   
    18   10   17 1   
    19   11   12 1   
    20   11   31 1   
    21   11   32 1   
    22   12   13 1   
    23   13   14 1   
    24   13   15 1   
    25   13   16 1   
    26   17   18 1   
    27   17   19 1   
    28   17   33 1   
    29   18   20 1   
    30   18   34 1   
    31   18   35 1   
    32   19   22 1   
    33   19   23 1   
    34   20   21 1   
    35   20   24 1   
    36   20   36 1   
    37   21   37 1   
    38   21   38 1   
    39   21   39 1   
    40   24   40 1   
@<TRIPOS>SUBSTRUCTURE
     1 PPJ         1 TEMP              0 ****  ****    0 ROOT
