@<TRIPOS>MOLECULE
PPJ
   40    40     1     0     0
SMALL
bcc


@<TRIPOS>ATOM
      1 N1         -0.9310    7.8650    0.3000 nb        1 PPJ     -0.673000
      2 C2         -0.5820    6.7680    1.0250 ca        1 PPJ      0.291600
      3 C6         -1.0770    7.7260   -1.0180 ca        1 PPJ      0.358200
      4 C2A        -0.4000    6.8780    2.5020 c3        1 PPJ     -0.104400
      5 C3         -0.3870    5.5020    0.4210 ca        1 PPJ      0.026800
      6 O3         -0.0570    4.4870    1.2900 oh        1 PPJ     -0.542100
      7 C4         -0.5560    5.3520   -0.9780 ca        1 PPJ     -0.218900
      8 C4A        -0.4280    4.0510   -1.6560 ce        1 PPJ      0.481800
      9 C5         -0.8880    6.4970   -1.7170 ca        1 PPJ     -0.129600
     10 N           0.3530    3.1050   -1.2590 n2        1 PPJ     -0.625900
     11 C5A        -1.0800    6.5240   -3.2170 c3        1 PPJ      0.242700
     12 OP4        -0.6700    7.7020   -3.7840 os        1 PPJ     -0.562200
     13 P          -1.9150    8.7580   -4.3790 p5        1 PPJ      1.315900
     14 OP1        -2.9830    7.7850   -4.8030 o         1 PPJ     -0.924500
     15 OP2        -1.2220    9.5100   -5.4780 o         1 PPJ     -0.924500
     16 OP3        -2.2220    9.5410   -3.1240 o         1 PPJ     -0.924500
     17 CA          0.4240    1.8580   -1.9890 c3        1 PPJ      0.005500
     18 CB          1.7570    1.6900   -2.7340 c3        1 PPJ     -0.080400
     19 C           0.1820    0.6120   -1.0700 c         1 PPJ      0.925600
     20 CG          2.9900    1.6780   -1.8330 c3        1 PPJ      0.156100
     21 CD          4.1230    2.4930   -2.4360 c3        1 PPJ     -0.089100
     22 O           1.0630    0.2610   -0.2320 o         1 PPJ     -0.850800
     23 OXT        -0.8900   -0.0290   -1.2560 o         1 PPJ     -0.850800
     24 OGL         3.4850    0.3480   -1.6820 oh        1 PPJ     -0.670800
     25 HC6        -1.3930    8.6250   -1.6460 h4        1 PPJ      0.150100
     26 H2A1       -1.1590    6.2390    3.0180 hc        1 PPJ      0.018700
     27 H2A2        0.6150    6.4960    2.7790 hc        1 PPJ      0.018700
     28 H2A3       -0.5040    7.9270    2.8660 hc        1 PPJ      0.018700
     29 HO3         0.1370    3.6840    0.7800 ho        1 PPJ      0.454000
     30 H4A        -1.0810    3.9700   -2.5580 h4        1 PPJ     -0.016200
     31 H5A1       -0.4730    5.6770   -3.6600 h1        1 PPJ      0.020700
     32 H5A2       -2.1780    6.3390   -3.4310 h1        1 PPJ      0.020700
     33 HA         -0.3850    1.8040   -2.7870 h1        1 PPJ      0.024700
     34 HCB         1.8570    2.5090   -3.4940 hc        1 PPJ      0.030700
     35 HB1         1.7060    0.7150   -3.2870 hc        1 PPJ      0.030700
     36 HCG         2.7280    2.0780   -0.8120 h1        1 PPJ      0.078700
     37 HC1         3.8130    3.5620   -2.5080 hc        1 PPJ      0.022700
     38 HC2         4.3790    2.1160   -3.4540 hc        1 PPJ      0.022700
     39 HC3         5.0330    2.4170   -1.7940 hc        1 PPJ      0.022700
     40 HGL         2.8050   -0.1240   -1.1720 ho        1 PPJ      0.446000
@<TRIPOS>BOND
     1    1    2 ar  
     2    1    3 ar  
     3    2    4 1   
     4    2    5 ar  
     5    3    9 ar  
     6    3   25 1   
     7    4   26 1   
     8    4   27 1   
     9    4   28 1   
    10    5    6 1   
    11    5    7 ar  
    12    6   29 1   
    13    7    8 1   
    14    7    9 ar  
    15    8   10 2   
    16    8   30 1   
    17    9   11 1   
    18   10   17 1   
    19   11   12 1   
    20   11   31 1   
    21   11   32 1   
    22   12   13 1   
    23   13   14 1   
    24   13   15 1   
    25   13   16 1   
    26   17   18 1   
    27   17   19 1   
    28   17   33 1   
    29   18   20 1   
    30   18   34 1   
    31   18   35 1   
    32   19   22 1   
    33   19   23 1   
    34   20   21 1   
    35   20   24 1   
    36   20   36 1   
    37   21   37 1   
    38   21   38 1   
    39   21   39 1   
    40   24   40 1   
@<TRIPOS>SUBSTRUCTURE
     1 PPJ         1 TEMP              0 ****  ****    0 ROOT
