@<TRIPOS>MOLECULE
PPJ
   40    40     1     0     0
SMALL
bcc


@<TRIPOS>ATOM
      1 N1         -0.2230   -0.4310    0.4380 nb        1 PPJ     -0.673000
      2 C2          1.0090    0.0790    0.1650 ca        1 PPJ      0.291600
      3 C6         -0.5350   -0.6700    1.7120 ca        1 PPJ      0.358200
      4 C2A         1.4060    0.3550   -1.2460 c3        1 PPJ     -0.104400
      5 C3          1.9440    0.3670    1.1890 ca        1 PPJ      0.026800
      6 O3          3.1380    0.8970    0.7550 oh        1 PPJ     -0.542100
      7 C4          1.6050    0.1260    2.5440 ca        1 PPJ     -0.218900
      8 C4A         2.5100    0.4620    3.6580 ce        1 PPJ      0.481800
      9 C5          0.3440   -0.4260    2.8080 ca        1 PPJ     -0.129600
     10 N           3.7960    0.4430    3.5730 n2        1 PPJ     -0.625900
     11 C5A        -0.1700   -0.7710    4.1890 c3        1 PPJ      0.242700
     12 OP4        -0.9770   -1.8780    4.1940 os        1 PPJ     -0.562200
     13 P          -2.6710   -1.6070    4.4730 p5        1 PPJ      1.315900
     14 OP1        -2.6580   -0.3990    5.3700 o         1 PPJ     -0.924500
     15 OP2        -3.1190   -2.8980    5.0960 o         1 PPJ     -0.924500
     16 OP3        -3.1350   -1.3520    3.0580 o         1 PPJ     -0.924500
     17 CA          4.6110    0.7800    4.7190 c3        1 PPJ      0.005500
     18 CB          5.3360   -0.4420    5.3030 c3        1 PPJ     -0.080400
     19 C           5.6580    1.9010    4.3990 c         1 PPJ      0.925600
     20 CG          6.2980   -1.1310    4.3360 c3        1 PPJ      0.156100
     21 CD          6.1860   -2.6440    4.4290 c3        1 PPJ     -0.089100
     22 O           6.6580    1.6450    3.6660 o         1 PPJ     -0.850800
     23 OXT         5.4740    3.0220    4.9500 o         1 PPJ     -0.850800
     24 OGL         7.6490   -0.8050    4.6610 oh        1 PPJ     -0.670800
     25 HC6        -1.5700   -1.0740    1.9700 h4        1 PPJ      0.150100
     26 H2A1        1.5810    1.4520   -1.3740 hc        1 PPJ      0.018700
     27 H2A2        0.6290    0.0270   -1.9780 hc        1 PPJ      0.018700
     28 H2A3        2.3650   -0.1740   -1.4720 hc        1 PPJ      0.018700
     29 HO3         3.7400    0.9830    1.5120 ho        1 PPJ      0.454000
     30 H4A         1.9600    0.7330    4.5900 h4        1 PPJ     -0.016200
     31 H5A1        0.7260   -0.9720    4.8520 h1        1 PPJ      0.020700
     32 H5A2       -0.7270    0.1320    4.5890 h1        1 PPJ      0.020700
     33 HA          3.9760    1.1960    5.5660 h1        1 PPJ      0.024700
     34 HCB         4.5730   -1.1810    5.6620 hc        1 PPJ      0.030700
     35 HB1         5.9150   -0.0870    6.1960 hc        1 PPJ      0.030700
     36 HCG         6.0950   -0.7930    3.2810 h1        1 PPJ      0.078700
     37 HC1         6.9410   -3.1250    3.7640 hc        1 PPJ      0.022700
     38 HC2         6.3680   -2.9870    5.4750 hc        1 PPJ      0.022700
     39 HC3         5.1640   -2.9600    4.1140 hc        1 PPJ      0.022700
     40 HGL         7.7400    0.1420    4.4640 ho        1 PPJ      0.446000
@<TRIPOS>BOND
     1    1    2 ar  
     2    1    3 ar  
     3    2    4 1   
     4    2    5 ar  
     5    3    9 ar  
     6    3   25 1   
     7    4   26 1   
     8    4   27 1   
     9    4   28 1   
    10    5    6 1   
    11    5    7 ar  
    12    6   29 1   
    13    7    8 1   
    14    7    9 ar  
    15    8   10 2   
    16    8   30 1   
    17    9   11 1   
    18   10   17 1   
    19   11   12 1   
    20   11   31 1   
    21   11   32 1   
    22   12   13 1   
    23   13   14 1   
    24   13   15 1   
    25   13   16 1   
    26   17   18 1   
    27   17   19 1   
    28   17   33 1   
    29   18   20 1   
    30   18   34 1   
    31   18   35 1   
    32   19   22 1   
    33   19   23 1   
    34   20   21 1   
    35   20   24 1   
    36   20   36 1   
    37   21   37 1   
    38   21   38 1   
    39   21   39 1   
    40   24   40 1   
@<TRIPOS>SUBSTRUCTURE
     1 PPJ         1 TEMP              0 ****  ****    0 ROOT
