@<TRIPOS>MOLECULE
PPJ
   40    40     1     0     0
SMALL
bcc


@<TRIPOS>ATOM
      1 N1         -0.2360   -0.3990    0.4500 nb        1 PPJ     -0.673000
      2 C2          0.9910    0.1260    0.1810 ca        1 PPJ      0.291600
      3 C6         -0.5400   -0.6640    1.7200 ca        1 PPJ      0.358200
      4 C2A         1.3790    0.4320   -1.2260 c3        1 PPJ     -0.104400
      5 C3          1.9280    0.4020    1.2060 ca        1 PPJ      0.026800
      6 O3          3.1160    0.9490    0.7770 oh        1 PPJ     -0.542100
      7 C4          1.5980    0.1310    2.5580 ca        1 PPJ     -0.218900
      8 C4A         2.5050    0.4530    3.6740 ce        1 PPJ      0.481800
      9 C5          0.3420   -0.4350    2.8180 ca        1 PPJ     -0.129600
     10 N           3.7910    0.4450    3.5830 n2        1 PPJ     -0.625900
     11 C5A        -0.1630   -0.8100    4.1940 c3        1 PPJ      0.242700
     12 OP4        -0.9620   -1.9240    4.1810 os        1 PPJ     -0.562200
     13 P          -2.6560   -1.6710    4.4720 p5        1 PPJ      1.315900
     14 OP1        -2.6480   -0.4800    5.3930 o         1 PPJ     -0.924500
     15 OP2        -3.0920   -2.9770    5.0730 o         1 PPJ     -0.924500
     16 OP3        -3.1290   -1.3920    3.0650 o         1 PPJ     -0.924500
     17 CA          4.6090    0.7660    4.7320 c3        1 PPJ      0.005500
     18 CB          5.3460   -0.4610    5.2880 c3        1 PPJ     -0.080400
     19 C           5.6450    1.9020    4.4290 c         1 PPJ      0.925600
     20 CG          6.3090   -1.1230    4.3030 c3        1 PPJ      0.156100
     21 CD          6.2090   -2.6380    4.3670 c3        1 PPJ     -0.089100
     22 O           6.6430    1.6690    3.6860 o         1 PPJ     -0.850800
     23 OXT         5.4550    3.0100    5.0030 o         1 PPJ     -0.850800
     24 OGL         7.6590   -0.7920    4.6280 oh        1 PPJ     -0.670800
     25 HC6        -1.5710   -1.0820    1.9750 h4        1 PPJ      0.150100
     26 H2A1        2.3390   -0.0890   -1.4680 hc        1 PPJ      0.019033
     27 H2A2        1.5490    1.5320   -1.3330 hc        1 PPJ      0.019033
     28 H2A3        0.6000    0.1150   -1.9610 hc        1 PPJ      0.019033
     29 HO3         3.7210    1.0240    1.5330 ho        1 PPJ      0.454000
     30 H4A         1.9580    0.7030    4.6140 h4        1 PPJ     -0.016200
     31 H5A1       -0.7250    0.0800    4.6130 h1        1 PPJ      0.020700
     32 H5A2        0.7370   -1.0170    4.8480 h1        1 PPJ      0.020700
     33 HA          3.9750    1.1600    5.5890 h1        1 PPJ      0.024700
     34 HCB         4.5920   -1.2140    5.6360 hc        1 PPJ      0.030700
     35 HB1         5.9270   -0.1190    6.1850 hc        1 PPJ      0.030700
     36 HCG         6.0980   -0.7660    3.2550 h1        1 PPJ      0.078700
     37 HC1         6.4000   -3.0010    5.4050 hc        1 PPJ      0.022700
     38 HC2         5.1890   -2.9570    4.0500 hc        1 PPJ      0.022700
     39 HC3         6.9660   -3.1000    3.6890 hc        1 PPJ      0.022700
     40 HGL         7.7420    0.1590    4.4480 ho        1 PPJ      0.446000
@<TRIPOS>BOND
     1    1    2 ar  
     2    1    3 ar  
     3    2    4 1   
     4    2    5 ar  
     5    3    9 ar  
     6    3   25 1   
     7    4   26 1   
     8    4   27 1   
     9    4   28 1   
    10    5    6 1   
    11    5    7 ar  
    12    6   29 1   
    13    7    8 1   
    14    7    9 ar  
    15    8   10 2   
    16    8   30 1   
    17    9   11 1   
    18   10   17 1   
    19   11   12 1   
    20   11   31 1   
    21   11   32 1   
    22   12   13 1   
    23   13   14 1   
    24   13   15 1   
    25   13   16 1   
    26   17   18 1   
    27   17   19 1   
    28   17   33 1   
    29   18   20 1   
    30   18   34 1   
    31   18   35 1   
    32   19   22 1   
    33   19   23 1   
    34   20   21 1   
    35   20   24 1   
    36   20   36 1   
    37   21   37 1   
    38   21   38 1   
    39   21   39 1   
    40   24   40 1   
@<TRIPOS>SUBSTRUCTURE
     1 PPJ         1 TEMP              0 ****  ****    0 ROOT
