@<TRIPOS>MOLECULE
PPK
   14    13     1     0     0
SMALL
bcc


@<TRIPOS>ATOM
      1 O1G         0.9610   -1.6210    3.2960 o         1 PPK     -1.004167
      2 PG          0.0040   -0.4580    2.9980 p5        1 PPK      1.363800
      3 O2G        -1.4260   -0.9240    3.3070 o         1 PPK     -1.004167
      4 O3G         0.3600    0.7470    3.8710 o         1 PPK     -1.004167
      5 N3B         0.1020   -0.0960    1.3140 n3        1 PPK     -0.970400
      6 PB          0.4040    0.9590    0.0650 p5        1 PPK      1.609700
      7 O1B        -0.5640    2.1180    0.0500 o         1 PPK     -0.969500
      8 O2B         1.8440    1.4160    0.0390 o         1 PPK     -0.969500
      9 O3A         0.1540    0.1240   -1.3440 os        1 PPK     -0.852800
     10 PA         -0.0210   -0.4500   -2.9350 p5        1 PPK      1.493900
     11 O1A         0.9450   -1.6120   -3.1180 o         1 PPK     -1.010833
     12 O2A        -1.4620   -0.9100   -3.1070 o         1 PPK     -1.010833
     13 O4A         0.3030    0.6750   -3.9080 o         1 PPK     -1.010833
     14 H3B        -0.1520   -0.9580    0.8910 hn        1 PPK      0.339800
@<TRIPOS>BOND
     1    1    2 1   
     2    2    3 1   
     3    2    4 1   
     4    2    5 1   
     5    5    6 1   
     6    5   14 1   
     7    6    7 1   
     8    6    8 1   
     9    6    9 1   
    10    9   10 1   
    11   10   11 1   
    12   10   12 1   
    13   10   13 1   
@<TRIPOS>SUBSTRUCTURE
     1 PPK         1 TEMP              0 ****  ****    0 ROOT
