@<TRIPOS>MOLECULE
PPK
   14    13     1     0     0
SMALL
bcc


@<TRIPOS>ATOM
      1 O1G         0.1130    0.9410   -0.7070 o         1 PPK     -1.004167
      2 PG          1.1360    0.2870    0.2330 p5        1 PPK      1.363800
      3 O2G         0.9310    0.8670    1.6400 o         1 PPK     -1.004167
      4 O3G         0.9270   -1.2280    0.2580 o         1 PPK     -1.004167
      5 N3B         2.7170    0.7200   -0.3050 n3        1 PPK     -0.970400
      6 PB          4.2350    0.3120   -0.8470 p5        1 PPK      1.609700
      7 O1B         5.0190   -0.4650    0.1840 o         1 PPK     -0.969500
      8 O2B         4.1940   -0.3910   -2.1830 o         1 PPK     -0.969500
      9 O3A         5.0590    1.7290   -1.0890 os        1 PPK     -0.852800
     10 PA          6.1500    2.9870   -1.4310 p5        1 PPK      1.493900
     11 O1A         5.5320    3.8570   -2.5160 o         1 PPK     -1.010833
     12 O2A         6.3570    3.7830   -0.1500 o         1 PPK     -1.010833
     13 O4A         7.4660    2.3870   -1.9080 o         1 PPK     -1.010833
     14 H3B         2.6960    1.7120   -0.2670 hn        1 PPK      0.339800
@<TRIPOS>BOND
     1    1    2 1   
     2    2    3 1   
     3    2    4 1   
     4    2    5 1   
     5    5    6 1   
     6    5   14 1   
     7    6    7 1   
     8    6    8 1   
     9    6    9 1   
    10    9   10 1   
    11   10   11 1   
    12   10   12 1   
    13   10   13 1   
@<TRIPOS>SUBSTRUCTURE
     1 PPK         1 TEMP              0 ****  ****    0 ROOT
