@<TRIPOS>MOLECULE
PPL
   34    34     1     0     0
SMALL
bcc


@<TRIPOS>ATOM
      1 N1          0.9580   -0.7610    0.4540 n3        1 PPL     -0.852200
      2 C2          1.1530    0.2140   -0.6050 c3        1 PPL      0.117500
      3 C3          1.7310    1.5620   -0.1360 c3        1 PPL     -0.081400
      4 C4          0.9540    2.0950    1.0480 c3        1 PPL     -0.084400
      5 C5          0.9360    1.0730    2.1630 c3        1 PPL     -0.089400
      6 C6          0.3530   -0.2470    1.6730 c3        1 PPL      0.159800
      7 C           2.1260   -0.3210   -1.6700 c         1 PPL      0.536100
      8 O           2.0320   -0.1240   -2.8710 o         1 PPL     -0.418100
      9 N           3.3360   -1.0680   -1.1770 n4        1 PPL     -0.676800
     10 C1'         3.4440   -2.5090   -1.6860 c3        1 PPL      0.162200
     11 C2'         4.5220   -3.2280   -0.8670 c3        1 PPL     -0.129100
     12 C3'         3.8460   -2.5170   -3.1620 c3        1 PPL     -0.129100
     13 C4'         2.1110   -3.2340   -1.5060 c3        1 PPL     -0.129100
     14 HN1         0.4030   -1.5240    0.1050 hn        1 PPL      0.379800
     15 H2          0.1930    0.4250   -1.1750 h1        1 PPL      0.097700
     16 H31         1.6800    2.2860   -0.9910 hc        1 PPL      0.060700
     17 H32         2.8070    1.4400    0.1550 hc        1 PPL      0.060700
     18 H41         1.4300    3.0460    1.4050 hc        1 PPL      0.071200
     19 H42        -0.0950    2.3410    0.7360 hc        1 PPL      0.071200
     20 H51         0.3060    1.4430    3.0140 hc        1 PPL      0.068200
     21 H52         1.9740    0.9160    2.5560 hc        1 PPL      0.068200
     22 H61         0.5170   -1.0400    2.4580 h1        1 PPL      0.059700
     23 H62        -0.7610   -0.1140    1.5450 h1        1 PPL      0.059700
     24 HN          3.3200   -1.0950   -0.1500 hn        1 PPL      0.462800
     25 H2'1        4.2570   -3.2660    0.2170 hc        1 PPL      0.076922
     26 H2'2        5.5190   -2.7390   -0.9890 hc        1 PPL      0.076922
     27 H2'3        4.6030   -4.2790   -1.2420 hc        1 PPL      0.076922
     28 H3'1        4.8360   -2.0220   -3.3150 hc        1 PPL      0.076922
     29 H3'2        3.9320   -3.5800   -3.4970 hc        1 PPL      0.076922
     30 H3'3        3.0790   -2.0090   -3.7970 hc        1 PPL      0.076922
     31 H4'1        1.2890   -2.7160   -2.0590 hc        1 PPL      0.076922
     32 H4'2        1.8390   -3.3200   -0.4260 hc        1 PPL      0.076922
     33 H4'3        2.2130   -4.2670   -1.9230 hc        1 PPL      0.076922
     34 HN3         4.1800   -0.5720   -1.4840 hn        1 PPL      0.462800
@<TRIPOS>BOND
     1    1    2 1   
     2    1    6 1   
     3    1   14 1   
     4    2    3 1   
     5    2    7 1   
     6    2   15 1   
     7    3    4 1   
     8    3   16 1   
     9    3   17 1   
    10    4    5 1   
    11    4   18 1   
    12    4   19 1   
    13    5    6 1   
    14    5   20 1   
    15    5   21 1   
    16    6   22 1   
    17    6   23 1   
    18    7    8 2   
    19    7    9 1   
    20    9   10 1   
    21    9   24 1   
    22    9   34 1   
    23   10   11 1   
    24   10   12 1   
    25   10   13 1   
    26   11   25 1   
    27   11   26 1   
    28   11   27 1   
    29   12   28 1   
    30   12   29 1   
    31   12   30 1   
    32   13   31 1   
    33   13   32 1   
    34   13   33 1   
@<TRIPOS>SUBSTRUCTURE
     1 PPL         1 TEMP              0 ****  ****    0 ROOT
