@<TRIPOS>MOLECULE
PPL
   34    34     1     0     0
SMALL
bcc


@<TRIPOS>ATOM
      1 N1          0.5430   -0.5690    0.9840 n3        1 PPL     -0.855200
      2 C2          0.6810   -0.1300   -0.3940 c3        1 PPL      0.116500
      3 C3          1.6290    1.0630   -0.6130 c3        1 PPL     -0.081400
      4 C4          1.3440    2.1700    0.3770 c3        1 PPL     -0.084400
      5 C5          1.4240    1.6390    1.7900 c3        1 PPL     -0.090400
      6 C6          0.4490    0.4850    1.9830 c3        1 PPL      0.159800
      7 C           1.2250   -1.2840   -1.2610 c         1 PPL      0.535100
      8 O           0.8360   -1.5660   -2.3820 o         1 PPL     -0.414100
      9 N           2.3230   -2.1070   -0.6410 n4        1 PPL     -0.671800
     10 C1'         3.4290   -2.5970   -1.5770 c3        1 PPL      0.157200
     11 C2'         4.5820   -3.1260   -0.7140 c3        1 PPL     -0.130433
     12 C3'         3.9380   -1.4460   -2.4430 c3        1 PPL     -0.130433
     13 C4'         2.9120   -3.7290   -2.4650 c3        1 PPL     -0.130433
     14 HN1        -0.2640   -1.1640    1.0620 hn        1 PPL      0.382800
     15 H2         -0.3210    0.1310   -0.8630 h1        1 PPL      0.099700
     16 H31         2.6960    0.7360   -0.5030 hc        1 PPL      0.059200
     17 H32         1.4880    1.4350   -1.6610 hc        1 PPL      0.059200
     18 H41         0.3260    2.6020    0.1860 hc        1 PPL      0.071200
     19 H42         2.0900    2.9960    0.2330 hc        1 PPL      0.071200
     20 H51         2.4700    1.3060    2.0170 hc        1 PPL      0.067700
     21 H52         1.1630    2.4480    2.5220 hc        1 PPL      0.067700
     22 H61        -0.5970    0.9110    2.0200 h1        1 PPL      0.061200
     23 H62         0.6520   -0.0130    2.9750 h1        1 PPL      0.061200
     24 HN          2.7640   -1.5460    0.0990 hn        1 PPL      0.462800
     25 H2'1        5.0220   -2.3180   -0.0790 hc        1 PPL      0.076811
     26 H2'2        4.2510   -3.9710   -0.0630 hc        1 PPL      0.076811
     27 H2'3        5.3830   -3.5070   -1.3950 hc        1 PPL      0.076811
     28 H3'1        4.7970   -1.8190   -3.0550 hc        1 PPL      0.076811
     29 H3'2        4.3000   -0.5930   -1.8190 hc        1 PPL      0.076811
     30 H3'3        3.1450   -1.0860   -3.1430 hc        1 PPL      0.076811
     31 H4'1        2.0850   -3.3800   -3.1320 hc        1 PPL      0.076811
     32 H4'2        2.5560   -4.5940   -1.8540 hc        1 PPL      0.076811
     33 H4'3        3.7560   -4.0820   -3.1100 hc        1 PPL      0.076811
     34 HN3         1.8910   -2.9290   -0.2040 hn        1 PPL      0.462800
@<TRIPOS>BOND
     1    1    2 1   
     2    1    6 1   
     3    1   14 1   
     4    2    3 1   
     5    2    7 1   
     6    2   15 1   
     7    3    4 1   
     8    3   16 1   
     9    3   17 1   
    10    4    5 1   
    11    4   18 1   
    12    4   19 1   
    13    5    6 1   
    14    5   20 1   
    15    5   21 1   
    16    6   22 1   
    17    6   23 1   
    18    7    8 2   
    19    7    9 1   
    20    9   10 1   
    21    9   24 1   
    22    9   34 1   
    23   10   11 1   
    24   10   12 1   
    25   10   13 1   
    26   11   25 1   
    27   11   26 1   
    28   11   27 1   
    29   12   28 1   
    30   12   29 1   
    31   12   30 1   
    32   13   31 1   
    33   13   32 1   
    34   13   33 1   
@<TRIPOS>SUBSTRUCTURE
     1 PPL         1 TEMP              0 ****  ****    0 ROOT
