@<TRIPOS>MOLECULE
PPL
   33    33     1     0     0
SMALL
bcc


@<TRIPOS>ATOM
      1 N1         -0.2460    0.9030   -1.7000 n3        1 PPL     -0.824200
      2 C2         -0.6150   -0.4160   -1.1980 c3        1 PPL      0.097500
      3 C3          0.4190   -1.4930   -1.5580 c3        1 PPL     -0.073400
      4 C4          0.6660   -1.5100   -3.0520 c3        1 PPL     -0.080400
      5 C5          1.0680   -0.1350   -3.5420 c3        1 PPL     -0.079400
      6 C6          0.0420    0.9160   -3.1220 c3        1 PPL      0.165800
      7 C          -0.8060   -0.4100    0.3370 c         1 PPL      0.659100
      8 O          -1.8410   -0.9170    0.8150 o         1 PPL     -0.622100
      9 N           0.2020    0.1190    1.1020 n         1 PPL     -0.553900
     10 C1'         0.1460    0.2410    2.5570 c3        1 PPL      0.123400
     11 C2'         1.4330    0.9090    3.0750 c3        1 PPL     -0.108100
     12 C3'         0.0250   -1.1340    3.2340 c3        1 PPL     -0.108100
     13 C4'        -1.0450    1.0990    3.0170 c3        1 PPL     -0.108100
     14 HN1        -0.9800    1.5560   -1.4940 hn        1 PPL      0.367800
     15 H2         -1.6140   -0.7490   -1.6220 h1        1 PPL      0.054700
     16 H31         1.3830   -1.2990   -1.0210 hc        1 PPL      0.055200
     17 H32         0.0260   -2.4850   -1.2170 hc        1 PPL      0.055200
     18 H41         1.4730   -2.2500   -3.2910 hc        1 PPL      0.044700
     19 H42        -0.2640   -1.8430   -3.5830 hc        1 PPL      0.044700
     20 H51         2.0750    0.1330   -3.1300 hc        1 PPL      0.048700
     21 H52         1.1430   -0.1310   -4.6600 hc        1 PPL      0.048700
     22 H61         0.4450    1.9410   -3.3630 h1        1 PPL      0.031700
     23 H62        -0.8910    0.7620   -3.7400 h1        1 PPL      0.031700
     24 HN          0.9540    0.5800    0.6460 hn        1 PPL      0.323500
     25 H2'1        1.3740    0.9870    4.1870 hc        1 PPL      0.044922
     26 H2'2        2.3320    0.3040    2.8090 hc        1 PPL      0.044922
     27 H2'3        1.5480    1.9360    2.6540 hc        1 PPL      0.044922
     28 H3'1        0.9010   -1.7780    2.9820 hc        1 PPL      0.044922
     29 H3'2       -0.0100   -0.9940    4.3410 hc        1 PPL      0.044922
     30 H3'3       -0.9110   -1.6470    2.9040 hc        1 PPL      0.044922
     31 H4'1       -0.9720    2.1330    2.6030 hc        1 PPL      0.044922
     32 H4'2       -2.0050    0.6380    2.6800 hc        1 PPL      0.044922
     33 H4'3       -1.0450    1.1600    4.1310 hc        1 PPL      0.044922
@<TRIPOS>BOND
     1    1    2 1   
     2    1    6 1   
     3    1   14 1   
     4    2    3 1   
     5    2    7 1   
     6    2   15 1   
     7    3    4 1   
     8    3   16 1   
     9    3   17 1   
    10    4    5 1   
    11    4   18 1   
    12    4   19 1   
    13    5    6 1   
    14    5   20 1   
    15    5   21 1   
    16    6   22 1   
    17    6   23 1   
    18    7    8 2   
    19    7    9 1   
    20    9   10 1   
    21    9   24 1   
    22   10   11 1   
    23   10   12 1   
    24   10   13 1   
    25   11   25 1   
    26   11   26 1   
    27   11   27 1   
    28   12   28 1   
    29   12   29 1   
    30   12   30 1   
    31   13   31 1   
    32   13   32 1   
    33   13   33 1   
@<TRIPOS>SUBSTRUCTURE
     1 PPL         1 TEMP              0 ****  ****    0 ROOT
