@<TRIPOS>MOLECULE
PPL
   34    34     1     0     0
SMALL
bcc


@<TRIPOS>ATOM
      1 N1          0.6280   -0.6470    1.0870 n7        1 PPL     -0.855200
      2 C2          0.6470   -0.2270   -0.3030 c3        1 PPL      0.116500
      3 C3          1.4980    1.0200   -0.6030 c3        1 PPL     -0.081400
      4 C4          1.2090    2.1260    0.3870 c3        1 PPL     -0.084400
      5 C5          1.4170    1.6280    1.7990 c3        1 PPL     -0.090400
      6 C6          0.5330    0.4180    2.0750 c3        1 PPL      0.159800
      7 C           1.2060   -1.3600   -1.1870 c         1 PPL      0.535100
      8 O           0.7630   -1.6880   -2.2750 o         1 PPL     -0.414100
      9 N           2.3930   -2.0990   -0.6300 ny        1 PPL     -0.671800
     10 C1'         3.4650   -2.5360   -1.6300 c3        1 PPL      0.157200
     11 C2'         4.7040   -2.9730   -0.8380 c3        1 PPL     -0.130433
     12 C3'         3.8400   -1.3710   -2.5460 c3        1 PPL     -0.130433
     13 C4'         2.9650   -3.7160   -2.4640 c3        1 PPL     -0.130433
     14 HN1        -0.1320   -1.2900    1.2280 hn        1 PPL      0.382800
     15 H2         -0.3990   -0.0400   -0.7080 h1        1 PPL      0.099700
     16 H31         2.5900    0.7630   -0.5610 hc        1 PPL      0.059200
     17 H32         1.2640    1.3620   -1.6450 hc        1 PPL      0.059200
     18 H41         1.8890    2.9940    0.1810 hc        1 PPL      0.071200
     19 H42         0.1540    2.4880    0.2590 hc        1 PPL      0.071200
     20 H51         1.1520    2.4330    2.5350 hc        1 PPL      0.067700
     21 H52         2.4950    1.3660    1.9600 hc        1 PPL      0.067700
     22 H61         0.8320   -0.0470    3.0580 h1        1 PPL      0.061200
     23 H62        -0.5340    0.7780    2.1750 h1        1 PPL      0.061200
     24 HN          2.8450   -1.4970    0.0710 hn        1 PPL      0.462800
     25 H2'1        4.4720   -3.8240   -0.1530 hc        1 PPL      0.076811
     26 H2'2        5.1320   -2.1270   -0.2480 hc        1 PPL      0.076811
     27 H2'3        5.4820   -3.3160   -1.5660 hc        1 PPL      0.076811
     28 H3'1        4.1850   -0.4850   -1.9600 hc        1 PPL      0.076811
     29 H3'2        4.6790   -1.7010   -3.2090 hc        1 PPL      0.076811
     30 H3'3        2.9800   -1.0770   -3.1970 hc        1 PPL      0.076811
     31 H4'1        3.7860   -4.0260   -3.1590 hc        1 PPL      0.076811
     32 H4'2        2.7080   -4.5900   -1.8180 hc        1 PPL      0.076811
     33 H4'3        2.0750   -3.4340   -3.0790 hc        1 PPL      0.076811
     34 HN3         2.0460   -2.9380   -0.1530 hn        1 PPL      0.462800
@<TRIPOS>BOND
     1    1    2 1   
     2    1    6 1   
     3    1   14 1   
     4    2    3 1   
     5    2    7 1   
     6    2   15 1   
     7    3    4 1   
     8    3   16 1   
     9    3   17 1   
    10    4    5 1   
    11    4   18 1   
    12    4   19 1   
    13    5    6 1   
    14    5   20 1   
    15    5   21 1   
    16    6   22 1   
    17    6   23 1   
    18    7    8 2   
    19    7    9 1   
    20    9   10 1   
    21    9   24 1   
    22    9   34 1   
    23   10   11 1   
    24   10   12 1   
    25   10   13 1   
    26   11   25 1   
    27   11   26 1   
    28   11   27 1   
    29   12   28 1   
    30   12   29 1   
    31   12   30 1   
    32   13   31 1   
    33   13   32 1   
    34   13   33 1   
@<TRIPOS>SUBSTRUCTURE
     1 PPL         1 TEMP              0 ****  ****    0 ROOT
