@<TRIPOS>MOLECULE
PPM
    8     7     1     0     0
SMALL
bcc


@<TRIPOS>ATOM
      1 CM          0.0790   -0.0000   -0.0110 c3        1 PPM     -0.281300
      2 P           1.8690    0.0000   -0.0200 p5        1 PPM      1.223700
      3 O1P         2.2390    0.0000    1.4510 o         1 PPM     -0.971500
      4 O2P         2.2280   -1.2750   -0.7580 o         1 PPM     -0.971500
      5 O3P         2.2280    1.2750   -0.7580 o         1 PPM     -0.971500
      6 HM1        -0.2860   -0.9040    0.5130 hc        1 PPM     -0.009300
      7 HM2        -0.2940    0.0000   -1.0520 hc        1 PPM     -0.009300
      8 HM3        -0.2860    0.9040    0.5130 hc        1 PPM     -0.009300
@<TRIPOS>BOND
     1    1    2 1   
     2    1    6 1   
     3    1    7 1   
     4    1    8 1   
     5    2    3 1   
     6    2    4 1   
     7    2    5 1   
@<TRIPOS>SUBSTRUCTURE
     1 PPM         1 TEMP              0 ****  ****    0 ROOT
