@<TRIPOS>MOLECULE
PPM
    8     7     1     0     0
SMALL
bcc


@<TRIPOS>ATOM
      1 CM          1.7000   -0.0000   -0.2130 c3        1 PPM     -0.281300
      2 P          -0.0750    0.0000    0.0170 p5        1 PPM      1.223700
      3 O1P        -0.2450    0.0000    1.5240 o         1 PPM     -0.971500
      4 O2P        -0.5300    1.2750   -0.6660 o         1 PPM     -0.971500
      5 O3P        -0.5300   -1.2750   -0.6660 o         1 PPM     -0.971500
      6 HM1         2.1320    0.9040    0.2570 hc        1 PPM     -0.009300
      7 HM2         2.1320   -0.9040    0.2570 hc        1 PPM     -0.009300
      8 HM3         1.9300   -0.0000   -1.2950 hc        1 PPM     -0.009300
@<TRIPOS>BOND
     1    1    2 1   
     2    1    6 1   
     3    1    7 1   
     4    1    8 1   
     5    2    3 1   
     6    2    4 1   
     7    2    5 1   
@<TRIPOS>SUBSTRUCTURE
     1 PPM         1 TEMP              0 ****  ****    0 ROOT
