@<TRIPOS>MOLECULE
PPN
   24    24     1     0     0
SMALL
bcc


@<TRIPOS>ATOM
      1 N           0.3700   -1.9730   -0.0190 n3        1 PPN     -0.886800
      2 CA          1.0400   -2.2510    1.2460 c3        1 PPN      0.020500
      3 C           0.1670   -3.0530    2.2700 c         1 PPN      0.887600
      4 O          -1.0390   -3.2770    1.9750 o         1 PPN     -0.837300
      5 OXT         0.7290   -3.4430    3.3330 o         1 PPN     -0.837300
      6 CB          1.5430   -0.9640    1.9280 c3        1 PPN     -0.032100
      7 CG          2.9900   -1.0420    2.2670 ca        1 PPN      0.004700
      8 CD1         3.4550   -2.0760    3.0960 ca        1 PPN     -0.149500
      9 CD2         3.8940   -0.0860    1.7870 ca        1 PPN     -0.149500
     10 CE1         4.7960   -2.1530    3.4470 ca        1 PPN     -0.078000
     11 CE2         5.2410   -0.1460    2.1260 ca        1 PPN     -0.078000
     12 CZ          5.6920   -1.1820    2.9620 ca        1 PPN     -0.205200
     13 N1          7.1220   -1.2490    3.3310 no        1 PPN      0.315200
     14 O1          7.8830   -0.4110    2.9140 o         1 PPN     -0.238000
     15 O2          7.5120   -2.1380    4.0450 o         1 PPN     -0.238000
     16 H           0.0360   -2.8510   -0.3770 hn        1 PPN      0.335300
     17 H2         -0.4480   -1.4210    0.1740 hn        1 PPN      0.335300
     18 HA          1.9270   -2.9050    1.0040 h1        1 PPN      0.047700
     19 HB2         1.3550   -0.0620    1.2860 hc        1 PPN      0.055700
     20 HB3         0.9680   -0.8250    2.8850 hc        1 PPN      0.055700
     21 HD1         2.7170   -2.8310    3.4580 ha        1 PPN      0.182500
     22 HD2         3.5380    0.7210    1.1290 ha        1 PPN      0.182500
     23 HE1         5.1560   -2.9660    4.0980 ha        1 PPN      0.154500
     24 HE2         5.9480    0.6080    1.7450 ha        1 PPN      0.154500
@<TRIPOS>BOND
     1    1    2 1   
     2    1   16 1   
     3    1   17 1   
     4    2    3 1   
     5    2    6 1   
     6    2   18 1   
     7    3    4 1   
     8    3    5 1   
     9    6    7 1   
    10    6   19 1   
    11    6   20 1   
    12    7    8 ar  
    13    7    9 ar  
    14    8   10 ar  
    15    8   21 1   
    16    9   11 ar  
    17    9   22 1   
    18   10   12 ar  
    19   10   23 1   
    20   11   12 ar  
    21   11   24 1   
    22   12   13 1   
    23   13   14 1   
    24   13   15 1   
@<TRIPOS>SUBSTRUCTURE
     1 PPN         1 TEMP              0 ****  ****    0 ROOT
