@<TRIPOS>MOLECULE
PPO
   14    15     1     0     0
SMALL
bcc


@<TRIPOS>ATOM
      1 O6         -0.0390   -0.1770    0.0750 oh        1 PPO     -0.575300
      2 C6          1.3210   -0.1250    0.0280 ca        1 PPO      0.723600
      3 C5          2.0450   -0.0670    1.2310 ca        1 PPO     -0.259200
      4 N7          1.6710   -0.0490    2.6250 ne        1 PPO     -0.083400
      5 N8          2.6710    0.0080    3.3380 n2        1 PPO     -0.180200
      6 C9          3.9590    0.0400    2.5710 c3        1 PPO     -0.039500
      7 C4          3.4920   -0.0130    1.1260 ca        1 PPO      0.423600
      8 N3          4.1510   -0.0140   -0.0330 nb        1 PPO     -0.684000
      9 C2          3.3300   -0.0730   -1.1360 ca        1 PPO      0.686900
     10 N1          1.9830   -0.1270   -1.1780 nb        1 PPO     -0.770000
     11 HO6        -0.3990   -0.2130   -0.8300 ho        1 PPO      0.450000
     12 HC91        4.5870   -0.8460    2.8480 h1        1 PPO      0.120700
     13 HC92        4.5140    0.9850    2.8040 h1        1 PPO      0.120700
     14 HC2         3.8490   -0.0760   -2.1190 h5        1 PPO      0.065100
@<TRIPOS>BOND
     1    1    2 1   
     2    1   11 1   
     3    2    3 ar  
     4    2   10 ar  
     5    3    4 1   
     6    3    7 ar  
     7    4    5 2   
     8    5    6 1   
     9    6    7 1   
    10    6   12 1   
    11    6   13 1   
    12    7    8 ar  
    13    8    9 ar  
    14    9   10 ar  
    15    9   14 1   
@<TRIPOS>SUBSTRUCTURE
     1 PPO         1 TEMP              0 ****  ****    0 ROOT
