@<TRIPOS>MOLECULE
PPO
   14    15     1     0     0
SMALL
bcc


@<TRIPOS>ATOM
      1 O6          2.0540   -0.2540    1.5170 oh        1 PPO     -0.575300
      2 C6          0.7620   -0.1700    1.0930 ca        1 PPO      0.723600
      3 C5          0.4990   -0.0880   -0.2850 ca        1 PPO     -0.259200
      4 N7          1.3330   -0.0690   -1.4640 ne        1 PPO     -0.083400
      5 N8          0.6410    0.0160   -2.4780 n2        1 PPO     -0.180200
      6 C9         -0.8310    0.0740   -2.2010 c3        1 PPO     -0.039500
      7 C4         -0.8940    0.0010   -0.6850 ca        1 PPO      0.423600
      8 N3         -1.9120    0.0070    0.1760 nb        1 PPO     -0.684000
      9 C2         -1.5240   -0.0780    1.4930 ca        1 PPO      0.686900
     10 N1         -0.2760   -0.1640    1.9970 nb        1 PPO     -0.770000
     11 HO6         2.0780   -0.3040    2.4900 ho        1 PPO      0.450000
     12 HC91       -1.3430   -0.7950   -2.6900 h1        1 PPO      0.120700
     13 HC92       -1.2530    1.0330   -2.5980 h1        1 PPO      0.120700
     14 HC2        -2.3500   -0.0750    2.2370 h5        1 PPO      0.065100
@<TRIPOS>BOND
     1    1    2 1   
     2    1   11 1   
     3    2    3 ar  
     4    2   10 ar  
     5    3    4 1   
     6    3    7 ar  
     7    4    5 2   
     8    5    6 1   
     9    6    7 1   
    10    6   12 1   
    11    6   13 1   
    12    7    8 ar  
    13    8    9 ar  
    14    9   10 ar  
    15    9   14 1   
@<TRIPOS>SUBSTRUCTURE
     1 PPO         1 TEMP              0 ****  ****    0 ROOT
