@<TRIPOS>MOLECULE
PPO
   14    15     1     0     0
SMALL
bcc


@<TRIPOS>ATOM
      1 O6         -0.0310   -0.2150    0.0900 oh        1 PPO     -0.575300
      2 C6          1.3270   -0.1390    0.0370 ca        1 PPO      0.723600
      3 C5          2.0570   -0.0870    1.2370 ca        1 PPO     -0.259200
      4 N7          1.6890   -0.0970    2.6340 ne        1 PPO     -0.083400
      5 N8          2.6920   -0.0340    3.3430 n2        1 PPO     -0.180200
      6 C9          3.9750    0.0330    2.5700 c3        1 PPO     -0.039500
      7 C4          3.5020   -0.0060    1.1260 ca        1 PPO      0.423600
      8 N3          4.1550    0.0210   -0.0360 nb        1 PPO     -0.684000
      9 C2          3.3300   -0.0350   -1.1360 ca        1 PPO      0.686900
     10 N1          1.9840   -0.1110   -1.1720 nb        1 PPO     -0.770000
     11 HO6        -0.3950   -0.2430   -0.8140 ho        1 PPO      0.450000
     12 HC91        4.5160    0.9830    2.8150 h1        1 PPO      0.120700
     13 HC92        4.6190   -0.8460    2.8300 h1        1 PPO      0.120700
     14 HC2         3.8440   -0.0130   -2.1210 h5        1 PPO      0.065100
@<TRIPOS>BOND
     1    1    2 1   
     2    1   11 1   
     3    2    3 ar  
     4    2   10 ar  
     5    3    4 1   
     6    3    7 ar  
     7    4    5 2   
     8    5    6 1   
     9    6    7 1   
    10    6   12 1   
    11    6   13 1   
    12    7    8 ar  
    13    8    9 ar  
    14    9   10 ar  
    15    9   14 1   
@<TRIPOS>SUBSTRUCTURE
     1 PPO         1 TEMP              0 ****  ****    0 ROOT
