@<TRIPOS>MOLECULE
PPP
   23    23     1     0     0
SMALL
bcc


@<TRIPOS>ATOM
      1 C1          0.1410   -0.2130   -0.2210 c3        1 PPP      0.090400
      2 C2          1.5390    0.3790   -0.0010 c3        1 PPP      0.147100
      3 C3          2.0740   -0.0220    1.3730 c3        1 PPP     -0.036100
      4 C1'         3.5600   -0.0910    1.4090 ca        1 PPP     -0.083300
      5 C2'         4.3260    0.9890    0.9520 ca        1 PPP     -0.125000
      6 C3'         5.7170    0.9380    1.0110 ca        1 PPP     -0.131000
      7 C4'         6.3550   -0.1910    1.5270 ca        1 PPP     -0.131000
      8 C5'         5.5970   -1.2690    1.9830 ca        1 PPP     -0.131000
      9 C6'         4.2050   -1.2200    1.9240 ca        1 PPP     -0.125000
     10 O1         -0.2980    0.2700   -1.4810 oh        1 PPP     -0.612800
     11 O2          1.4790    1.7990   -0.0330 oh        1 PPP     -0.606800
     12 H11         0.1890   -1.3330   -0.2350 h1        1 PPP      0.034700
     13 H12        -0.5570    0.1260    0.5890 h1        1 PPP      0.034700
     14 H2          2.2240    0.0210   -0.8200 h1        1 PPP      0.055700
     15 H31         1.6360   -1.0160    1.6550 hc        1 PPP      0.061700
     16 H32         1.7260    0.7340    2.1280 hc        1 PPP      0.061700
     17 H2'         3.8120    1.8760    0.5450 ha        1 PPP      0.140000
     18 H3'         6.3120    1.7900    0.6510 ha        1 PPP      0.130000
     19 H4'         7.4530   -0.2300    1.5740 ha        1 PPP      0.129000
     20 H5'         6.0970   -2.1600    2.3890 ha        1 PPP      0.130000
     21 H6'         3.6130   -2.0740    2.2860 ha        1 PPP      0.140000
     22 HO1        -1.2130   -0.0120   -1.5850 ho        1 PPP      0.408000
     23 HO2         1.0590    2.0380   -0.8700 ho        1 PPP      0.419000
@<TRIPOS>BOND
     1    1    2 1   
     2    1   10 1   
     3    1   12 1   
     4    1   13 1   
     5    2    3 1   
     6    2   11 1   
     7    2   14 1   
     8    3    4 1   
     9    3   15 1   
    10    3   16 1   
    11    4    5 ar  
    12    4    9 ar  
    13    5    6 ar  
    14    5   17 1   
    15    6    7 ar  
    16    6   18 1   
    17    7    8 ar  
    18    7   19 1   
    19    8    9 ar  
    20    8   20 1   
    21    9   21 1   
    22   10   22 1   
    23   11   23 1   
@<TRIPOS>SUBSTRUCTURE
     1 PPP         1 TEMP              0 ****  ****    0 ROOT
