@<TRIPOS>MOLECULE
PPP
   23    23     1     0     0
SMALL
bcc


@<TRIPOS>ATOM
      1 C1          0.0390    0.2910    3.0730 c3        1 PPP      0.095400
      2 C2         -0.4880    0.1650    1.6350 c3        1 PPP      0.139100
      3 C3          0.4940    0.7910    0.6490 c3        1 PPP     -0.065100
      4 C1'         0.3230    0.3150   -0.7500 ca        1 PPP     -0.081300
      5 C2'        -0.9490    0.1830   -1.3190 ca        1 PPP     -0.126000
      6 C3'        -1.0880   -0.2370   -2.6400 ca        1 PPP     -0.131000
      7 C4'         0.0410   -0.5270   -3.4070 ca        1 PPP     -0.132000
      8 C5'         1.3100   -0.4000   -2.8450 ca        1 PPP     -0.131000
      9 C6'         1.4530    0.0180   -1.5230 ca        1 PPP     -0.126000
     10 O1          1.1720   -0.5520    3.1840 oh        1 PPP     -0.596800
     11 O2         -1.7780    0.7510    1.5700 oh        1 PPP     -0.595800
     12 H11        -0.7630   -0.0250    3.7920 h1        1 PPP      0.029200
     13 H12         0.3300    1.3530    3.2910 h1        1 PPP      0.029200
     14 H2         -0.6610   -0.9200    1.3870 h1        1 PPP      0.099700
     15 H31         0.3770    1.9090    0.6680 hc        1 PPP      0.060700
     16 H32         1.5340    0.5540    1.0070 hc        1 PPP      0.060700
     17 H2'        -1.8410    0.4050   -0.7100 ha        1 PPP      0.140000
     18 H3'        -2.0920   -0.3390   -3.0780 ha        1 PPP      0.130000
     19 H4'        -0.0710   -0.8580   -4.4490 ha        1 PPP      0.129000
     20 H5'         2.2030   -0.6310   -3.4450 ha        1 PPP      0.130000
     21 H6'         2.4570    0.1130   -1.0840 ha        1 PPP      0.140000
     22 HO1         1.4090   -0.5710    4.1180 ho        1 PPP      0.404000
     23 HO2        -1.6720    1.7020    1.6900 ho        1 PPP      0.397000
@<TRIPOS>BOND
     1    1    2 1   
     2    1   10 1   
     3    1   12 1   
     4    1   13 1   
     5    2    3 1   
     6    2   11 1   
     7    2   14 1   
     8    3    4 1   
     9    3   15 1   
    10    3   16 1   
    11    4    5 ar  
    12    4    9 ar  
    13    5    6 ar  
    14    5   17 1   
    15    6    7 ar  
    16    6   18 1   
    17    7    8 ar  
    18    7   19 1   
    19    8    9 ar  
    20    8   20 1   
    21    9   21 1   
    22   10   22 1   
    23   11   23 1   
@<TRIPOS>SUBSTRUCTURE
     1 PPP         1 TEMP              0 ****  ****    0 ROOT
