@<TRIPOS>MOLECULE
PPP
   23    23     1     0     0
SMALL
bcc


@<TRIPOS>ATOM
      1 C1          0.1320   -0.2340   -0.1860 c3        1 PPP      0.090400
      2 C2          1.5320    0.3620    0.0040 c3        1 PPP      0.147100
      3 C3          2.0810   -0.0050    1.3830 c3        1 PPP     -0.036100
      4 C1'         3.5670   -0.0740    1.4060 ca        1 PPP     -0.083300
      5 C2'         4.3290    0.9930    0.9130 ca        1 PPP     -0.125000
      6 C3'         5.7210    0.9410    0.9600 ca        1 PPP     -0.131000
      7 C4'         6.3630   -0.1750    1.4980 ca        1 PPP     -0.131000
      8 C5'         5.6080   -1.2390    1.9890 ca        1 PPP     -0.131000
      9 C6'         4.2150   -1.1910    1.9440 ca        1 PPP     -0.125000
     10 O1         -0.3200    0.2180   -1.4540 oh        1 PPP     -0.612800
     11 O2          1.4720    1.7810   -0.0620 oh        1 PPP     -0.606800
     12 H11        -0.5580    0.1260    0.6220 h1        1 PPP      0.034700
     13 H12         0.1790   -1.3540   -0.1730 h1        1 PPP      0.034700
     14 H2          2.2090   -0.0170   -0.8120 h1        1 PPP      0.055700
     15 H31         1.7400    0.7700    2.1230 hc        1 PPP      0.061700
     16 H32         1.6450   -0.9910    1.6940 hc        1 PPP      0.061700
     17 H2'         3.8120    1.8690    0.4890 ha        1 PPP      0.140000
     18 H3'         6.3130    1.7830    0.5720 ha        1 PPP      0.130000
     19 H4'         7.4610   -0.2140    1.5350 ha        1 PPP      0.129000
     20 H5'         6.1110   -2.1200    2.4140 ha        1 PPP      0.130000
     21 H6'         3.6270   -2.0340    2.3340 ha        1 PPP      0.140000
     22 HO1        -1.2360   -0.0660   -1.5420 ho        1 PPP      0.408000
     23 HO2         1.0440    2.0000   -0.9000 ho        1 PPP      0.419000
@<TRIPOS>BOND
     1    1    2 1   
     2    1   10 1   
     3    1   12 1   
     4    1   13 1   
     5    2    3 1   
     6    2   11 1   
     7    2   14 1   
     8    3    4 1   
     9    3   15 1   
    10    3   16 1   
    11    4    5 ar  
    12    4    9 ar  
    13    5    6 ar  
    14    5   17 1   
    15    6    7 ar  
    16    6   18 1   
    17    7    8 ar  
    18    7   19 1   
    19    8    9 ar  
    20    8   20 1   
    21    9   21 1   
    22   10   22 1   
    23   11   23 1   
@<TRIPOS>SUBSTRUCTURE
     1 PPP         1 TEMP              0 ****  ****    0 ROOT
