@<TRIPOS>MOLECULE
PPQ
   22    21     1     0     0
SMALL
bcc


@<TRIPOS>ATOM
      1 NP         -1.9840    0.7550   -0.7720 n3        1 PPQ     -0.905800
      2 CAP        -0.6890    0.4370   -1.3630 c3        1 PPQ      0.007500
      3 CBP         0.3340   -0.0520   -0.3350 c3        1 PPQ     -0.040400
      4 CGP         0.6770    0.9750    0.7230 c3        1 PPQ     -0.431600
      5 PDP         0.2590    0.5050    2.2280 p5        1 PPQ      1.514100
      6 CEP        -1.3400    0.1710    2.3060 c3        1 PPQ     -0.449300
      7 OEA         0.7750    1.3490    3.3140 o         1 PPQ     -0.917300
      8 OEB         0.9870   -0.9160    2.5180 oh        1 PPQ     -0.802400
      9 CP         -0.7540   -0.6270   -2.5130 c         1 PPQ      0.891600
     10 OP         -1.8590   -1.2010   -2.7230 o         1 PPQ     -0.836300
     11 OTP         0.3040   -0.8310   -3.1670 o         1 PPQ     -0.836300
     12 HNP1       -2.5640    1.1260   -1.5030 hn        1 PPQ      0.334800
     13 HNP2       -2.4150   -0.1100   -0.4890 hn        1 PPQ      0.334800
     14 HAP        -0.2890    1.3870   -1.8230 h1        1 PPQ      0.043700
     15 HBP1        1.2490   -0.3300   -0.9300 hc        1 PPQ      0.055700
     16 HBP2       -0.0320   -0.9910    0.1590 hc        1 PPQ      0.055700
     17 HGP1        0.1930    1.9500    0.4460 hc        1 PPQ      0.103700
     18 HGP2        1.7780    1.1870    0.6660 hc        1 PPQ      0.103700
     19 HEP1       -1.6770    0.0110    3.3590 hc        1 PPQ      0.105367
     20 HEP2       -1.9770    0.9910    1.8900 hc        1 PPQ      0.105367
     21 HEP3       -1.6260   -0.7480    1.7380 hc        1 PPQ      0.105367
     22 HEB         1.6080   -0.8900    3.2410 ho        1 PPQ      0.458000
@<TRIPOS>BOND
     1    1    2 1   
     2    1   12 1   
     3    1   13 1   
     4    2    3 1   
     5    2    9 1   
     6    2   14 1   
     7    3    4 1   
     8    3   15 1   
     9    3   16 1   
    10    4    5 1   
    11    4   17 1   
    12    4   18 1   
    13    5    6 1   
    14    5    7 2   
    15    5    8 1   
    16    6   19 1   
    17    6   20 1   
    18    6   21 1   
    19    8   22 1   
    20    9   10 1   
    21    9   11 1   
@<TRIPOS>SUBSTRUCTURE
     1 PPQ         1 TEMP              0 ****  ****    0 ROOT
