@<TRIPOS>MOLECULE
PPR
   12    10     1     0     0
SMALL
bcc


@<TRIPOS>ATOM
      1 C1          0.1780   -0.4630   -0.0420 c2        1 PPR      0.305000
      2 O1          0.3460   -1.7000    0.2000 o         1 PPR     -0.640000
      3 O2'         0.8930    0.4050    0.5660 o         1 PPR     -0.640000
      4 C2         -0.9220    0.0390   -0.9870 c2        1 PPR      0.281000
      5 C3         -0.5750    0.4800   -2.3170 c2        1 PPR     -0.798000
      6 O2         -2.0810    0.1400   -0.4970 o         1 PPR     -0.519000
      7 P          -0.9210   -0.2040   -4.3290 p3        1 PPR      2.563000
      8 O1P        -1.7280    0.9600   -4.8320 o         1 PPR     -1.239667
      9 O2P         0.4920   -0.2270   -4.8330 o         1 PPR     -1.239667
     10 O3P        -1.6340   -1.5180   -4.3350 o         1 PPR     -1.239667
     11 H31         0.5150    0.5540   -2.4740 ha        1 PPR      0.083000
     12 H32        -1.1210    1.4040   -2.5890 ha        1 PPR      0.083000
@<TRIPOS>BOND
     1    1    2 1   
     2    1    3 1   
     3    1    4 1   
     4    4    5 1   
     5    4    6 1   
     6    5   11 1   
     7    5   12 1   
     8    7    8 1   
     9    7    9 1   
    10    7   10 1   
@<TRIPOS>SUBSTRUCTURE
     1 PPR         1 TEMP              0 ****  ****    0 ROOT
