@<TRIPOS>MOLECULE
PPR
   12    10     1     0     0
SMALL
bcc


@<TRIPOS>ATOM
      1 C1          0.5710   -0.4320    2.4820 c2        1 PPR      0.305000
      2 O1          0.8080   -1.6530    2.7470 o         1 PPR     -0.640000
      3 O2'         1.0610    0.4850    3.2240 o         1 PPR     -0.640000
      4 C2         -0.3640   -0.0160    1.3370 c2        1 PPR      0.281000
      5 C3          0.1960    0.4890    0.1060 c2        1 PPR     -0.798000
      6 O2         -1.6010   -0.0380    1.5850 o         1 PPR     -0.519000
      7 P           0.3270   -0.1780   -1.9380 p3        1 PPR      2.563000
      8 O1P        -0.4760    0.9150   -2.5870 o         1 PPR     -1.239667
      9 O2P         1.8070   -0.0530   -2.1480 o         1 PPR     -1.239667
     10 O3P        -0.2380   -1.5540   -2.0920 o         1 PPR     -1.239667
     11 H31        -0.3740    1.3610   -0.2660 ha        1 PPR      0.083000
     12 H32         1.2820    0.6700    0.1710 ha        1 PPR      0.083000
@<TRIPOS>BOND
     1    1    2 1   
     2    1    3 1   
     3    1    4 1   
     4    4    5 1   
     5    4    6 1   
     6    5   11 1   
     7    5   12 1   
     8    7    8 1   
     9    7    9 1   
    10    7   10 1   
@<TRIPOS>SUBSTRUCTURE
     1 PPR         1 TEMP              0 ****  ****    0 ROOT
