@<TRIPOS>MOLECULE
PPS
   42    44     1     0     0
SMALL
bcc


@<TRIPOS>ATOM
      1 S2          6.0740    6.2730   -0.9730 s6        1 PPS      1.806300
      2 OS1         6.9680    6.2910   -2.0600 o         1 PPS     -0.797867
      3 OS2         6.6910    6.6120    0.2410 o         1 PPS     -0.797867
      4 OS3         4.9060    7.0080   -1.2200 o         1 PPS     -0.797867
      5 O6P         5.6050    4.6960   -0.8260 os        1 PPS     -0.815100
      6 P2          5.3460    3.1010   -0.7870 p5        1 PPS      1.610800
      7 O4P         6.6180    2.4280   -0.4510 o         1 PPS     -0.895500
      8 O5P         4.5500    2.6710   -1.9650 o         1 PPS     -0.895500
      9 O5'         4.3160    2.9130    0.5050 os        1 PPS     -0.588200
     10 C5'         3.7450    1.6440    0.6180 c3        1 PPS      0.179400
     11 C4'         2.3080    1.6980    1.1480 c3        1 PPS      0.099100
     12 O4'         1.4310    2.3250    0.1810 os        1 PPS     -0.414600
     13 C1'         0.5680    1.3620   -0.4140 c3        1 PPS      0.215800
     14 N9          0.5880    1.5220   -1.8710 na        1 PPS     -0.229000
     15 C4         -0.5380    1.4740   -2.7000 ca        1 PPS      0.427800
     16 N3         -1.8730    1.3410   -2.4390 nb        1 PPS     -0.668000
     17 C2         -2.6420    1.3860   -3.5470 ca        1 PPS      0.600900
     18 N1         -2.3000    1.5450   -4.8590 nb        1 PPS     -0.810000
     19 C6         -0.9650    1.6640   -5.1350 ca        1 PPS      0.631200
     20 N6         -0.5140    1.7510   -6.4740 nh        1 PPS     -0.909500
     21 C5         -0.0210    1.6490   -4.0720 ca        1 PPS     -0.185200
     22 N7          1.3650    1.8150   -4.0300 nc        1 PPS     -0.629100
     23 C8          1.6930    1.7530   -2.7190 cd        1 PPS      0.485700
     24 C2'         1.0010   -0.0500    0.1010 c3        1 PPS      0.101100
     25 O2'        -0.1210   -0.8740    0.1960 oh        1 PPS     -0.663800
     26 C3'         1.7420    0.2740    1.4420 c3        1 PPS      0.179100
     27 O3'         0.8790    0.2980    2.5030 os        1 PPS     -0.561200
     28 P1          0.8880   -1.0620    3.5860 p5        1 PPS      1.318900
     29 O1P         0.3960   -0.5050    4.8900 o         1 PPS     -0.924500
     30 O2P         2.3110   -1.5440    3.5490 o         1 PPS     -0.924500
     31 O3P        -0.0960   -1.9310    2.8330 o         1 PPS     -0.924500
     32 H5'1        3.7550    1.1270   -0.3830 h1        1 PPS      0.020700
     33 H5'2        4.3410    1.0370    1.3610 h1        1 PPS      0.020700
     34 H4'         2.2420    2.3600    2.0490 h1        1 PPS      0.084700
     35 H1'        -0.4860    1.5920   -0.0790 h2        1 PPS      0.086700
     36 H2         -3.7300    1.2840   -3.3660 h5        1 PPS      0.010100
     37 HN61        0.4220    2.0990   -6.5170 hn        1 PPS      0.375800
     38 HN62       -1.1290    2.2740   -7.0620 hn        1 PPS      0.375800
     39 H8          2.7320    1.9270   -2.3160 h5        1 PPS      0.193800
     40 H2'         1.7180   -0.5260   -0.6220 h1        1 PPS      0.025700
     41 HO2'       -0.2450   -1.1130    1.1560 ho        1 PPS      0.498000
     42 H3'         2.5670   -0.4720    1.6210 h1        1 PPS      0.083700
@<TRIPOS>BOND
     1    1    2 1   
     2    1    3 1   
     3    1    4 1   
     4    1    5 1   
     5    5    6 1   
     6    6    7 1   
     7    6    8 1   
     8    6    9 1   
     9    9   10 1   
    10   10   11 1   
    11   10   32 1   
    12   10   33 1   
    13   11   12 1   
    14   11   26 1   
    15   11   34 1   
    16   12   13 1   
    17   13   14 1   
    18   13   24 1   
    19   13   35 1   
    20   14   15 1   
    21   14   23 1   
    22   15   16 ar  
    23   15   21 ar  
    24   16   17 ar  
    25   17   18 ar  
    26   17   36 1   
    27   18   19 ar  
    28   19   20 1   
    29   19   21 ar  
    30   20   37 1   
    31   20   38 1   
    32   21   22 1   
    33   22   23 2   
    34   23   39 1   
    35   24   25 1   
    36   24   26 1   
    37   24   40 1   
    38   25   41 1   
    39   26   27 1   
    40   26   42 1   
    41   27   28 1   
    42   28   29 1   
    43   28   30 1   
    44   28   31 1   
@<TRIPOS>SUBSTRUCTURE
     1 PPS         1 TEMP              0 ****  ****    0 ROOT
