@<TRIPOS>MOLECULE
PPS
   42    44     1     0     0
SMALL
bcc


@<TRIPOS>ATOM
      1 S2          0.7750   -1.2030   -0.5600 s6        1 PPS      1.806300
      2 OS1         1.3990   -2.4610   -0.6480 o         1 PPS     -0.797867
      3 OS2         0.6150   -0.7690    0.7650 o         1 PPS     -0.797867
      4 OS3         1.3750   -0.2400   -1.3840 o         1 PPS     -0.797867
      5 O6P        -0.7490   -1.4350   -1.1550 os        1 PPS     -0.815100
      6 P2         -2.2120   -1.8810   -1.6750 p5        1 PPS      1.610800
      7 O4P        -2.7910   -2.8270   -0.6980 o         1 PPS     -0.895500
      8 O5P        -2.1740   -2.2190   -3.1210 o         1 PPS     -0.895500
      9 O5'        -3.0900   -0.4710   -1.5990 os        1 PPS     -0.588200
     10 C5'        -4.3610   -0.5440   -2.1730 c3        1 PPS      0.180400
     11 C4'        -4.7600    0.7640   -2.8650 c3        1 PPS      0.098100
     12 O4'        -3.9610    0.9750   -4.0550 os        1 PPS     -0.414600
     13 C1'        -4.7430    0.7790   -5.2270 c3        1 PPS      0.217800
     14 N9         -4.0260   -0.1020   -6.1550 na        1 PPS     -0.231000
     15 C4         -4.0700    0.0000   -7.5490 ca        1 PPS      0.426800
     16 N3         -4.6630    0.8990   -8.3910 nb        1 PPS     -0.662000
     17 C2         -4.4900    0.6030   -9.6950 ca        1 PPS      0.599900
     18 N1         -3.8230   -0.4290  -10.2910 nb        1 PPS     -0.809000
     19 C6         -3.1880   -1.3100   -9.4590 ca        1 PPS      0.631200
     20 N6         -2.3880   -2.3490   -9.9930 nv        1 PPS     -0.910500
     21 C5         -3.2850   -1.1450   -8.0490 ca        1 PPS     -0.187200
     22 N7         -2.7830   -1.8730   -6.9690 nc        1 PPS     -0.631100
     23 C8         -3.2280   -1.2300   -5.8650 cd        1 PPS      0.483700
     24 C2'        -6.1500    0.2610   -4.7810 c3        1 PPS      0.100100
     25 O2'        -7.1210    0.7270   -5.6670 oh        1 PPS     -0.662800
     26 C3'        -6.2580    0.7610   -3.3010 c3        1 PPS      0.179100
     27 O3'        -6.7950    2.0170   -3.2300 os        1 PPS     -0.561200
     28 P1         -8.4500    2.1620   -2.7160 p5        1 PPS      1.318900
     29 O1P        -8.5390    3.5410   -2.1280 o         1 PPS     -0.924167
     30 O2P        -8.6380    1.0090   -1.7720 o         1 PPS     -0.924167
     31 O3P        -9.1020    1.9860   -4.0710 o         1 PPS     -0.924167
     32 H5'1       -5.1210   -0.7270   -1.3590 h1        1 PPS      0.020200
     33 H5'2       -4.3970   -1.3870   -2.9200 h1        1 PPS      0.020200
     34 H4'        -4.5240    1.6460   -2.2150 h1        1 PPS      0.086700
     35 H1'        -4.8410    1.7780   -5.7470 h2        1 PPS      0.084700
     36 H2         -4.9740    1.3050  -10.4030 h5        1 PPS      0.012100
     37 HN61       -2.7690   -2.7510  -10.8230 hn        1 PPS      0.375300
     38 HN62       -2.1870   -3.0420   -9.3020 hn        1 PPS      0.375300
     39 H8         -2.9650   -1.5220   -4.8070 h5        1 PPS      0.196800
     40 H2'        -6.1760   -0.8630   -4.8020 h1        1 PPS      0.024700
     41 HO2'       -7.7310    1.3320   -5.1610 ho        1 PPS      0.498000
     42 H3'        -6.8670    0.0360   -2.6890 h1        1 PPS      0.084700
@<TRIPOS>BOND
     1    1    2 1   
     2    1    3 1   
     3    1    4 1   
     4    1    5 1   
     5    5    6 1   
     6    6    7 1   
     7    6    8 1   
     8    6    9 1   
     9    9   10 1   
    10   10   11 1   
    11   10   32 1   
    12   10   33 1   
    13   11   12 1   
    14   11   26 1   
    15   11   34 1   
    16   12   13 1   
    17   13   14 1   
    18   13   24 1   
    19   13   35 1   
    20   14   15 1   
    21   14   23 1   
    22   15   16 ar  
    23   15   21 ar  
    24   16   17 ar  
    25   17   18 ar  
    26   17   36 1   
    27   18   19 ar  
    28   19   20 1   
    29   19   21 ar  
    30   20   37 1   
    31   20   38 1   
    32   21   22 1   
    33   22   23 2   
    34   23   39 1   
    35   24   25 1   
    36   24   26 1   
    37   24   40 1   
    38   25   41 1   
    39   26   27 1   
    40   26   42 1   
    41   27   28 1   
    42   28   29 1   
    43   28   30 1   
    44   28   31 1   
@<TRIPOS>SUBSTRUCTURE
     1 PPS         1 TEMP              0 ****  ****    0 ROOT
