@<TRIPOS>MOLECULE
PPS
   42    44     1     0     0
SMALL
bcc


@<TRIPOS>ATOM
      1 S2          0.7820   -1.2060   -0.5710 s6        1 PPS      1.806300
      2 OS1         1.4110   -2.4610   -0.6650 o         1 PPS     -0.797867
      3 OS2         0.6220   -0.7780    0.7560 o         1 PPS     -0.797867
      4 OS3         1.3790   -0.2380   -1.3920 o         1 PPS     -0.797867
      5 O6P        -0.7410   -1.4400   -1.1670 os        1 PPS     -0.815100
      6 P2         -2.2020   -1.8890   -1.6880 p5        1 PPS      1.610800
      7 O4P        -2.7790   -2.8400   -0.7150 o         1 PPS     -0.895500
      8 O5P        -2.1640   -2.2220   -3.1350 o         1 PPS     -0.895500
      9 O5'        -3.0850   -0.4830   -1.6070 os        1 PPS     -0.588200
     10 C5'        -4.3560   -0.5570   -2.1810 c3        1 PPS      0.180400
     11 C4'        -4.7600    0.7520   -2.8680 c3        1 PPS      0.098100
     12 O4'        -3.9610    0.9690   -4.0570 os        1 PPS     -0.414600
     13 C1'        -4.7430    0.7750   -5.2300 c3        1 PPS      0.217800
     14 N9         -4.0230   -0.1000   -6.1610 na        1 PPS     -0.231000
     15 C4         -4.0670    0.0070   -7.5550 ca        1 PPS      0.426800
     16 N3         -4.6630    0.9070   -8.3940 nb        1 PPS     -0.662000
     17 C2         -4.4890    0.6160   -9.6990 ca        1 PPS      0.599900
     18 N1         -3.8190   -0.4120  -10.2990 nb        1 PPS     -0.809000
     19 C6         -3.1810   -1.2930   -9.4700 ca        1 PPS      0.631200
     20 N6         -2.3770   -2.3270  -10.0080 nh        1 PPS     -0.910500
     21 C5         -3.2780   -1.1340   -8.0590 ca        1 PPS     -0.187200
     22 N7         -2.7740   -1.8640   -6.9820 nc        1 PPS     -0.631100
     23 C8         -3.2220   -1.2270   -5.8750 cd        1 PPS      0.483700
     24 C2'        -6.1480    0.2500   -4.7860 c3        1 PPS      0.100100
     25 O2'        -7.1210    0.7160   -5.6700 oh        1 PPS     -0.662800
     26 C3'        -6.2580    0.7450   -3.3040 c3        1 PPS      0.179100
     27 O3'        -6.7990    1.9990   -3.2290 os        1 PPS     -0.561200
     28 P1         -8.4540    2.1360   -2.7140 p5        1 PPS      1.318900
     29 O1P        -8.5480    3.5130   -2.1210 o         1 PPS     -0.924167
     30 O2P        -8.6390    0.9790   -1.7740 o         1 PPS     -0.924167
     31 O3P        -9.1060    1.9630   -4.0690 o         1 PPS     -0.924167
     32 H5'1       -4.3900   -1.3980   -2.9300 h1        1 PPS      0.020200
     33 H5'2       -5.1150   -0.7460   -1.3680 h1        1 PPS      0.020200
     34 H4'        -4.5270    1.6320   -2.2160 h1        1 PPS      0.086700
     35 H1'        -4.8440    1.7750   -5.7470 h2        1 PPS      0.084700
     36 H2         -4.9750    1.3190  -10.4050 h5        1 PPS      0.012100
     37 HN61       -2.7570   -2.7280  -10.8380 hn        1 PPS      0.375300
     38 HN62       -2.1740   -3.0230   -9.3190 hn        1 PPS      0.375300
     39 H8         -2.9570   -1.5220   -4.8180 h5        1 PPS      0.196800
     40 H2'        -6.1700   -0.8740   -4.8110 h1        1 PPS      0.024700
     41 HO2'       -7.7330    1.3170   -5.1620 ho        1 PPS      0.498000
     42 H3'        -6.8640    0.0150   -2.6950 h1        1 PPS      0.084700
@<TRIPOS>BOND
     1    1    2 1   
     2    1    3 1   
     3    1    4 1   
     4    1    5 1   
     5    5    6 1   
     6    6    7 1   
     7    6    8 1   
     8    6    9 1   
     9    9   10 1   
    10   10   11 1   
    11   10   32 1   
    12   10   33 1   
    13   11   12 1   
    14   11   26 1   
    15   11   34 1   
    16   12   13 1   
    17   13   14 1   
    18   13   24 1   
    19   13   35 1   
    20   14   15 1   
    21   14   23 1   
    22   15   16 ar  
    23   15   21 ar  
    24   16   17 ar  
    25   17   18 ar  
    26   17   36 1   
    27   18   19 ar  
    28   19   20 1   
    29   19   21 ar  
    30   20   37 1   
    31   20   38 1   
    32   21   22 1   
    33   22   23 2   
    34   23   39 1   
    35   24   25 1   
    36   24   26 1   
    37   24   40 1   
    38   25   41 1   
    39   26   27 1   
    40   26   42 1   
    41   27   28 1   
    42   28   29 1   
    43   28   30 1   
    44   28   31 1   
@<TRIPOS>SUBSTRUCTURE
     1 PPS         1 TEMP              0 ****  ****    0 ROOT
