@<TRIPOS>MOLECULE
PPS
   42    44     1     0     0
SMALL
bcc


@<TRIPOS>ATOM
      1 S2          0.8020   -1.1620   -0.5860 s6        1 PPS      1.806300
      2 OS1         1.4380   -2.4140   -0.6770 o         1 PPS     -0.797867
      3 OS2         0.6430   -0.7310    0.7410 o         1 PPS     -0.797867
      4 OS3         1.3900   -0.1930   -1.4110 o         1 PPS     -0.797867
      5 O6P        -0.7210   -1.4090   -1.1750 os        1 PPS     -0.815100
      6 P2         -2.1820   -1.8690   -1.6900 p5        1 PPS      1.610800
      7 O4P        -2.7490   -2.8200   -0.7120 o         1 PPS     -0.895500
      8 O5P        -2.1470   -2.2050   -3.1360 o         1 PPS     -0.895500
      9 O5'        -3.0740   -0.4670   -1.6100 os        1 PPS     -0.588200
     10 C5'        -4.3450   -0.5520   -2.1790 c3        1 PPS      0.180400
     11 C4'        -4.7600    0.7530   -2.8690 c3        1 PPS      0.098100
     12 O4'        -3.9670    0.9720   -4.0610 os        1 PPS     -0.414600
     13 C1'        -4.7510    0.7700   -5.2310 c3        1 PPS      0.217800
     14 N9         -4.0290   -0.1040   -6.1620 na        1 PPS     -0.231000
     15 C4         -4.0780   -0.0010   -7.5560 ca        1 PPS      0.426800
     16 N3         -4.6830    0.8930   -8.3950 nb        1 PPS     -0.662000
     17 C2         -4.5120    0.6000   -9.7000 ca        1 PPS      0.599900
     18 N1         -3.8370   -0.4260  -10.2990 nb        1 PPS     -0.809000
     19 C6         -3.1910   -1.3010   -9.4700 ca        1 PPS      0.631200
     20 N6         -2.3830   -2.3320  -10.0080 nh        1 PPS     -0.910500
     21 C5         -3.2840   -1.1380   -8.0600 ca        1 PPS     -0.187200
     22 N7         -2.7720   -1.8630   -6.9820 nc        1 PPS     -0.631100
     23 C8         -3.2200   -1.2250   -5.8760 cd        1 PPS      0.483700
     24 C2'        -6.1520    0.2370   -4.7800 c3        1 PPS      0.100100
     25 O2'        -7.1300    0.6950   -5.6630 oh        1 PPS     -0.662800
     26 C3'        -6.2600    0.7350   -3.3000 c3        1 PPS      0.179100
     27 O3'        -6.8080    1.9860   -3.2260 os        1 PPS     -0.561200
     28 P1         -8.4630    2.1150   -2.7060 p5        1 PPS      1.318900
     29 O1P        -8.5640    3.4920   -2.1160 o         1 PPS     -0.924167
     30 O2P        -8.6370    0.9590   -1.7630 o         1 PPS     -0.924167
     31 O3P        -9.1180    1.9330   -4.0580 o         1 PPS     -0.924167
     32 H5'1       -4.3770   -1.3950   -2.9260 h1        1 PPS      0.020200
     33 H5'2       -5.1010   -0.7430   -1.3630 h1        1 PPS      0.020200
     34 H4'        -4.5300    1.6370   -2.2200 h1        1 PPS      0.086700
     35 H1'        -4.8600    1.7670   -5.7500 h2        1 PPS      0.084700
     36 H2         -5.0040    1.2970  -10.4060 h5        1 PPS      0.012100
     37 HN61       -2.7630   -2.7370  -10.8360 hn        1 PPS      0.375300
     38 HN62       -2.1720   -3.0240   -9.3180 hn        1 PPS      0.375300
     39 H8         -2.9500   -1.5150   -4.8190 h5        1 PPS      0.196800
     40 H2'        -6.1670   -0.8870   -4.8020 h1        1 PPS      0.024700
     41 HO2'       -7.7450    1.2940   -5.1540 ho        1 PPS      0.498000
     42 H3'        -6.8590    0.0040   -2.6870 h1        1 PPS      0.084700
@<TRIPOS>BOND
     1    1    2 1   
     2    1    3 1   
     3    1    4 1   
     4    1    5 1   
     5    5    6 1   
     6    6    7 1   
     7    6    8 1   
     8    6    9 1   
     9    9   10 1   
    10   10   11 1   
    11   10   32 1   
    12   10   33 1   
    13   11   12 1   
    14   11   26 1   
    15   11   34 1   
    16   12   13 1   
    17   13   14 1   
    18   13   24 1   
    19   13   35 1   
    20   14   15 1   
    21   14   23 1   
    22   15   16 ar  
    23   15   21 ar  
    24   16   17 ar  
    25   17   18 ar  
    26   17   36 1   
    27   18   19 ar  
    28   19   20 1   
    29   19   21 ar  
    30   20   37 1   
    31   20   38 1   
    32   21   22 1   
    33   22   23 2   
    34   23   39 1   
    35   24   25 1   
    36   24   26 1   
    37   24   40 1   
    38   25   41 1   
    39   26   27 1   
    40   26   42 1   
    41   27   28 1   
    42   28   29 1   
    43   28   30 1   
    44   28   31 1   
@<TRIPOS>SUBSTRUCTURE
     1 PPS         1 TEMP              0 ****  ****    0 ROOT
