@<TRIPOS>MOLECULE
PPT
   23    23     1     0     0
SMALL
bcc


@<TRIPOS>ATOM
      1 CA          0.0420   -0.1540   -0.0260 c3        1 PPT     -0.191400
      2 C           1.5670   -0.3510    0.0640 c         1 PPT      0.907600
      3 OT1         2.0430   -0.8930    1.1040 o         1 PPT     -0.849300
      4 OT2         2.2650    0.0240   -0.9200 o         1 PPT     -0.849300
      5 CB         -0.5250    0.3070    1.2980 c3        1 PPT     -0.041100
      6 CG         -2.0080    0.2100    1.3590 ca        1 PPT     -0.039300
      7 CD1        -2.6340   -1.0440    1.3810 ca        1 PPT     -0.136500
      8 CD2        -2.8070    1.3600    1.4060 ca        1 PPT     -0.136500
      9 CE1        -4.0200   -1.1450    1.4490 ca        1 PPT     -0.133500
     10 CE2        -4.1940    1.2590    1.4740 ca        1 PPT     -0.133500
     11 CZ         -4.8150    0.0060    1.4960 ca        1 PPT     -0.114300
     12 CH         -6.2900   -0.1030    1.5510 c3        1 PPT     -0.039800
     13 HA1        -0.1900    0.5860   -0.8320 hc        1 PPT      0.024700
     14 HA2        -0.4120   -1.1350   -0.3170 hc        1 PPT      0.024700
     15 HB1        -0.2000    1.3650    1.4890 hc        1 PPT      0.059200
     16 HB2        -0.0720   -0.3300    2.1100 hc        1 PPT      0.059200
     17 HD1        -2.0120   -1.9520    1.3400 ha        1 PPT      0.135000
     18 HD2        -2.3300    2.3510    1.3850 ha        1 PPT      0.135000
     19 HE1        -4.4970   -2.1350    1.4650 ha        1 PPT      0.113500
     20 HE2        -4.8070    2.1710    1.5090 ha        1 PPT      0.113500
     21 HH1        -6.6020   -1.0110    2.1250 hc        1 PPT      0.030367
     22 HH2        -6.7090   -0.1860    0.5170 hc        1 PPT      0.030367
     23 HH3        -6.7420    0.7950    2.0390 hc        1 PPT      0.030367
@<TRIPOS>BOND
     1    1    2 1   
     2    1    5 1   
     3    1   13 1   
     4    1   14 1   
     5    2    3 1   
     6    2    4 1   
     7    5    6 1   
     8    5   15 1   
     9    5   16 1   
    10    6    7 ar  
    11    6    8 ar  
    12    7    9 ar  
    13    7   17 1   
    14    8   10 ar  
    15    8   18 1   
    16    9   11 ar  
    17    9   19 1   
    18   10   11 ar  
    19   10   20 1   
    20   11   12 1   
    21   12   21 1   
    22   12   22 1   
    23   12   23 1   
@<TRIPOS>SUBSTRUCTURE
     1 PPT         1 TEMP              0 ****  ****    0 ROOT
