@<TRIPOS>MOLECULE
PPT
   23    23     1     0     0
SMALL
bcc


@<TRIPOS>ATOM
      1 CA         -0.1030   -0.5140   -1.8690 c3        1 PPT     -0.191400
      2 C          -0.3180   -0.0790   -3.3320 c         1 PPT      0.907600
      3 OT1        -0.9280    1.0070   -3.5530 o         1 PPT     -0.849300
      4 OT2         0.1130   -0.8460   -4.2390 o         1 PPT     -0.849300
      5 CB          0.2790    0.6660   -1.0040 c3        1 PPT     -0.041100
      6 CG          0.1900    0.3690    0.4520 ca        1 PPT     -0.039300
      7 CD1         1.3390    0.2980    1.2470 ca        1 PPT     -0.136500
      8 CD2        -1.0590    0.1640    1.0560 ca        1 PPT     -0.136500
      9 CE1         1.2460    0.0320    2.6110 ca        1 PPT     -0.133500
     10 CE2        -1.1540   -0.1030    2.4180 ca        1 PPT     -0.133500
     11 CZ         -0.0010   -0.1700    3.2110 ca        1 PPT     -0.114300
     12 CH         -0.1070   -0.4380    4.6630 c3        1 PPT     -0.039800
     13 HA1         0.6880   -1.3030   -1.8290 hc        1 PPT      0.024700
     14 HA2        -1.0600   -0.9650   -1.5040 hc        1 PPT      0.024700
     15 HB1        -0.4120    1.5190   -1.2570 hc        1 PPT      0.059200
     16 HB2         1.3190    0.9940   -1.2660 hc        1 PPT      0.059200
     17 HD1         2.3270    0.4510    0.7860 ha        1 PPT      0.135000
     18 HD2        -1.9670    0.2120    0.4340 ha        1 PPT      0.135000
     19 HE1         2.1590   -0.0240    3.2210 ha        1 PPT      0.113500
     20 HE2        -2.1390   -0.2640    2.8780 ha        1 PPT      0.113500
     21 HH1        -0.3040    0.5140    5.2170 hc        1 PPT      0.030033
     22 HH2        -0.9450   -1.1460    4.8770 hc        1 PPT      0.030033
     23 HH3         0.8390   -0.8820    5.0600 hc        1 PPT      0.030033
@<TRIPOS>BOND
     1    1    2 1   
     2    1    5 1   
     3    1   13 1   
     4    1   14 1   
     5    2    3 1   
     6    2    4 1   
     7    5    6 1   
     8    5   15 1   
     9    5   16 1   
    10    6    7 ar  
    11    6    8 ar  
    12    7    9 ar  
    13    7   17 1   
    14    8   10 ar  
    15    8   18 1   
    16    9   11 ar  
    17    9   19 1   
    18   10   11 ar  
    19   10   20 1   
    20   11   12 1   
    21   12   21 1   
    22   12   22 1   
    23   12   23 1   
@<TRIPOS>SUBSTRUCTURE
     1 PPT         1 TEMP              0 ****  ****    0 ROOT
