@<TRIPOS>MOLECULE
PPT
   23    23     1     0     0
SMALL
bcc


@<TRIPOS>ATOM
      1 CA          0.0480    0.0960   -0.0180 c3        1 PPT     -0.191400
      2 C           1.5710    0.3140    0.0690 c         1 PPT      0.907600
      3 OT1         2.0340    0.9360    1.0690 o         1 PPT     -0.849300
      4 OT2         2.2800   -0.1260   -0.8800 o         1 PPT     -0.849300
      5 CB         -0.5240   -0.2720    1.3340 c3        1 PPT     -0.041100
      6 CG         -2.0080   -0.1850    1.3760 ca        1 PPT     -0.039300
      7 CD1        -2.7970   -1.3350    1.5020 ca        1 PPT     -0.136500
      8 CD2        -2.6460    1.0620    1.3020 ca        1 PPT     -0.136500
      9 CE1        -4.1860   -1.2430    1.5530 ca        1 PPT     -0.133500
     10 CE2        -4.0330    1.1550    1.3520 ca        1 PPT     -0.133500
     11 CZ         -4.8180    0.0020    1.4780 ca        1 PPT     -0.114300
     12 CH         -6.2950    0.1020    1.5150 c3        1 PPT     -0.039800
     13 HA1        -0.4120    1.0490   -0.3830 hc        1 PPT      0.024700
     14 HA2        -0.1710   -0.7040   -0.7670 hc        1 PPT      0.024700
     15 HB1        -0.0830    0.4290    2.0990 hc        1 PPT      0.059200
     16 HB2        -0.1910   -1.3080    1.6050 hc        1 PPT      0.059200
     17 HD1        -2.3120   -2.3210    1.5580 ha        1 PPT      0.135000
     18 HD2        -2.0320    1.9700    1.1990 ha        1 PPT      0.135000
     19 HE1        -4.7910   -2.1560    1.6510 ha        1 PPT      0.113500
     20 HE2        -4.5190    2.1390    1.2930 ha        1 PPT      0.113500
     21 HH1        -6.7440   -0.7680    2.0540 hc        1 PPT      0.030367
     22 HH2        -6.7050    0.1170    0.4740 hc        1 PPT      0.030367
     23 HH3        -6.6190    1.0410    2.0290 hc        1 PPT      0.030367
@<TRIPOS>BOND
     1    1    2 1   
     2    1    5 1   
     3    1   13 1   
     4    1   14 1   
     5    2    3 1   
     6    2    4 1   
     7    5    6 1   
     8    5   15 1   
     9    5   16 1   
    10    6    7 ar  
    11    6    8 ar  
    12    7    9 ar  
    13    7   17 1   
    14    8   10 ar  
    15    8   18 1   
    16    9   11 ar  
    17    9   19 1   
    18   10   11 ar  
    19   10   20 1   
    20   11   12 1   
    21   12   21 1   
    22   12   22 1   
    23   12   23 1   
@<TRIPOS>SUBSTRUCTURE
     1 PPT         1 TEMP              0 ****  ****    0 ROOT
