@<TRIPOS>MOLECULE
PPU
   66    69     1     0     0
SMALL
bcc


@<TRIPOS>ATOM
      1 P          -4.4620   -0.2230   -1.0570 p5        1 PPU      1.429800
      2 OP1        -4.8250    1.1170   -0.5420 o         1 PPU     -0.840000
      3 OP2        -5.2300   -1.0280   -2.0220 o         1 PPU     -0.840000
      4 OP3        -4.1860   -1.0620    0.3190 oh        1 PPU     -0.781400
      5 N           3.3200    1.3720    3.9700 n3        1 PPU     -0.891800
      6 CA          2.0220    0.8420    3.5730 c3        1 PPU      0.106500
      7 C           1.5610    1.3420    2.1670 c2        1 PPU      0.491300
      8 O           2.0220    2.4840    1.8020 o         1 PPU     -0.869300
      9 CB          0.9090    1.2080    4.5680 c3        1 PPU     -0.032100
     10 CG          1.0740    0.5320    5.8830 ca        1 PPU     -0.056300
     11 CD1         1.5180    1.2390    7.0080 ca        1 PPU     -0.098000
     12 CD2         0.7740   -0.8290    6.0110 ca        1 PPU     -0.098000
     13 CE1         1.6550    0.6090    8.2410 ca        1 PPU     -0.181500
     14 CE2         0.9040   -1.4800    7.2370 ca        1 PPU     -0.181500
     15 CZ          1.3430   -0.7560    8.3500 ca        1 PPU      0.085100
     16 OC          1.4990   -1.2920    9.6240 os        1 PPU     -0.343900
     17 CM          1.2700   -2.6880    9.7340 c3        1 PPU      0.120700
     18 O5'        -2.9020   -0.1180   -1.6050 os        1 PPU     -0.578200
     19 C5'        -2.0380    0.7200   -0.9060 c3        1 PPU      0.154400
     20 C4'        -0.9030   -0.0550   -0.2240 c3        1 PPU      0.114100
     21 O4'        -0.2670   -0.9800   -1.1260 os        1 PPU     -0.397600
     22 C3'         0.2040    0.9360    0.2540 c3        1 PPU      0.147500
     23 N3'         0.7590    0.5150    1.5010 n2        1 PPU     -0.582200
     24 C2'         1.1430    0.9700   -1.0010 c3        1 PPU      0.107100
     25 O2'         2.5260    1.0750   -0.7660 oh        1 PPU     -0.621800
     26 C1'         0.8950   -0.4000   -1.7070 c3        1 PPU      0.241800
     27 N9          0.7010   -0.3120   -3.1510 na        1 PPU     -0.256000
     28 C8         -0.5270   -0.2100   -3.8400 cc        1 PPU      0.456700
     29 N7         -0.3970   -0.2030   -5.1810 nd        1 PPU     -0.591100
     30 C5          0.9760   -0.3310   -5.4220 ca        1 PPU     -0.157200
     31 C6          1.7680   -0.3860   -6.6080 ca        1 PPU      0.669200
     32 N6          1.1470   -0.2080   -7.8800 nh        1 PPU     -0.725300
     33 C9          2.0240    0.1160   -8.9820 c3        1 PPU      0.178100
     34 C10         0.1470   -1.1930   -8.2250 c3        1 PPU      0.178100
     35 N1          3.1200   -0.5390   -6.4970 nb        1 PPU     -0.790000
     36 C2          3.6530   -0.6130   -5.2440 ca        1 PPU      0.623900
     37 C4          1.6910   -0.4180   -4.1340 ca        1 PPU      0.424800
     38 N3          3.0450   -0.5690   -4.0410 nb        1 PPU     -0.674000
     39 HA          2.1190   -0.2830    3.5560 h1        1 PPU      0.058700
     40 HB1        -0.0690    0.8910    4.1120 hc        1 PPU      0.061700
     41 HB2         0.8750    2.3210    4.7020 hc        1 PPU      0.061700
     42 HD1         1.7730    2.3050    6.9110 ha        1 PPU      0.141500
     43 HD2         0.4350   -1.3900    5.1250 ha        1 PPU      0.141500
     44 HE1         2.0050    1.1580    9.1240 ha        1 PPU      0.125000
     45 HE2         0.6610   -2.5480    7.3120 ha        1 PPU      0.125000
     46 HM1         1.4900   -2.9110   10.8080 h1        1 PPU      0.032367
     47 HM2         0.2070   -2.9360    9.4930 h1        1 PPU      0.032367
     48 HM3         1.9600   -3.2600    9.0660 h1        1 PPU      0.032367
     49 H5'        -2.6020    1.3020   -0.1230 h1        1 PPU      0.032700
     50 H5''       -1.5870    1.4450   -1.6460 h1        1 PPU      0.032700
     51 H4'        -1.3100   -0.7140    0.5890 h1        1 PPU      0.097700
     52 H3'        -0.2420    1.9730    0.3370 h1        1 PPU      0.030700
     53 HN'3       -4.0250   -0.4870    1.0580 ho        1 PPU      0.424000
     54 H2'         0.8300    1.8280   -1.6590 h1        1 PPU      0.030700
     55 HO2'        2.6430    1.6460    0.0110 ho        1 PPU      0.449000
     56 H1'         1.7570   -1.1070   -1.5240 h2        1 PPU      0.100700
     57 H8         -1.4850   -0.1720   -3.2760 h5        1 PPU      0.142800
     58 H91         1.3850    0.4240   -9.8520 h1        1 PPU      0.033867
     59 H92         2.6840    0.9750   -8.6950 h1        1 PPU      0.033867
     60 H93         2.6730   -0.7440   -9.3040 h1        1 PPU      0.033867
     61 H101       -0.5220   -0.7410   -9.0060 h1        1 PPU      0.033867
     62 H102        0.6010   -2.1320   -8.6470 h1        1 PPU      0.033867
     63 H103       -0.4750   -1.4640   -7.3350 h1        1 PPU      0.033867
     64 H2          4.7550   -0.7330   -5.2150 h5        1 PPU      0.031100
     65 HN1         3.9890    1.0960    3.2730 hn        1 PPU      0.334800
     66 HN2         3.2730    2.3770    3.9370 hn        1 PPU      0.334800
@<TRIPOS>BOND
     1    1    2 1   
     2    1    3 1   
     3    1    4 1   
     4    1   18 1   
     5    4   53 1   
     6    5    6 1   
     7    5   65 1   
     8    5   66 1   
     9    6    7 1   
    10    6    9 1   
    11    6   39 1   
    12    7    8 1   
    13    7   23 2   
    14    9   10 1   
    15    9   40 1   
    16    9   41 1   
    17   10   11 ar  
    18   10   12 ar  
    19   11   13 ar  
    20   11   42 1   
    21   12   14 ar  
    22   12   43 1   
    23   13   15 ar  
    24   13   44 1   
    25   14   15 ar  
    26   14   45 1   
    27   15   16 1   
    28   16   17 1   
    29   17   46 1   
    30   17   47 1   
    31   17   48 1   
    32   18   19 1   
    33   19   20 1   
    34   19   49 1   
    35   19   50 1   
    36   20   21 1   
    37   20   22 1   
    38   20   51 1   
    39   21   26 1   
    40   22   23 1   
    41   22   24 1   
    42   22   52 1   
    43   24   25 1   
    44   24   26 1   
    45   24   54 1   
    46   25   55 1   
    47   26   27 1   
    48   26   56 1   
    49   27   28 1   
    50   27   37 1   
    51   28   29 2   
    52   28   57 1   
    53   29   30 1   
    54   30   31 ar  
    55   30   37 ar  
    56   31   32 1   
    57   31   35 ar  
    58   32   33 1   
    59   32   34 1   
    60   33   58 1   
    61   33   59 1   
    62   33   60 1   
    63   34   61 1   
    64   34   62 1   
    65   34   63 1   
    66   35   36 ar  
    67   36   38 ar  
    68   36   64 1   
    69   37   38 ar  
@<TRIPOS>SUBSTRUCTURE
     1 PPU         1 TEMP              0 ****  ****    0 ROOT
