@<TRIPOS>MOLECULE
PPV
    9     8     1     0     0
SMALL
bcc


@<TRIPOS>ATOM
      1 O11         1.1350   -1.0360    2.0880 o         1 PPV     -1.021500
      2 P1          0.0610   -0.0350    1.6700 p5        1 PPV      1.493900
      3 O21        -1.3090   -0.4770    2.1780 o         1 PPV     -1.021500
      4 O31         0.4000    1.3600    2.1900 o         1 PPV     -1.021500
      5 OPP         0.0130    0.0220   -0.0000 os        1 PPV     -0.855800
      6 P2         -0.0360    0.0780   -1.6700 p5        1 PPV      1.493900
      7 O12        -0.3740   -1.3170   -2.1910 o         1 PPV     -1.021500
      8 O22         1.3350    0.5200   -2.1780 o         1 PPV     -1.021500
      9 O32        -1.1100    1.0800   -2.0880 o         1 PPV     -1.021500
@<TRIPOS>BOND
     1    1    2 1   
     2    2    3 1   
     3    2    4 1   
     4    2    5 1   
     5    5    6 1   
     6    6    7 1   
     7    6    8 1   
     8    6    9 1   
@<TRIPOS>SUBSTRUCTURE
     1 PPV         1 TEMP              0 ****  ****    0 ROOT
