@<TRIPOS>MOLECULE
PPW
   35    37     1     0     0
SMALL
bcc


@<TRIPOS>ATOM
      1 P           1.9600   -2.4780   -4.3500 p5        1 PPW      1.333900
      2 OP1         2.8930   -3.4500   -5.0050 o         1 PPW     -0.932500
      3 OP2         1.1970   -1.5300   -5.2270 o         1 PPW     -0.932500
      4 O5'         3.0360   -1.4020   -3.4970 os        1 PPW     -0.561200
      5 N9          1.0580    1.8760    0.4680 na        1 PPW      0.127400
      6 C4          1.5400    2.9910    1.1670 cc        1 PPW      0.163100
      7 N3          2.5130    3.0670    2.1560 nc        1 PPW     -0.626100
      8 C2          2.7470    4.3000    2.6300 cd        1 PPW      0.616800
      9 N2          3.8140    4.5030    3.5740 nh        1 PPW     -0.870800
     10 N1          2.0360    5.4580    2.2520 n         1 PPW     -0.500400
     11 C6          1.0270    5.4260    1.2520 c         1 PPW      0.760100
     12 O6          0.4660    6.5070    0.9820 o         1 PPW     -0.664500
     13 C5          0.7790    4.1270    0.7020 cd        1 PPW     -0.386900
     14 N8          0.1110    2.2470   -0.4070 nc        1 PPW     -0.455800
     15 C7         -0.0990    3.5820   -0.2960 cd        1 PPW      0.349200
     16 C2'         0.6480   -0.6360    0.4570 c3        1 PPW     -0.124400
     17 C5'         2.3950   -0.4340   -2.7730 c3        1 PPW      0.234400
     18 C4'         2.3750   -0.8150   -1.2730 c3        1 PPW      0.065100
     19 O4'         2.6410    0.3580   -0.4530 os        1 PPW     -0.424600
     20 C1'         1.6670    0.5130    0.5530 c3        1 PPW      0.273800
     21 C3'         1.0460   -1.4310   -0.7970 c3        1 PPW      0.162100
     22 O3'         1.2130   -2.7810   -0.4220 oh        1 PPW     -0.681800
     23 OP3         1.1800   -2.9910   -3.1540 o         1 PPW     -0.932500
     24 HN21        3.4520    4.7600    4.4700 hn        1 PPW      0.387300
     25 HN22        4.3970    3.6900    3.6470 hn        1 PPW      0.387300
     26 HN1         2.3230    6.3470    2.5950 hn        1 PPW      0.323500
     27 H7         -0.8310    4.1100   -0.9080 h4        1 PPW      0.046100
     28 H2'        -0.4080   -0.2900    0.3810 hc        1 PPW      0.055200
     29 H2''        0.7420   -1.2770    1.3690 hc        1 PPW      0.055200
     30 H5'         2.9610    0.5410   -2.8560 h1        1 PPW      0.003700
     31 H5''        1.3420   -0.2800   -3.1420 h1        1 PPW      0.003700
     32 H4'         3.2280   -1.5160   -1.0590 h1        1 PPW      0.075700
     33 H1'         2.2070    0.5210    1.5450 h2        1 PPW      0.062700
     34 H3'         0.2650   -1.3570   -1.6030 h1        1 PPW      0.104700
     35 HO3'        1.2810   -3.2780   -1.2720 ho        1 PPW      0.504000
@<TRIPOS>BOND
     1    1    2 1   
     2    1    3 1   
     3    1    4 1   
     4    1   23 1   
     5    4   17 1   
     6    5    6 1   
     7    5   14 1   
     8    5   20 1   
     9    6    7 1   
    10    6   13 2   
    11    7    8 2   
    12    8    9 1   
    13    8   10 1   
    14    9   24 1   
    15    9   25 1   
    16   10   11 1   
    17   10   26 1   
    18   11   12 2   
    19   11   13 1   
    20   13   15 1   
    21   14   15 2   
    22   15   27 1   
    23   16   20 1   
    24   16   21 1   
    25   16   28 1   
    26   16   29 1   
    27   17   18 1   
    28   17   30 1   
    29   17   31 1   
    30   18   19 1   
    31   18   21 1   
    32   18   32 1   
    33   19   20 1   
    34   20   33 1   
    35   21   22 1   
    36   21   34 1   
    37   22   35 1   
@<TRIPOS>SUBSTRUCTURE
     1 PPW         1 TEMP              0 ****  ****    0 ROOT
