@<TRIPOS>MOLECULE
PPX
   55    57     1     0     0
SMALL
bcc


@<TRIPOS>ATOM
      1 N1          2.6120    2.0800   -0.3270 n3        1 PPX     -0.888800
      2 C2          2.8560    0.6640   -0.1850 c3        1 PPX      0.123500
      3 C10         1.5640   -0.1850   -0.3140 c         1 PPX      0.614100
      4 O11         0.6560    0.1720   -1.0980 o         1 PPX     -0.641100
      5 C3          3.8460    0.1230   -1.2370 c3        1 PPX     -0.029100
      6 C4          5.2520    0.4640   -0.8910 ca        1 PPX     -0.086300
      7 C5          6.0880   -0.5000   -0.3140 ca        1 PPX     -0.117500
      8 C6          5.7580    1.7420   -1.1540 ca        1 PPX     -0.117500
      9 C7          7.4100   -0.1900   -0.0050 ca        1 PPX     -0.130500
     10 C8          7.0810    2.0500   -0.8420 ca        1 PPX     -0.130500
     11 C9          7.9090    1.0860   -0.2680 ca        1 PPX     -0.126000
     12 N12         1.3970   -1.3010    0.4800 n         1 PPX     -0.455800
     13 C14         0.2950   -2.2360    0.2790 c3        1 PPX      0.031700
     14 C17        -0.9860   -1.8320    1.0490 c         1 PPX      0.653100
     15 O18        -1.5060   -2.5930    1.8880 o         1 PPX     -0.609100
     16 C15         0.7940   -3.6240    0.7390 c3        1 PPX     -0.088400
     17 C16         2.1210   -3.3910    1.4520 c3        1 PPX     -0.090400
     18 C13         2.4690   -1.9070    1.2510 c3        1 PPX      0.084000
     19 N19        -1.5220   -0.5980    0.7550 n         1 PPX     -0.562900
     20 C20        -2.7610   -0.1460    1.3170 c3        1 PPX      0.078000
     21 C30        -3.9040   -0.0640    0.2740 c3        1 PPX      0.165800
     22 N27        -5.1290    0.4340    0.8490 nh        1 PPX     -0.738600
     23 C21        -6.1530    0.8560    0.0020 ca        1 PPX      0.191600
     24 C22        -7.1960    1.6810    0.4980 ca        1 PPX     -0.312300
     25 C23        -8.2570    2.0120   -0.3520 ca        1 PPX      0.424200
     26 N24        -8.3570    1.6050   -1.6330 nb        1 PPX     -0.697000
     27 C25        -7.3620    0.8280   -2.1000 ca        1 PPX      0.424200
     28 C26        -6.2500    0.4290   -1.3450 ca        1 PPX     -0.312300
     29 HN11        2.2230    2.2860   -1.2270 hn        1 PPX      0.363300
     30 HN12        1.9820    2.3990    0.3830 hn        1 PPX      0.363300
     31 H2          3.3000    0.5100    0.8450 h1        1 PPX      0.083700
     32 H31         3.7300   -0.9930   -1.2970 hc        1 PPX      0.059700
     33 H32         3.5900    0.5350   -2.2500 hc        1 PPX      0.059700
     34 H5          5.7000   -1.5090   -0.1070 ha        1 PPX      0.134000
     35 H6          5.1030    2.5070   -1.5990 ha        1 PPX      0.134000
     36 H7          8.0610   -0.9530    0.4470 ha        1 PPX      0.132000
     37 H8          7.4710    3.0580   -1.0490 ha        1 PPX      0.132000
     38 H9          8.9530    1.3300   -0.0240 ha        1 PPX      0.132000
     39 H14         0.0180   -2.2600   -0.8170 h1        1 PPX      0.084700
     40 H151        0.0500   -4.1110    1.4180 hc        1 PPX      0.076200
     41 H152        0.9320   -4.2810   -0.1550 hc        1 PPX      0.076200
     42 H161        2.9250   -4.0410    1.0290 hc        1 PPX      0.059200
     43 H162        2.0310   -3.6190    2.5430 hc        1 PPX      0.059200
     44 H131        3.4540   -1.8010    0.7150 h1        1 PPX      0.051200
     45 H132        2.5500   -1.3800    2.2420 h1        1 PPX      0.051200
     46 H19        -1.1410   -0.0690    0.0020 hn        1 PPX      0.337500
     47 H201       -3.0670   -0.8430    2.1500 h1        1 PPX      0.065700
     48 H202       -2.5900    0.8800    1.7550 h1        1 PPX      0.065700
     49 H301       -3.5700    0.5800   -0.5930 h1        1 PPX      0.047700
     50 H302       -4.1110   -1.0970   -0.1300 h1        1 PPX      0.047700
     51 H27        -5.0140    0.9900    1.6700 hn        1 PPX      0.407800
     52 H22        -7.1850    2.0500    1.5320 ha        1 PPX      0.141500
     53 H23        -9.0840    2.6490    0.0130 h4        1 PPX      0.018100
     54 H25        -7.4620    0.5040   -3.1520 h4        1 PPX      0.018100
     55 H26        -5.4830   -0.2110   -1.7990 ha        1 PPX      0.141500
@<TRIPOS>BOND
     1    1    2 1   
     2    1   29 1   
     3    1   30 1   
     4    2    3 1   
     5    2    5 1   
     6    2   31 1   
     7    3    4 2   
     8    3   12 1   
     9    5    6 1   
    10    5   32 1   
    11    5   33 1   
    12    6    7 ar  
    13    6    8 ar  
    14    7    9 ar  
    15    7   34 1   
    16    8   10 ar  
    17    8   35 1   
    18    9   11 ar  
    19    9   36 1   
    20   10   11 ar  
    21   10   37 1   
    22   11   38 1   
    23   12   13 1   
    24   12   18 1   
    25   13   14 1   
    26   13   16 1   
    27   13   39 1   
    28   14   15 2   
    29   14   19 1   
    30   16   17 1   
    31   16   40 1   
    32   16   41 1   
    33   17   18 1   
    34   17   42 1   
    35   17   43 1   
    36   18   44 1   
    37   18   45 1   
    38   19   20 1   
    39   19   46 1   
    40   20   21 1   
    41   20   47 1   
    42   20   48 1   
    43   21   22 1   
    44   21   49 1   
    45   21   50 1   
    46   22   23 1   
    47   22   51 1   
    48   23   24 ar  
    49   23   28 ar  
    50   24   25 ar  
    51   24   52 1   
    52   25   26 ar  
    53   25   53 1   
    54   26   27 ar  
    55   27   28 ar  
    56   27   54 1   
    57   28   55 1   
@<TRIPOS>SUBSTRUCTURE
     1 PPX         1 TEMP              0 ****  ****    0 ROOT
