@<TRIPOS>MOLECULE
PPY
   19    19     1     0     0
SMALL
bcc


@<TRIPOS>ATOM
      1 C1          0.2460   -0.2800   -0.0260 c         1 PPY      0.855600
      2 O1          1.2820   -0.9850    0.0970 o         1 PPY     -0.811300
      3 O2         -0.0990    0.6710    0.7240 o         1 PPY     -0.811300
      4 C2         -0.6510   -0.5740   -1.2430 c         1 PPY      0.471100
      5 O3         -1.5690   -1.4000   -1.2550 o         1 PPY     -0.585100
      6 C3         -0.2640    0.2520   -2.4460 c3        1 PPY     -0.168100
      7 C1'        -1.1310    0.1720   -3.6480 ca        1 PPY     -0.041300
      8 C2'        -1.4520    1.3390   -4.3550 ca        1 PPY     -0.125000
      9 C3'        -2.2290    1.2750   -5.5110 ca        1 PPY     -0.141000
     10 C4'        -2.6980    0.0460   -5.9730 ca        1 PPY     -0.154000
     11 C5'        -2.3900   -1.1180   -5.2700 ca        1 PPY     -0.141000
     12 C6'        -1.6120   -1.0580   -4.1160 ca        1 PPY     -0.125000
     13 H31         0.7770   -0.0750   -2.7260 hc        1 PPY      0.077700
     14 H32        -0.1920    1.3170   -2.0890 hc        1 PPY      0.077700
     15 H2'        -1.0910    2.3120   -3.9910 ha        1 PPY      0.141500
     16 H3'        -2.4750    2.1970   -6.0560 ha        1 PPY      0.114000
     17 H4'        -3.3110   -0.0040   -6.8830 ha        1 PPY      0.111000
     18 H5'        -2.7670   -2.0880   -5.6230 ha        1 PPY      0.114000
     19 H6'        -1.3920   -1.9720   -3.5410 ha        1 PPY      0.141500
@<TRIPOS>BOND
     1    1    2 1   
     2    1    3 1   
     3    1    4 1   
     4    4    5 2   
     5    4    6 1   
     6    6    7 1   
     7    6   13 1   
     8    6   14 1   
     9    7    8 ar  
    10    7   12 ar  
    11    8    9 ar  
    12    8   15 1   
    13    9   10 ar  
    14    9   16 1   
    15   10   11 ar  
    16   10   17 1   
    17   11   12 ar  
    18   11   18 1   
    19   12   19 1   
@<TRIPOS>SUBSTRUCTURE
     1 PPY         1 TEMP              0 ****  ****    0 ROOT
