@<TRIPOS>MOLECULE
PPY
   19    19     1     0     0
SMALL
bcc


@<TRIPOS>ATOM
      1 C1         -0.2450    0.2190    2.8660 c         1 PPY      0.855600
      2 O1         -1.1480    0.9280    3.3820 o         1 PPY     -0.811300
      3 O2          0.3440   -0.7490    3.4130 o         1 PPY     -0.811300
      4 C2          0.1310    0.5340    1.4050 c         1 PPY      0.471100
      5 O3          0.9880    1.3540    1.0620 o         1 PPY     -0.585100
      6 C3         -0.6930   -0.2650    0.4230 c3        1 PPY     -0.168100
      7 C1'        -0.3420   -0.1660   -1.0150 ca        1 PPY     -0.041300
      8 C2'        -0.3260   -1.3190   -1.8110 ca        1 PPY     -0.125000
      9 C3'        -0.0410   -1.2380   -3.1730 ca        1 PPY     -0.141000
     10 C4'         0.2350   -0.0030   -3.7570 ca        1 PPY     -0.154000
     11 C5'         0.2320    1.1490   -2.9710 ca        1 PPY     -0.141000
     12 C6'        -0.0550    1.0710   -1.6100 ca        1 PPY     -0.125000
     13 H31        -0.6400   -1.3370    0.7630 hc        1 PPY      0.077700
     14 H32        -1.7580    0.0750    0.5610 hc        1 PPY      0.077700
     15 H2'        -0.5370   -2.2980   -1.3540 ha        1 PPY      0.141500
     16 H3'        -0.0320   -2.1500   -3.7860 ha        1 PPY      0.114000
     17 H4'         0.4610    0.0620   -4.8300 ha        1 PPY      0.111000
     18 H5'         0.4610    2.1240   -3.4240 ha        1 PPY      0.114000
     19 H6'        -0.0300    1.9740   -0.9790 ha        1 PPY      0.141500
@<TRIPOS>BOND
     1    1    2 1   
     2    1    3 1   
     3    1    4 1   
     4    4    5 2   
     5    4    6 1   
     6    6    7 1   
     7    6   13 1   
     8    6   14 1   
     9    7    8 ar  
    10    7   12 ar  
    11    8    9 ar  
    12    8   15 1   
    13    9   10 ar  
    14    9   16 1   
    15   10   11 ar  
    16   10   17 1   
    17   11   12 ar  
    18   11   18 1   
    19   12   19 1   
@<TRIPOS>SUBSTRUCTURE
     1 PPY         1 TEMP              0 ****  ****    0 ROOT
