@<TRIPOS>MOLECULE
PPY
   19    19     1     0     0
SMALL
bcc


@<TRIPOS>ATOM
      1 C1          0.1970   -0.2170   -0.0000 c         1 PPY      0.855600
      2 O1          1.2210   -0.9330    0.1550 o         1 PPY     -0.811300
      3 O2         -0.1440    0.7570    0.7200 o         1 PPY     -0.811300
      4 C2         -0.6880   -0.5290   -1.2220 c         1 PPY      0.471100
      5 O3         -1.6170   -1.3420   -1.2260 o         1 PPY     -0.585100
      6 C3         -0.2720    0.2610   -2.4400 c3        1 PPY     -0.168100
      7 C1'        -1.1240    0.1640   -3.6510 ca        1 PPY     -0.041300
      8 C2'        -1.4190    1.3170   -4.3910 ca        1 PPY     -0.125000
      9 C3'        -2.1820    1.2360   -5.5550 ca        1 PPY     -0.141000
     10 C4'        -2.6630    0.0030   -5.9930 ca        1 PPY     -0.154000
     11 C5'        -2.3820   -1.1480   -5.2570 ca        1 PPY     -0.141000
     12 C6'        -1.6180   -1.0710   -4.0950 ca        1 PPY     -0.125000
     13 H31         0.7680   -0.0890   -2.6980 hc        1 PPY      0.077700
     14 H32        -0.1890    1.3330   -2.1090 hc        1 PPY      0.077700
     15 H2'        -1.0480    2.2930   -4.0470 ha        1 PPY      0.141500
     16 H3'        -2.4060    2.1470   -6.1260 ha        1 PPY      0.114000
     17 H4'        -3.2640   -0.0610   -6.9100 ha        1 PPY      0.111000
     18 H5'        -2.7690   -2.1210   -5.5920 ha        1 PPY      0.114000
     19 H6'        -1.4190   -1.9730   -3.4940 ha        1 PPY      0.141500
@<TRIPOS>BOND
     1    1    2 1   
     2    1    3 1   
     3    1    4 1   
     4    4    5 2   
     5    4    6 1   
     6    6    7 1   
     7    6   13 1   
     8    6   14 1   
     9    7    8 ar  
    10    7   12 ar  
    11    8    9 ar  
    12    8   15 1   
    13    9   10 ar  
    14    9   16 1   
    15   10   11 ar  
    16   10   17 1   
    17   11   12 ar  
    18   11   18 1   
    19   12   19 1   
@<TRIPOS>SUBSTRUCTURE
     1 PPY         1 TEMP              0 ****  ****    0 ROOT
