@<TRIPOS>MOLECULE
PPZ
   29    31     1     0     0
SMALL
bcc


@<TRIPOS>ATOM
      1 C4         -0.0540   -0.2410   -0.0890 ca        1 PPZ      0.412800
      2 C5          1.4270   -0.3350   -0.0620 ca        1 PPZ     -0.076200
      3 N7          1.9230   -0.1540    1.2160 nc        1 PPZ     -0.323400
      4 C8          0.8150    0.0480    2.0010 cd        1 PPZ      0.092700
      5 C13         0.7280    0.2870    3.4130 cd        1 PPZ     -0.137000
      6 C12        -0.5030    0.4620    3.9880 cc        1 PPZ     -0.042000
      7 C11        -1.6960    0.4110    3.2080 cc        1 PPZ     -0.164000
      8 C10        -1.6390    0.1840    1.8520 cd        1 PPZ     -0.023300
      9 N9         -0.4110    0.0050    1.2500 na        1 PPZ     -0.097900
     10 C6          2.0260   -0.5920   -1.3180 ca        1 PPZ      0.490200
     11 N6          3.4920   -0.7210   -1.3970 n4        1 PPZ     -0.730700
     12 N1          1.2880   -0.7260   -2.4480 nb        1 PPZ     -0.657000
     13 C2         -0.0630   -0.6130   -2.3280 ca        1 PPZ      0.637900
     14 N3         -0.7980   -0.3760   -1.2070 nb        1 PPZ     -0.600000
     15 C61         4.1260    0.4760   -2.0330 c3        1 PPZ      0.103800
     16 C7          5.6570    0.3700   -2.0400 c3        1 PPZ      0.106400
     17 O8          5.9860   -0.8950   -2.5810 oh        1 PPZ     -0.628800
     18 H13         1.6660    0.3190    3.9890 ha        1 PPZ      0.188000
     19 H12        -0.5920    0.6450    5.0730 ha        1 PPZ      0.174000
     20 H11        -2.6730    0.5540    3.6950 ha        1 PPZ      0.184000
     21 H10        -2.5260    0.1320    1.1920 h4        1 PPZ      0.202000
     22 H6          3.7460   -1.5530   -1.9560 hn        1 PPZ      0.478800
     23 H2         -0.6410   -0.7320   -3.2740 h5        1 PPZ      0.097100
     24 H61         3.7420    0.5430   -3.0910 hx        1 PPZ      0.118700
     25 H62         3.8160    1.3950   -1.4610 hx        1 PPZ      0.118700
     26 H71         6.0580    1.2120   -2.6640 h1        1 PPZ      0.073200
     27 H72         6.0720    0.4460   -0.9980 h1        1 PPZ      0.073200
     28 H8          6.8750   -0.8370   -2.9570 ho        1 PPZ      0.451000
     29 H621        3.8650   -0.8450   -0.4450 hn        1 PPZ      0.478800
@<TRIPOS>BOND
     1    1    2 ar  
     2    1    9 1   
     3    1   14 ar  
     4    2    3 1   
     5    2   10 ar  
     6    3    4 2   
     7    4    5 1   
     8    4    9 1   
     9    5    6 2   
    10    5   18 1   
    11    6    7 1   
    12    6   19 1   
    13    7    8 2   
    14    7   20 1   
    15    8    9 1   
    16    8   21 1   
    17   10   11 1   
    18   10   12 ar  
    19   11   15 1   
    20   11   22 1   
    21   11   29 1   
    22   12   13 ar  
    23   13   14 ar  
    24   13   23 1   
    25   15   16 1   
    26   15   24 1   
    27   15   25 1   
    28   16   17 1   
    29   16   26 1   
    30   16   27 1   
    31   17   28 1   
@<TRIPOS>SUBSTRUCTURE
     1 PPZ         1 TEMP              0 ****  ****    0 ROOT
