@<TRIPOS>MOLECULE
PPZ
   28    30     1     0     0
SMALL
bcc


@<TRIPOS>ATOM
      1 C4         -0.0520    0.0490   -0.0330 ca        1 PPZ      0.418800
      2 C5          1.4050    0.0030   -0.0180 ca        1 PPZ     -0.174200
      3 N7          1.8960   -0.0600    1.2860 nc        1 PPZ     -0.262400
      4 C8          0.7950   -0.0530    2.0790 cd        1 PPZ      0.010700
      5 C13         0.6820   -0.1010    3.5160 cd        1 PPZ     -0.116000
      6 C12        -0.5530   -0.0820    4.0930 cc        1 PPZ     -0.096000
      7 C11        -1.7410   -0.0150    3.2990 cc        1 PPZ     -0.196000
      8 C10        -1.6640    0.0310    1.9290 cd        1 PPZ     -0.025300
      9 N9         -0.4310    0.0130    1.3160 na        1 PPZ     -0.108900
     10 C6          2.0660    0.0310   -1.3020 ca        1 PPZ      0.737200
     11 N6          3.4460    0.0860   -1.3480 nu        1 PPZ     -0.834900
     12 N1          1.3010    0.0710   -2.4360 nb        1 PPZ     -0.783000
     13 C2         -0.0550    0.1120   -2.2910 ca        1 PPZ      0.671900
     14 N3         -0.8090    0.1060   -1.1720 nb        1 PPZ     -0.715000
     15 C61         4.1570   -0.1120   -2.5870 c3        1 PPZ      0.205800
     16 C7          5.6730    0.0650   -2.4280 c3        1 PPZ      0.115400
     17 O8          6.1340   -0.9650   -1.5690 oh        1 PPZ     -0.606800
     18 H13         1.6140   -0.1520    4.0960 ha        1 PPZ      0.165000
     19 H12        -0.6620   -0.1180    5.1880 ha        1 PPZ      0.144000
     20 H11        -2.7220   -0.0010    3.7930 ha        1 PPZ      0.154000
     21 H10        -2.5420    0.0840    1.2610 h4        1 PPZ      0.181000
     22 H6          3.9260   -0.2040   -0.5200 hn        1 PPZ      0.454800
     23 H2         -0.6200    0.1530   -3.2480 h5        1 PPZ      0.052100
     24 H61         3.7970    0.6450   -3.3400 h1        1 PPZ      0.063200
     25 H62         3.9580   -1.1440   -2.9990 h1        1 PPZ      0.063200
     26 H71         5.9240    1.0700   -1.9970 h1        1 PPZ      0.036200
     27 H72         6.1500   -0.0350   -3.4400 h1        1 PPZ      0.036200
     28 H8          7.0800   -0.8250   -1.4480 ho        1 PPZ      0.407000
@<TRIPOS>BOND
     1    1    2 ar  
     2    1    9 1   
     3    1   14 ar  
     4    2    3 1   
     5    2   10 ar  
     6    3    4 2   
     7    4    5 1   
     8    4    9 1   
     9    5    6 2   
    10    5   18 1   
    11    6    7 1   
    12    6   19 1   
    13    7    8 2   
    14    7   20 1   
    15    8    9 1   
    16    8   21 1   
    17   10   11 1   
    18   10   12 ar  
    19   11   15 1   
    20   11   22 1   
    21   12   13 ar  
    22   13   14 ar  
    23   13   23 1   
    24   15   16 1   
    25   15   24 1   
    26   15   25 1   
    27   16   17 1   
    28   16   26 1   
    29   16   27 1   
    30   17   28 1   
@<TRIPOS>SUBSTRUCTURE
     1 PPZ         1 TEMP              0 ****  ****    0 ROOT
