@<TRIPOS>MOLECULE
PPZ
   28    30     1     0     0
SMALL
bcc


@<TRIPOS>ATOM
      1 C4          1.0680    0.0020   -1.0490 ca        1 PPZ      0.418800
      2 C5          0.0860    0.0790    0.0250 ca        1 PPZ     -0.174200
      3 N7         -1.2150    0.1030   -0.4790 nc        1 PPZ     -0.262400
      4 C8         -1.0720    0.0450   -1.8270 cd        1 PPZ      0.010700
      5 C13        -2.0690    0.0390   -2.8700 cd        1 PPZ     -0.116000
      6 C12        -1.6760   -0.0250   -4.1740 cc        1 PPZ     -0.096000
      7 C11        -0.2910   -0.0850   -4.5280 cc        1 PPZ     -0.196000
      8 C10         0.6790   -0.0810   -3.5580 cd        1 PPZ     -0.025300
      9 N9          0.3150   -0.0170   -2.2310 na        1 PPZ     -0.108900
     10 C6          0.6040    0.1170    1.3730 ca        1 PPZ      0.737200
     11 N6         -0.2740    0.2840    2.4270 nh        1 PPZ     -0.834900
     12 N1          1.9580    0.0530    1.5610 nb        1 PPZ     -0.783000
     13 C2          2.7540   -0.0140    0.4540 ca        1 PPZ      0.671900
     14 N3          2.4220   -0.0440   -0.8530 nb        1 PPZ     -0.715000
     15 C61         0.1590    0.1040    3.7900 c3        1 PPZ      0.205800
     16 C7         -0.9510    0.4120    4.8040 c3        1 PPZ      0.115400
     17 O8         -1.9800   -0.5440    4.6130 oh        1 PPZ     -0.606800
     18 H13        -3.1230    0.0860   -2.5630 ha        1 PPZ      0.165000
     19 H12        -2.4210   -0.0310   -4.9840 ha        1 PPZ      0.144000
     20 H11        -0.0070   -0.1360   -5.5880 ha        1 PPZ      0.154000
     21 H10         1.7630   -0.1250   -3.7650 h4        1 PPZ      0.181000
     22 H6         -1.2310    0.0660    2.2410 hn        1 PPZ      0.454800
     23 H2          3.8430   -0.0550    0.6730 h5        1 PPZ      0.052100
     24 H61         1.0200    0.8000    3.9970 h1        1 PPZ      0.063200
     25 H62         0.5120   -0.9550    3.9580 h1        1 PPZ      0.063200
     26 H71        -1.3550    1.4500    4.6640 h1        1 PPZ      0.036200
     27 H72        -0.5240    0.3170    5.8380 h1        1 PPZ      0.036200
     28 H8         -2.6870   -0.3210    5.2290 ho        1 PPZ      0.407000
@<TRIPOS>BOND
     1    1    2 ar  
     2    1    9 1   
     3    1   14 ar  
     4    2    3 1   
     5    2   10 ar  
     6    3    4 2   
     7    4    5 1   
     8    4    9 1   
     9    5    6 2   
    10    5   18 1   
    11    6    7 1   
    12    6   19 1   
    13    7    8 2   
    14    7   20 1   
    15    8    9 1   
    16    8   21 1   
    17   10   11 1   
    18   10   12 ar  
    19   11   15 1   
    20   11   22 1   
    21   12   13 ar  
    22   13   14 ar  
    23   13   23 1   
    24   15   16 1   
    25   15   24 1   
    26   15   25 1   
    27   16   17 1   
    28   16   26 1   
    29   16   27 1   
    30   17   28 1   
@<TRIPOS>SUBSTRUCTURE
     1 PPZ         1 TEMP              0 ****  ****    0 ROOT
