@<TRIPOS>MOLECULE
PQ0
   19    20     1     0     0
SMALL
bcc


@<TRIPOS>ATOM
      1 N1         -0.0430    0.0640   -0.0510 n         1 PQ0     -0.502400
      2 C2          1.3500   -0.0010   -0.0270 cc        1 PQ0      0.507800
      3 N3          2.1410   -0.0580    1.0450 nd        1 PQ0     -0.535100
      4 C4          1.4580   -0.0490    2.2550 cd        1 PQ0      0.097100
      5 C5          0.0250    0.0150    2.3730 cc        1 PQ0     -0.151600
      6 C6         -0.7920    0.0760    1.1770 c         1 PQ0      0.749100
      7 O6         -2.0170    0.1350    1.0690 o         1 PQ0     -0.514500
      8 C7         -0.2780    0.0030    3.7660 cc        1 PQ0      0.005000
      9 C10        -1.5450    0.0510    4.3690 cg        1 PQ0      0.222800
     10 N11        -2.5950    0.0900    4.8670 n1        1 PQ0     -0.275800
     11 C8          0.9600   -0.0670    4.4530 cd        1 PQ0     -0.045300
     12 N9          2.0020   -0.0990    3.5420 na        1 PQ0     -0.116100
     13 N2          2.0610   -0.0090   -1.3490 n4        1 PQ0     -0.796600
     14 HN1        -0.5590    0.1040   -0.9040 hn        1 PQ0      0.351500
     15 H8          1.1440   -0.0960    5.5340 h4        1 PQ0      0.217000
     16 HN9         2.9700   -0.1480    3.7560 hn        1 PQ0      0.338700
     17 HN21        1.7620   -0.8270   -1.8930 hn        1 PQ0      0.483133
     18 HN22        3.0800   -0.0590   -1.1960 hn        1 PQ0      0.483133
     19 H23         1.8400    0.8530   -1.8610 hn        1 PQ0      0.483133
@<TRIPOS>BOND
     1    1    2 1   
     2    1    6 1   
     3    1   14 1   
     4    2    3 2   
     5    2   13 1   
     6    3    4 1   
     7    4    5 2   
     8    4   12 1   
     9    5    6 1   
    10    5    8 1   
    11    6    7 2   
    12    8    9 1   
    13    8   11 2   
    14    9   10 3   
    15   11   12 1   
    16   11   15 1   
    17   12   16 1   
    18   13   17 1   
    19   13   18 1   
    20   13   19 1   
@<TRIPOS>SUBSTRUCTURE
     1 PQ0         1 TEMP              0 ****  ****    0 ROOT
