@<TRIPOS>MOLECULE
PQ0
   18    19     1     0     0
SMALL
bcc


@<TRIPOS>ATOM
      1 N1         -1.2720   -0.0110    1.6630 n         1 PQ0     -0.508400
      2 C2         -0.0580   -0.0340    2.3790 cc        1 PQ0      0.686800
      3 N3          1.1670    0.0050    1.8040 nd        1 PQ0     -0.684100
      4 C4          1.1560    0.0020    0.4180 cd        1 PQ0      0.200100
      5 C5         -0.0230    0.0020   -0.3990 cc        1 PQ0     -0.247600
      6 C6         -1.3170   -0.0110    0.2410 c         1 PQ0      0.750100
      7 O6         -2.4380   -0.0150   -0.2900 o         1 PQ0     -0.605500
      8 C7          0.4140    0.0070   -1.7670 cc        1 PQ0     -0.011000
      9 C10        -0.3870    0.0080   -2.9190 cg        1 PQ0      0.264800
     10 N11        -1.0480    0.0100   -3.8760 n1        1 PQ0     -0.358800
     11 C8          1.8190    0.0110   -1.7470 cd        1 PQ0     -0.110300
     12 N9          2.2680    0.0080   -0.4270 na        1 PQ0     -0.165100
     13 N2         -0.1370   -0.1630    3.7830 nh        1 PQ0     -0.893800
     14 HN1        -2.1410   -0.0820    2.1450 hn        1 PQ0      0.336500
     15 H8          2.5250    0.0160   -2.5800 h4        1 PQ0      0.184000
     16 HN9         3.2110    0.0080   -0.1320 hn        1 PQ0      0.316700
     17 HN21        0.7320   -0.0620    4.2630 hn        1 PQ0      0.422300
     18 HN22       -0.9010    0.3030    4.2180 hn        1 PQ0      0.422300
@<TRIPOS>BOND
     1    1    2 1   
     2    1    6 1   
     3    1   14 1   
     4    2    3 2   
     5    2   13 1   
     6    3    4 1   
     7    4    5 2   
     8    4   12 1   
     9    5    6 1   
    10    5    8 1   
    11    6    7 2   
    12    8    9 1   
    13    8   11 2   
    14    9   10 3   
    15   11   12 1   
    16   11   15 1   
    17   12   16 1   
    18   13   17 1   
    19   13   18 1   
@<TRIPOS>SUBSTRUCTURE
     1 PQ0         1 TEMP              0 ****  ****    0 ROOT
