@<TRIPOS>MOLECULE
PQ0
   18    19     1     0     0
SMALL
bcc


@<TRIPOS>ATOM
      1 N1         -0.0120   -0.1020   -0.0480 ns        1 PQ0     -0.508400
      2 C2          1.3920    0.0180   -0.0470 cc        1 PQ0      0.686800
      3 N3          2.1510    0.0820    1.0730 nd        1 PQ0     -0.684100
      4 C4          1.4330    0.0900    2.2590 cd        1 PQ0      0.200100
      5 C5          0.0050   -0.0030    2.3600 cc        1 PQ0     -0.247600
      6 C6         -0.7770   -0.0990    1.1500 c         1 PQ0      0.750100
      7 O6         -2.0100   -0.1840    1.0360 o         1 PQ0     -0.605500
      8 C7         -0.3190    0.0340    3.7590 cc        1 PQ0     -0.011000
      9 C10        -1.5940   -0.0290    4.3410 cg        1 PQ0      0.264800
     10 N11        -2.6510   -0.0800    4.8270 n1        1 PQ0     -0.358800
     11 C8          0.8950    0.1440    4.4570 cd        1 PQ0     -0.110300
     12 N9          1.9540    0.1780    3.5510 na        1 PQ0     -0.165100
     13 N2          2.0340    0.1350   -1.3000 nv        1 PQ0     -0.893800
     14 HN1        -0.5150   -0.1030   -0.9090 hn        1 PQ0      0.336500
     15 H8          1.0730    0.2000    5.5330 h4        1 PQ0      0.184000
     16 HN9         2.9120    0.2540    3.7780 hn        1 PQ0      0.316700
     17 HN21        3.0300    0.1030   -1.2650 hn        1 PQ0      0.422300
     18 HN22        1.6330   -0.3950   -2.0410 hn        1 PQ0      0.422300
@<TRIPOS>BOND
     1    1    2 1   
     2    1    6 1   
     3    1   14 1   
     4    2    3 2   
     5    2   13 1   
     6    3    4 1   
     7    4    5 2   
     8    4   12 1   
     9    5    6 1   
    10    5    8 1   
    11    6    7 2   
    12    8    9 1   
    13    8   11 2   
    14    9   10 3   
    15   11   12 1   
    16   11   15 1   
    17   12   16 1   
    18   13   17 1   
    19   13   18 1   
@<TRIPOS>SUBSTRUCTURE
     1 PQ0         1 TEMP              0 ****  ****    0 ROOT
