@<TRIPOS>MOLECULE
PQ1
   42    44     1     0     0
SMALL
bcc


@<TRIPOS>ATOM
      1 P           5.3590    1.7900   -1.1490 p5        1 PQ1      1.346900
      2 OP3         4.3620    1.2590   -2.1660 o         1 PQ1     -0.924833
      3 OP2         5.1890    1.1040    0.1860 o         1 PQ1     -0.924833
      4 O5'         4.6510    3.3070   -0.7030 os        1 PQ1     -0.568200
      5 C5'         3.3650    3.5630   -1.0860 c3        1 PQ1      0.217400
      6 C4'         2.3280    3.2520    0.0220 c3        1 PQ1      0.064100
      7 O4'         1.0010    3.3810   -0.5490 os        1 PQ1     -0.426600
      8 C1'         0.3150    2.1350   -0.5280 c3        1 PQ1      0.210800
      9 N9          0.2970    1.5090   -1.8450 na        1 PQ1     -0.043100
     10 C4         -0.8390    1.2950   -2.6330 cc        1 PQ1      0.094100
     11 N3         -2.1620    1.5790   -2.3210 nc        1 PQ1     -0.622100
     12 C2         -3.0560    1.2720   -3.2670 cd        1 PQ1      0.552800
     13 N2         -4.4580    1.5820   -3.0690 nh        1 PQ1     -0.861800
     14 N1         -2.7420    0.6570   -4.4950 n         1 PQ1     -0.490400
     15 C6         -1.4070    0.3440   -4.8560 c         1 PQ1      0.741100
     16 O6         -1.2480   -0.1900   -5.9730 o         1 PQ1     -0.676500
     17 C5         -0.4130    0.6770   -3.8680 cd        1 PQ1     -0.225600
     18 C7          1.0060    0.5410   -3.8030 cd        1 PQ1     -0.164300
     19 C8          1.4080    1.0560   -2.5540 cc        1 PQ1     -0.094300
     20 C10         1.9260   -0.0060   -4.8330 c3        1 PQ1      0.238100
     21 N11         3.3090   -0.1930   -4.4710 n3        1 PQ1     -0.918800
     22 C2'         1.0240    1.2420    0.5480 c3        1 PQ1      0.095100
     23 O2'         0.3470    1.3870    1.7810 oh        1 PQ1     -0.564800
     24 C3'         2.4460    1.8310    0.6070 c3        1 PQ1      0.122100
     25 O3'         2.9680    1.8370    1.9100 oh        1 PQ1     -0.625800
     26 OP1         6.7230    2.1380   -1.6410 o         1 PQ1     -0.924833
     27 H5'         3.2620    4.6680   -1.3060 h1        1 PQ1      0.002200
     28 H5''        3.0880    2.9920   -2.0160 h1        1 PQ1      0.002200
     29 H4'         2.3750    4.0200    0.8380 h1        1 PQ1      0.053700
     30 H1'        -0.7470    2.3780   -0.2350 h2        1 PQ1      0.076700
     31 HN21       -4.9200    0.7780   -2.6840 hn        1 PQ1      0.368300
     32 HN22       -4.5550    2.3530   -2.4350 hn        1 PQ1      0.368300
     33 HN1        -3.4580    0.5100   -5.1680 hn        1 PQ1      0.317500
     34 H8          2.4580    1.1240   -2.1540 h4        1 PQ1      0.307000
     35 H101        1.5120   -1.0000   -5.1740 h1        1 PQ1      0.032200
     36 H102        1.8930    0.6880   -5.7250 h1        1 PQ1      0.032200
     37 H111        3.3830   -0.7860   -3.6650 hn        1 PQ1      0.382800
     38 H112        3.7450    0.6810   -4.2070 hn        1 PQ1      0.382800
     39 H1          1.0590    0.1610    0.2530 h1        1 PQ1      0.052700
     40 H2'        -0.4690    0.8800    1.6950 ho        1 PQ1      0.366000
     41 H3'         3.1310    1.2160   -0.0710 h1        1 PQ1      0.151700
     42 H2          3.9210    1.6310    1.7910 ho        1 PQ1      0.475000
@<TRIPOS>BOND
     1    1    2 1   
     2    1    3 1   
     3    1    4 1   
     4    1   26 1   
     5    4    5 1   
     6    5    6 1   
     7    5   27 1   
     8    5   28 1   
     9    6    7 1   
    10    6   24 1   
    11    6   29 1   
    12    7    8 1   
    13    8    9 1   
    14    8   22 1   
    15    8   30 1   
    16    9   10 1   
    17    9   19 1   
    18   10   11 1   
    19   10   17 2   
    20   11   12 2   
    21   12   13 1   
    22   12   14 1   
    23   13   31 1   
    24   13   32 1   
    25   14   15 1   
    26   14   33 1   
    27   15   16 2   
    28   15   17 1   
    29   17   18 1   
    30   18   19 2   
    31   18   20 1   
    32   19   34 1   
    33   20   21 1   
    34   20   35 1   
    35   20   36 1   
    36   21   37 1   
    37   21   38 1   
    38   22   23 1   
    39   22   24 1   
    40   22   39 1   
    41   23   40 1   
    42   24   25 1   
    43   24   41 1   
    44   25   42 1   
@<TRIPOS>SUBSTRUCTURE
     1 PQ1         1 TEMP              0 ****  ****    0 ROOT
