@<TRIPOS>MOLECULE
PQ9
  109   109     1     0     0
SMALL
bcc


@<TRIPOS>ATOM
      1 C1          1.5530    1.4940    0.4230 c         1 PQ9      0.554500
      2 O1          0.4910    1.4570    1.0580 o         1 PQ9     -0.504100
      3 C2          1.7570    0.6640   -0.7950 cc        1 PQ9     -0.116400
      4 C3          2.9230    0.6970   -1.4600 cd        1 PQ9     -0.198200
      5 C4          4.0610    1.5330   -1.0360 c         1 PQ9      0.551500
      6 O4          5.1310    1.5190   -1.6590 o         1 PQ9     -0.503100
      7 C5          3.8520    2.3820    0.1610 cc        1 PQ9     -0.134400
      8 C6          4.9770    3.2480    0.5800 c3        1 PQ9     -0.068900
      9 C9          2.4680    3.2090    2.0350 c3        1 PQ9     -0.068900
     10 C10         2.6810    2.3620    0.8380 cd        1 PQ9     -0.140400
     11 C11         0.5960   -0.1580   -1.2340 c3        1 PQ9     -0.020000
     12 C12         0.9760   -1.4400   -1.8750 c2        1 PQ9     -0.184200
     13 C13         0.1640   -2.1280   -2.6930 c2        1 PQ9     -0.108400
     14 C14        -1.1900   -1.6470   -3.0620 c3        1 PQ9     -0.064900
     15 C15         0.5950   -3.4200   -3.3000 c3        1 PQ9     -0.042200
     16 C16        -0.0670   -4.6060   -2.6190 c3        1 PQ9     -0.043200
     17 C17         0.3320   -5.8910   -3.2380 c2        1 PQ9     -0.176200
     18 C18         0.0070   -7.0900   -2.7260 c2        1 PQ9     -0.120400
     19 C19        -0.7800   -7.2260   -1.4770 c3        1 PQ9     -0.059900
     20 C20         0.4160   -8.3570   -3.3960 c3        1 PQ9     -0.039200
     21 C21         1.4470   -9.1140   -2.5790 c3        1 PQ9     -0.043200
     22 C22         1.8190  -10.4010   -3.2110 c2        1 PQ9     -0.174200
     23 C23         2.8150  -11.1840   -2.7640 c2        1 PQ9     -0.123400
     24 C24         3.6410  -10.8140   -1.5890 c3        1 PQ9     -0.058900
     25 C25         3.1390  -12.4800   -3.4240 c3        1 PQ9     -0.039200
     26 C26         4.4870  -12.4310   -4.1220 c3        1 PQ9     -0.044200
     27 C27         4.8420  -13.7320   -4.7350 c2        1 PQ9     -0.174200
     28 C28         5.9110  -13.9080   -5.5290 c2        1 PQ9     -0.123400
     29 C29         6.8320  -12.7970   -5.8680 c3        1 PQ9     -0.058900
     30 C30         6.2370  -15.2420   -6.1080 c3        1 PQ9     -0.038200
     31 C31         6.0410  -15.2620   -7.6130 c3        1 PQ9     -0.044200
     32 C32         6.4140  -16.5680   -8.2040 c2        1 PQ9     -0.174200
     33 C33         6.1970  -16.8860   -9.4910 c2        1 PQ9     -0.124400
     34 C34         5.5480  -15.9460  -10.4360 c3        1 PQ9     -0.058900
     35 C35         6.6070  -18.2080  -10.0440 c3        1 PQ9     -0.038200
     36 C36         5.4050  -19.0650  -10.3980 c3        1 PQ9     -0.043200
     37 C37         5.8030  -20.3590  -10.9990 c2        1 PQ9     -0.174200
     38 C38         4.9350  -21.3490  -11.2640 c2        1 PQ9     -0.123400
     39 C39         3.4880  -21.2290  -10.9640 c3        1 PQ9     -0.058900
     40 C40         5.3820  -22.6270  -11.8860 c3        1 PQ9     -0.038200
     41 C41         5.2730  -23.7900  -10.9170 c3        1 PQ9     -0.043200
     42 C42         5.6620  -25.0740  -11.5440 c2        1 PQ9     -0.177200
     43 C43         5.7660  -26.2270  -10.8640 c2        1 PQ9     -0.124400
     44 C44         5.5050  -26.3110   -9.4060 c3        1 PQ9     -0.057900
     45 C45         6.1540  -27.4950  -11.5270 c3        1 PQ9     -0.057900
     46 H3          3.0910    0.0930   -2.3690 ha        1 PQ9      0.163000
     47 H61         5.2900    2.9950    1.6250 hc        1 PQ9      0.060367
     48 H62         4.6630    4.3220    0.5650 hc        1 PQ9      0.060367
     49 H63         5.8590    3.1220   -0.0980 hc        1 PQ9      0.060367
     50 H91         1.4450    3.0610    2.4630 hc        1 PQ9      0.059700
     51 H92         3.2250    2.9610    2.8220 hc        1 PQ9      0.059700
     52 H93         2.5910    4.2900    1.7680 hc        1 PQ9      0.059700
     53 H111       -0.0200    0.4650   -1.9440 hc        1 PQ9      0.078200
     54 H112       -0.0640   -0.3770   -0.3450 hc        1 PQ9      0.078200
     55 H12         1.9750   -1.8290   -1.6200 ha        1 PQ9      0.128000
     56 H141       -1.1100   -0.7750   -3.7600 hc        1 PQ9      0.044367
     57 H142       -1.7820   -2.4480   -3.5680 hc        1 PQ9      0.044367
     58 H143       -1.7520   -1.3130   -2.1530 hc        1 PQ9      0.044367
     59 H151        0.3290   -3.4190   -4.3910 hc        1 PQ9      0.048700
     60 H152        1.7100   -3.5310   -3.2300 hc        1 PQ9      0.048700
     61 H161        0.2030   -4.6100   -1.5280 hc        1 PQ9      0.050700
     62 H162       -1.1850   -4.4950   -2.6750 hc        1 PQ9      0.050700
     63 H17         0.9200   -5.8200   -4.1670 ha        1 PQ9      0.123000
     64 H191       -1.6870   -6.5700   -1.5110 hc        1 PQ9      0.042033
     65 H192       -1.1120   -8.2800   -1.3160 hc        1 PQ9      0.042033
     66 H193       -0.1630   -6.9130   -0.5970 hc        1 PQ9      0.042033
     67 H201       -0.4930   -9.0020   -3.5420 hc        1 PQ9      0.046700
     68 H202        0.8370   -8.1430   -4.4140 hc        1 PQ9      0.046700
     69 H211        2.3640   -8.4770   -2.4480 hc        1 PQ9      0.050200
     70 H212        1.0390   -9.3080   -1.5480 hc        1 PQ9      0.050200
     71 H22         1.2230  -10.7000   -4.0880 ha        1 PQ9      0.123000
     72 H241        2.9890  -10.5050   -0.7340 hc        1 PQ9      0.041367
     73 H242        4.3070   -9.9510   -1.8440 hc        1 PQ9      0.041367
     74 H243        4.2810  -11.6670   -1.2560 hc        1 PQ9      0.041367
     75 H251        2.3460  -12.7480   -4.1720 hc        1 PQ9      0.046200
     76 H252        3.1500  -13.2930   -2.6470 hc        1 PQ9      0.046200
     77 H261        5.2810  -12.1380   -3.3810 hc        1 PQ9      0.050200
     78 H262        4.4710  -11.6320   -4.9120 hc        1 PQ9      0.050200
     79 H27         4.1730  -14.5770   -4.5010 ha        1 PQ9      0.122000
     80 H291        6.3220  -12.0700   -6.5500 hc        1 PQ9      0.041367
     81 H292        7.7530  -13.1710   -6.3770 hc        1 PQ9      0.041367
     82 H293        7.1370  -12.2450   -4.9430 hc        1 PQ9      0.041367
     83 H301        7.3050  -15.4940   -5.8660 hc        1 PQ9      0.046200
     84 H302        5.5960  -16.0380   -5.6430 hc        1 PQ9      0.046200
     85 H311        4.9680  -15.0290   -7.8550 hc        1 PQ9      0.050200
     86 H312        6.6620  -14.4480   -8.0820 hc        1 PQ9      0.050200
     87 H32         6.8960  -17.2880   -7.5230 ha        1 PQ9      0.123000
     88 H341        4.4650  -15.8290  -10.1810 hc        1 PQ9      0.041367
     89 H342        6.0270  -14.9360  -10.3740 hc        1 PQ9      0.041367
     90 H343        5.6250  -16.3090  -11.4900 hc        1 PQ9      0.041367
     91 H351        7.2480  -18.7600   -9.3050 hc        1 PQ9      0.045700
     92 H352        7.2310  -18.0410  -10.9640 hc        1 PQ9      0.045700
     93 H361        4.7900  -19.2480   -9.4740 hc        1 PQ9      0.050200
     94 H362        4.7460  -18.5040  -11.1180 hc        1 PQ9      0.050200
     95 H37         6.8740  -20.4760  -11.2300 ha        1 PQ9      0.123000
     96 H391        2.9050  -22.0650  -11.4230 hc        1 PQ9      0.041367
     97 H392        3.0850  -20.2610  -11.3560 hc        1 PQ9      0.041367
     98 H393        3.3210  -21.2480   -9.8570 hc        1 PQ9      0.041367
     99 H401        4.7470  -22.8340  -12.7910 hc        1 PQ9      0.045700
    100 H402        6.4440  -22.5400  -12.2400 hc        1 PQ9      0.045700
    101 H411        4.2160  -23.8640  -10.5370 hc        1 PQ9      0.049700
    102 H412        5.9240  -23.5940  -10.0210 hc        1 PQ9      0.049700
    103 H42         5.8660  -25.0440  -12.6270 ha        1 PQ9      0.122000
    104 H441        4.5090  -25.8630   -9.1610 hc        1 PQ9      0.040533
    105 H442        5.5160  -27.3690   -9.0510 hc        1 PQ9      0.040533
    106 H443        6.2860  -25.7400   -8.8420 hc        1 PQ9      0.040533
    107 H451        6.3640  -27.3450  -12.6140 hc        1 PQ9      0.040533
    108 H452        7.0720  -27.9150  -11.0440 hc        1 PQ9      0.040533
    109 H453        5.3320  -28.2470  -11.4270 hc        1 PQ9      0.040533
@<TRIPOS>BOND
     1    1    2 2   
     2    1    3 1   
     3    1   10 1   
     4    3    4 2   
     5    3   11 1   
     6    4    5 1   
     7    4   46 1   
     8    5    6 2   
     9    5    7 1   
    10    7    8 1   
    11    7   10 2   
    12    8   47 1   
    13    8   48 1   
    14    8   49 1   
    15    9   10 1   
    16    9   50 1   
    17    9   51 1   
    18    9   52 1   
    19   11   12 1   
    20   11   53 1   
    21   11   54 1   
    22   12   13 2   
    23   12   55 1   
    24   13   14 1   
    25   13   15 1   
    26   14   56 1   
    27   14   57 1   
    28   14   58 1   
    29   15   16 1   
    30   15   59 1   
    31   15   60 1   
    32   16   17 1   
    33   16   61 1   
    34   16   62 1   
    35   17   18 2   
    36   17   63 1   
    37   18   19 1   
    38   18   20 1   
    39   19   64 1   
    40   19   65 1   
    41   19   66 1   
    42   20   21 1   
    43   20   67 1   
    44   20   68 1   
    45   21   22 1   
    46   21   69 1   
    47   21   70 1   
    48   22   23 2   
    49   22   71 1   
    50   23   24 1   
    51   23   25 1   
    52   24   72 1   
    53   24   73 1   
    54   24   74 1   
    55   25   26 1   
    56   25   75 1   
    57   25   76 1   
    58   26   27 1   
    59   26   77 1   
    60   26   78 1   
    61   27   28 2   
    62   27   79 1   
    63   28   29 1   
    64   28   30 1   
    65   29   80 1   
    66   29   81 1   
    67   29   82 1   
    68   30   31 1   
    69   30   83 1   
    70   30   84 1   
    71   31   32 1   
    72   31   85 1   
    73   31   86 1   
    74   32   33 2   
    75   32   87 1   
    76   33   34 1   
    77   33   35 1   
    78   34   88 1   
    79   34   89 1   
    80   34   90 1   
    81   35   36 1   
    82   35   91 1   
    83   35   92 1   
    84   36   37 1   
    85   36   93 1   
    86   36   94 1   
    87   37   38 2   
    88   37   95 1   
    89   38   39 1   
    90   38   40 1   
    91   39   96 1   
    92   39   97 1   
    93   39   98 1   
    94   40   41 1   
    95   40   99 1   
    96   40  100 1   
    97   41   42 1   
    98   41  101 1   
    99   41  102 1   
   100   42   43 2   
   101   42  103 1   
   102   43   44 1   
   103   43   45 1   
   104   44  104 1   
   105   44  105 1   
   106   44  106 1   
   107   45  107 1   
   108   45  108 1   
   109   45  109 1   
@<TRIPOS>SUBSTRUCTURE
     1 PQ9         1 TEMP              0 ****  ****    0 ROOT
