@<TRIPOS>MOLECULE
PQ9
  109   109     1     0     0
SMALL
bcc


@<TRIPOS>ATOM
      1 C1          1.5590    1.4540    0.5210 c         1 PQ9      0.554500
      2 O1          0.4700    1.4280    1.1090 o         1 PQ9     -0.504100
      3 C2          1.7980    0.6460   -0.7050 cc        1 PQ9     -0.116400
      4 C3          2.9920    0.6690   -1.3200 cd        1 PQ9     -0.198200
      5 C4          4.1270    1.4730   -0.8320 c         1 PQ9      0.551500
      6 O4          5.2210    1.4520   -1.4100 o         1 PQ9     -0.503100
      7 C5          3.8840    2.3000    0.3760 cc        1 PQ9     -0.134400
      8 C6          5.0090    3.1320    0.8610 c3        1 PQ9     -0.068900
      9 C9          2.4400    3.1140    2.2090 c3        1 PQ9     -0.068900
     10 C10         2.6860    2.2900    1.0030 cd        1 PQ9     -0.140400
     11 C11         0.6410   -0.1440   -1.2100 c3        1 PQ9     -0.020000
     12 C12         1.0220   -1.4220   -1.8550 c2        1 PQ9     -0.184200
     13 C13         0.2290   -2.0830   -2.7140 c2        1 PQ9     -0.108400
     14 C14        -1.1010   -1.5730   -3.1230 c3        1 PQ9     -0.064900
     15 C15         0.6600   -3.3740   -3.3240 c3        1 PQ9     -0.042200
     16 C16        -0.0440   -4.5580   -2.6840 c3        1 PQ9     -0.043200
     17 C17         0.3550   -5.8410   -3.3070 c2        1 PQ9     -0.176200
     18 C18         0.0020   -7.0410   -2.8170 c2        1 PQ9     -0.120400
     19 C19        -0.8200   -7.1810   -1.5910 c3        1 PQ9     -0.059900
     20 C20         0.4140   -8.3050   -3.4910 c3        1 PQ9     -0.039200
     21 C21         1.4160   -9.0830   -2.6570 c3        1 PQ9     -0.043200
     22 C22         1.7870  -10.3690   -3.2920 c2        1 PQ9     -0.174200
     23 C23         2.7700  -11.1620   -2.8350 c2        1 PQ9     -0.123400
     24 C24         3.5830  -10.8060   -1.6470 c3        1 PQ9     -0.058900
     25 C25         3.0930  -12.4580   -3.4980 c3        1 PQ9     -0.038200
     26 C26         4.4490  -12.4160   -4.1780 c3        1 PQ9     -0.044200
     27 C27         4.8050  -13.7180   -4.7890 c2        1 PQ9     -0.174200
     28 C28         5.8770  -13.8970   -5.5770 c2        1 PQ9     -0.123400
     29 C29         6.8020  -12.7870   -5.9140 c3        1 PQ9     -0.058900
     30 C30         6.2040  -15.2320   -6.1520 c3        1 PQ9     -0.038200
     31 C31         6.0140  -15.2550   -7.6590 c3        1 PQ9     -0.044200
     32 C32         6.3900  -16.5610   -8.2460 c2        1 PQ9     -0.174200
     33 C33         6.1690  -16.8870   -9.5300 c2        1 PQ9     -0.124400
     34 C34         5.5120  -15.9540  -10.4770 c3        1 PQ9     -0.058900
     35 C35         6.5830  -18.2090  -10.0780 c3        1 PQ9     -0.038200
     36 C36         5.3820  -19.0730  -10.4220 c3        1 PQ9     -0.043200
     37 C37         5.7830  -20.3690  -11.0180 c2        1 PQ9     -0.174200
     38 C38         4.9200  -21.3670  -11.2660 c2        1 PQ9     -0.123400
     39 C39         3.4750  -21.2560  -10.9520 c3        1 PQ9     -0.058900
     40 C40         5.3700  -22.6470  -11.8830 c3        1 PQ9     -0.038200
     41 C41         5.2810  -23.8030  -10.9040 c3        1 PQ9     -0.043200
     42 C42         5.6730  -25.0890  -11.5250 c2        1 PQ9     -0.177200
     43 C43         5.7980  -26.2350  -10.8360 c2        1 PQ9     -0.124400
     44 C44         5.5610  -26.3080   -9.3740 c3        1 PQ9     -0.057900
     45 C45         6.1880  -27.5050  -11.4940 c3        1 PQ9     -0.057900
     46 H3          3.1850    0.0810   -2.2330 ha        1 PQ9      0.163000
     47 H61         5.2710    2.8490    1.9120 hc        1 PQ9      0.060367
     48 H62         4.7170    4.2130    0.8570 hc        1 PQ9      0.060367
     49 H63         5.9150    3.0020    0.2180 hc        1 PQ9      0.060367
     50 H91         1.3970    2.9780    2.5890 hc        1 PQ9      0.059700
     51 H92         3.1570    2.8310    3.0210 hc        1 PQ9      0.059700
     52 H93         2.5970    4.1970    1.9720 hc        1 PQ9      0.059700
     53 H111        0.0710    0.5040   -1.9350 hc        1 PQ9      0.078200
     54 H112       -0.0630   -0.3630   -0.3550 hc        1 PQ9      0.078200
     55 H12         2.0050   -1.8330   -1.5710 ha        1 PQ9      0.128000
     56 H141       -0.9810   -0.6940   -3.8070 hc        1 PQ9      0.044367
     57 H142       -1.6890   -2.3570   -3.6590 hc        1 PQ9      0.044367
     58 H143       -1.6880   -1.2390   -2.2310 hc        1 PQ9      0.044367
     59 H151        0.4320   -3.3530   -4.4240 hc        1 PQ9      0.048700
     60 H152        1.7700   -3.5050   -3.2170 hc        1 PQ9      0.048700
     61 H161        0.1880   -4.5810   -1.5840 hc        1 PQ9      0.051200
     62 H162       -1.1580   -4.4280   -2.7770 hc        1 PQ9      0.051200
     63 H17         0.9690   -5.7670   -4.2190 ha        1 PQ9      0.123000
     64 H191       -1.7160   -6.5130   -1.6420 hc        1 PQ9      0.042033
     65 H192       -1.1700   -8.2330   -1.4530 hc        1 PQ9      0.042033
     66 H193       -0.2210   -6.8880   -0.6920 hc        1 PQ9      0.042033
     67 H201       -0.4980   -8.9390   -3.6660 hc        1 PQ9      0.046700
     68 H202        0.8630   -8.0860   -4.4960 hc        1 PQ9      0.046700
     69 H211        2.3370   -8.4580   -2.4990 hc        1 PQ9      0.050200
     70 H212        0.9810   -9.2810   -1.6380 hc        1 PQ9      0.050200
     71 H22         1.2000  -10.6580   -4.1790 ha        1 PQ9      0.123000
     72 H241        2.9220  -10.4920   -0.8000 hc        1 PQ9      0.041367
     73 H242        4.2620   -9.9500   -1.8890 hc        1 PQ9      0.041367
     74 H243        4.2080  -11.6680   -1.3080 hc        1 PQ9      0.041367
     75 H251        2.3070  -12.7160   -4.2580 hc        1 PQ9      0.046200
     76 H252        3.0870  -13.2740   -2.7260 hc        1 PQ9      0.046200
     77 H261        5.2360  -12.1280   -3.4260 hc        1 PQ9      0.050200
     78 H262        4.4490  -11.6140   -4.9670 hc        1 PQ9      0.050200
     79 H27         4.1330  -14.5610   -4.5570 ha        1 PQ9      0.122000
     80 H291        6.2980  -12.0620   -6.6030 hc        1 PQ9      0.041367
     81 H292        7.7260  -13.1640   -6.4150 hc        1 PQ9      0.041367
     82 H293        7.1010  -12.2320   -4.9890 hc        1 PQ9      0.041367
     83 H301        7.2710  -15.4850   -5.9060 hc        1 PQ9      0.046200
     84 H302        5.5600  -16.0260   -5.6880 hc        1 PQ9      0.046200
     85 H311        4.9420  -15.0220   -7.9050 hc        1 PQ9      0.050200
     86 H312        6.6370  -14.4420   -8.1260 hc        1 PQ9      0.050200
     87 H32         6.8790  -17.2760   -7.5640 ha        1 PQ9      0.123000
     88 H341        4.4280  -15.8450  -10.2200 hc        1 PQ9      0.041367
     89 H342        5.9830  -14.9400  -10.4180 hc        1 PQ9      0.041367
     90 H343        5.5890  -16.3200  -11.5300 hc        1 PQ9      0.041367
     91 H351        7.2290  -18.7550   -9.3400 hc        1 PQ9      0.045700
     92 H352        7.2010  -18.0440  -11.0020 hc        1 PQ9      0.045700
     93 H361        4.7720  -19.2540   -9.4950 hc        1 PQ9      0.050200
     94 H362        4.7180  -18.5200  -11.1430 hc        1 PQ9      0.050200
     95 H37         6.8530  -20.4800  -11.2600 ha        1 PQ9      0.123000
     96 H391        2.8940  -22.0990  -11.4000 hc        1 PQ9      0.041367
     97 H392        3.0620  -20.2930  -11.3430 hc        1 PQ9      0.041367
     98 H393        3.3210  -21.2720   -9.8430 hc        1 PQ9      0.041367
     99 H401        4.7280  -22.8660  -12.7790 hc        1 PQ9      0.045700
    100 H402        6.4280  -22.5550  -12.2490 hc        1 PQ9      0.045700
    101 H411        4.2280  -23.8820  -10.5130 hc        1 PQ9      0.049700
    102 H412        5.9390  -23.5950  -10.0170 hc        1 PQ9      0.049700
    103 H42         5.8590  -25.0670  -12.6110 ha        1 PQ9      0.122000
    104 H441        4.5670  -25.8630   -9.1160 hc        1 PQ9      0.040533
    105 H442        5.5820  -27.3630   -9.0100 hc        1 PQ9      0.040533
    106 H443        6.3480  -25.7290   -8.8270 hc        1 PQ9      0.040533
    107 H451        6.3810  -27.3630  -12.5860 hc        1 PQ9      0.040533
    108 H452        7.1170  -27.9130  -11.0210 hc        1 PQ9      0.040533
    109 H453        5.3750  -28.2640  -11.3750 hc        1 PQ9      0.040533
@<TRIPOS>BOND
     1    1    2 2   
     2    1    3 1   
     3    1   10 1   
     4    3    4 2   
     5    3   11 1   
     6    4    5 1   
     7    4   46 1   
     8    5    6 2   
     9    5    7 1   
    10    7    8 1   
    11    7   10 2   
    12    8   47 1   
    13    8   48 1   
    14    8   49 1   
    15    9   10 1   
    16    9   50 1   
    17    9   51 1   
    18    9   52 1   
    19   11   12 1   
    20   11   53 1   
    21   11   54 1   
    22   12   13 2   
    23   12   55 1   
    24   13   14 1   
    25   13   15 1   
    26   14   56 1   
    27   14   57 1   
    28   14   58 1   
    29   15   16 1   
    30   15   59 1   
    31   15   60 1   
    32   16   17 1   
    33   16   61 1   
    34   16   62 1   
    35   17   18 2   
    36   17   63 1   
    37   18   19 1   
    38   18   20 1   
    39   19   64 1   
    40   19   65 1   
    41   19   66 1   
    42   20   21 1   
    43   20   67 1   
    44   20   68 1   
    45   21   22 1   
    46   21   69 1   
    47   21   70 1   
    48   22   23 2   
    49   22   71 1   
    50   23   24 1   
    51   23   25 1   
    52   24   72 1   
    53   24   73 1   
    54   24   74 1   
    55   25   26 1   
    56   25   75 1   
    57   25   76 1   
    58   26   27 1   
    59   26   77 1   
    60   26   78 1   
    61   27   28 2   
    62   27   79 1   
    63   28   29 1   
    64   28   30 1   
    65   29   80 1   
    66   29   81 1   
    67   29   82 1   
    68   30   31 1   
    69   30   83 1   
    70   30   84 1   
    71   31   32 1   
    72   31   85 1   
    73   31   86 1   
    74   32   33 2   
    75   32   87 1   
    76   33   34 1   
    77   33   35 1   
    78   34   88 1   
    79   34   89 1   
    80   34   90 1   
    81   35   36 1   
    82   35   91 1   
    83   35   92 1   
    84   36   37 1   
    85   36   93 1   
    86   36   94 1   
    87   37   38 2   
    88   37   95 1   
    89   38   39 1   
    90   38   40 1   
    91   39   96 1   
    92   39   97 1   
    93   39   98 1   
    94   40   41 1   
    95   40   99 1   
    96   40  100 1   
    97   41   42 1   
    98   41  101 1   
    99   41  102 1   
   100   42   43 2   
   101   42  103 1   
   102   43   44 1   
   103   43   45 1   
   104   44  104 1   
   105   44  105 1   
   106   44  106 1   
   107   45  107 1   
   108   45  108 1   
   109   45  109 1   
@<TRIPOS>SUBSTRUCTURE
     1 PQ9         1 TEMP              0 ****  ****    0 ROOT
