@<TRIPOS>MOLECULE
PQ9
  109   109     1     0     0
SMALL
bcc


@<TRIPOS>ATOM
      1 C1        -13.1120   -0.4720   -0.1560 c         1 PQ9      0.554500
      2 O1        -13.5210    0.6350    0.2150 o         1 PQ9     -0.504100
      3 C2        -11.8330   -1.0370    0.3530 cc        1 PQ9     -0.116400
      4 C3        -11.3910   -2.2300   -0.0770 cd        1 PQ9     -0.198200
      5 C4        -12.1210   -3.0440   -1.0650 c         1 PQ9      0.551500
      6 O4        -11.6710   -4.1280   -1.4580 o         1 PQ9     -0.503100
      7 C5        -13.4090   -2.4970   -1.5540 cc        1 PQ9     -0.134400
      8 C6        -14.1660   -3.3180   -2.5260 c3        1 PQ9     -0.068900
      9 C9        -15.1560   -0.7490   -1.6130 c3        1 PQ9     -0.068900
     10 C10       -13.8690   -1.2990   -1.1270 cd        1 PQ9     -0.140400
     11 C11       -11.1130   -0.2240    1.3710 c3        1 PQ9     -0.020000
     12 C12        -9.6370   -0.3450    1.3020 c2        1 PQ9     -0.184200
     13 C13        -8.8210   -0.0540    2.3290 c2        1 PQ9     -0.108400
     14 C14        -9.3300    0.3870    3.6500 c3        1 PQ9     -0.064900
     15 C15        -7.3410   -0.1820    2.1980 c3        1 PQ9     -0.042200
     16 C16        -6.6730    1.1740    2.0580 c3        1 PQ9     -0.043200
     17 C17        -5.1990    1.0560    1.9600 c2        1 PQ9     -0.176200
     18 C18        -4.3930    2.0920    1.6750 c2        1 PQ9     -0.120400
     19 C19        -4.9200    3.4550    1.4230 c3        1 PQ9     -0.059900
     20 C20        -2.9130    1.9270    1.6050 c3        1 PQ9     -0.039200
     21 C21        -2.3980    2.0930    0.1870 c3        1 PQ9     -0.043200
     22 C22        -0.9220    1.9840    0.1160 c2        1 PQ9     -0.174200
     23 C23        -0.2380    1.9460   -1.0390 c2        1 PQ9     -0.123400
     24 C24        -0.9140    2.0000   -2.3570 c3        1 PQ9     -0.058900
     25 C25         1.2500    1.8550   -1.0570 c3        1 PQ9     -0.039200
     26 C26         1.7220    0.5140   -1.5900 c3        1 PQ9     -0.044200
     27 C27         3.1990    0.4350   -1.6640 c2        1 PQ9     -0.174200
     28 C28         3.8650   -0.6920   -1.9630 c2        1 PQ9     -0.123400
     29 C29         3.1670   -1.9700   -2.2400 c3        1 PQ9     -0.058900
     30 C30         5.3530   -0.7170   -2.0420 c3        1 PQ9     -0.038200
     31 C31         5.9610   -1.5340   -0.9160 c3        1 PQ9     -0.044200
     32 C32         7.4370   -1.6090   -1.0190 c2        1 PQ9     -0.174200
     33 C33         8.2170   -2.1480   -0.0680 c2        1 PQ9     -0.124400
     34 C34         7.6580   -2.7130    1.1840 c3        1 PQ9     -0.058900
     35 C35         9.6980   -2.2170   -0.2260 c3        1 PQ9     -0.038200
     36 C36        10.4080   -1.2980    0.7520 c3        1 PQ9     -0.043200
     37 C37        11.8810   -1.4000    0.6400 c2        1 PQ9     -0.174200
     38 C38        12.7310   -0.5880    1.2900 c2        1 PQ9     -0.123400
     39 C39        12.2560    0.5000    2.1790 c3        1 PQ9     -0.058900
     40 C40        14.2070   -0.7420    1.1580 c3        1 PQ9     -0.038200
     41 C41        14.8280    0.4240    0.4100 c3        1 PQ9     -0.043200
     42 C42        16.3020    0.3070    0.3230 c2        1 PQ9     -0.177200
     43 C43        17.0680    1.1470   -0.3920 c2        1 PQ9     -0.124400
     44 C44        16.4950    2.2710   -1.1700 c3        1 PQ9     -0.057900
     45 C45        18.5420    1.0010   -0.4510 c3        1 PQ9     -0.057900
     46 H3        -10.4470   -2.6670    0.2940 ha        1 PQ9      0.163000
     47 H61       -13.6250   -4.2690   -2.7600 hc        1 PQ9      0.060367
     48 H62       -15.1750   -3.5710   -2.1130 hc        1 PQ9      0.060367
     49 H63       -14.3160   -2.7470   -3.4780 hc        1 PQ9      0.060367
     50 H91       -15.3720    0.2490   -1.1550 hc        1 PQ9      0.059700
     51 H92       -15.1290   -0.6320   -2.7260 hc        1 PQ9      0.059700
     52 H93       -15.9930   -1.4480   -1.3590 hc        1 PQ9      0.059700
     53 H111      -11.3950    0.8620    1.2500 hc        1 PQ9      0.078200
     54 H112      -11.4830   -0.5390    2.3890 hc        1 PQ9      0.078200
     55 H12        -9.2240   -0.6680    0.3330 ha        1 PQ9      0.128000
     56 H141       -9.8080   -0.4730    4.1840 hc        1 PQ9      0.044367
     57 H142       -8.5040    0.7820    4.2910 hc        1 PQ9      0.044367
     58 H143      -10.0980    1.1910    3.5290 hc        1 PQ9      0.044367
     59 H151       -6.9370   -0.7070    3.1060 hc        1 PQ9      0.048700
     60 H152       -7.0820   -0.8140    1.3070 hc        1 PQ9      0.048700
     61 H161       -7.0740    1.6970    1.1470 hc        1 PQ9      0.050700
     62 H162       -6.9380    1.8170    2.9420 hc        1 PQ9      0.050700
     63 H17        -4.7800    0.0530    2.1400 ha        1 PQ9      0.123000
     64 H191       -5.6460    3.7480    2.2230 hc        1 PQ9      0.042033
     65 H192       -4.0980    4.2120    1.3970 hc        1 PQ9      0.042033
     66 H193       -5.4580    3.4840    0.4420 hc        1 PQ9      0.042033
     67 H201       -2.4290    2.6930    2.2710 hc        1 PQ9      0.046700
     68 H202       -2.6130    0.9160    1.9910 hc        1 PQ9      0.046700
     69 H211       -2.8670    1.3150   -0.4760 hc        1 PQ9      0.050200
     70 H212       -2.7190    3.0940   -0.2130 hc        1 PQ9      0.050200
     71 H22        -0.3930    1.9400    1.0820 ha        1 PQ9      0.123000
     72 H241       -1.6550    2.8390   -2.3830 hc        1 PQ9      0.041367
     73 H242       -0.1800    2.1500   -3.1860 hc        1 PQ9      0.041367
     74 H243       -1.4680    1.0460   -2.5450 hc        1 PQ9      0.041367
     75 H251        1.6580    2.6790   -1.7030 hc        1 PQ9      0.046200
     76 H252        1.6640    2.0070   -0.0250 hc        1 PQ9      0.046200
     77 H261        1.3300   -0.3100   -0.9330 hc        1 PQ9      0.050200
     78 H262        1.2870    0.3450   -2.6140 hc        1 PQ9      0.050200
     79 H27         3.7450    1.3710   -1.4600 ha        1 PQ9      0.122000
     80 H291        2.3410   -1.8130   -2.9790 hc        1 PQ9      0.041367
     81 H292        3.8670   -2.7380   -2.6500 hc        1 PQ9      0.041367
     82 H293        2.7130   -2.3730   -1.2990 hc        1 PQ9      0.041367
     83 H301        5.6590   -1.1560   -3.0300 hc        1 PQ9      0.046200
     84 H302        5.7650    0.3270   -2.0030 hc        1 PQ9      0.046200
     85 H311        5.6710   -1.0840    0.0720 hc        1 PQ9      0.050200
     86 H312        5.5310   -2.5740   -0.9360 hc        1 PQ9      0.050200
     87 H32         7.8800   -1.1940   -1.9390 ha        1 PQ9      0.123000
     88 H341        6.8090   -3.4060    0.9560 hc        1 PQ9      0.041367
     89 H342        8.4320   -3.2790    1.7580 hc        1 PQ9      0.041367
     90 H343        7.2660   -1.8910    1.8350 hc        1 PQ9      0.041367
     91 H351       10.0340   -3.2760   -0.0560 hc        1 PQ9      0.045700
     92 H352        9.9930   -1.9390   -1.2730 hc        1 PQ9      0.045700
     93 H361       10.0860   -0.2360    0.5710 hc        1 PQ9      0.050200
     94 H362       10.0940   -1.5560    1.8020 hc        1 PQ9      0.050200
     95 H37        12.2630   -2.1990   -0.0170 ha        1 PQ9      0.123000
     96 H391       11.4830    0.1140    2.8910 hc        1 PQ9      0.041367
     97 H392       13.0950    0.9390    2.7710 hc        1 PQ9      0.041367
     98 H393       11.7870    1.3160    1.5720 hc        1 PQ9      0.041367
     99 H401       14.6600   -0.8110    2.1840 hc        1 PQ9      0.045700
    100 H402       14.4550   -1.6970    0.6220 hc        1 PQ9      0.045700
    101 H411       14.3910    0.4820   -0.6250 hc        1 PQ9      0.049700
    102 H412       14.5580    1.3870    0.9280 hc        1 PQ9      0.049700
    103 H42        16.7570   -0.5210    0.8880 ha        1 PQ9      0.122000
    104 H441       15.8250    2.8930   -0.5240 hc        1 PQ9      0.040533
    105 H442       17.2970    2.9290   -1.5850 hc        1 PQ9      0.040533
    106 H443       15.8830    1.8780   -2.0220 hc        1 PQ9      0.040533
    107 H451       18.8940    0.1160    0.1320 hc        1 PQ9      0.040533
    108 H452       18.8730    0.8790   -1.5130 hc        1 PQ9      0.040533
    109 H453       19.0350    1.9160   -0.0360 hc        1 PQ9      0.040533
@<TRIPOS>BOND
     1    1    2 2   
     2    1    3 1   
     3    1   10 1   
     4    3    4 2   
     5    3   11 1   
     6    4    5 1   
     7    4   46 1   
     8    5    6 2   
     9    5    7 1   
    10    7    8 1   
    11    7   10 2   
    12    8   47 1   
    13    8   48 1   
    14    8   49 1   
    15    9   10 1   
    16    9   50 1   
    17    9   51 1   
    18    9   52 1   
    19   11   12 1   
    20   11   53 1   
    21   11   54 1   
    22   12   13 2   
    23   12   55 1   
    24   13   14 1   
    25   13   15 1   
    26   14   56 1   
    27   14   57 1   
    28   14   58 1   
    29   15   16 1   
    30   15   59 1   
    31   15   60 1   
    32   16   17 1   
    33   16   61 1   
    34   16   62 1   
    35   17   18 2   
    36   17   63 1   
    37   18   19 1   
    38   18   20 1   
    39   19   64 1   
    40   19   65 1   
    41   19   66 1   
    42   20   21 1   
    43   20   67 1   
    44   20   68 1   
    45   21   22 1   
    46   21   69 1   
    47   21   70 1   
    48   22   23 2   
    49   22   71 1   
    50   23   24 1   
    51   23   25 1   
    52   24   72 1   
    53   24   73 1   
    54   24   74 1   
    55   25   26 1   
    56   25   75 1   
    57   25   76 1   
    58   26   27 1   
    59   26   77 1   
    60   26   78 1   
    61   27   28 2   
    62   27   79 1   
    63   28   29 1   
    64   28   30 1   
    65   29   80 1   
    66   29   81 1   
    67   29   82 1   
    68   30   31 1   
    69   30   83 1   
    70   30   84 1   
    71   31   32 1   
    72   31   85 1   
    73   31   86 1   
    74   32   33 2   
    75   32   87 1   
    76   33   34 1   
    77   33   35 1   
    78   34   88 1   
    79   34   89 1   
    80   34   90 1   
    81   35   36 1   
    82   35   91 1   
    83   35   92 1   
    84   36   37 1   
    85   36   93 1   
    86   36   94 1   
    87   37   38 2   
    88   37   95 1   
    89   38   39 1   
    90   38   40 1   
    91   39   96 1   
    92   39   97 1   
    93   39   98 1   
    94   40   41 1   
    95   40   99 1   
    96   40  100 1   
    97   41   42 1   
    98   41  101 1   
    99   41  102 1   
   100   42   43 2   
   101   42  103 1   
   102   43   44 1   
   103   43   45 1   
   104   44  104 1   
   105   44  105 1   
   106   44  106 1   
   107   45  107 1   
   108   45  108 1   
   109   45  109 1   
@<TRIPOS>SUBSTRUCTURE
     1 PQ9         1 TEMP              0 ****  ****    0 ROOT
