@<TRIPOS>MOLECULE
PQA
   50    53     1     0     0
SMALL
bcc


@<TRIPOS>ATOM
      1 N1         -0.0950    0.4120   -0.3920 n4        1 PQA     -0.685000
      2 C2          1.2980    0.0710   -0.2340 cc        1 PQA     -0.089700
      3 C3          1.9690   -0.2450    0.9840 cd        1 PQA     -0.246900
      4 C4          3.3370   -0.4340    0.5810 cd        1 PQA      0.360200
      5 N5          3.4670   -0.2610   -0.7640 nc        1 PQA     -0.418800
      6 N6          2.2640    0.0350   -1.2620 na        1 PQA      0.220300
      7 C7          1.9810    0.2720   -2.6460 ca        1 PQA     -0.087200
      8 C8          2.7000    1.2550   -3.3500 ca        1 PQA     -0.089000
      9 C9          2.4210    1.4830   -4.6930 ca        1 PQA     -0.153000
     10 C10         1.4320    0.7220   -5.3460 ca        1 PQA      0.179900
     11 F11         1.1570    0.9450   -6.6460 f         1 PQA     -0.100900
     12 C12         0.7310   -0.2810   -4.6430 ca        1 PQA     -0.153000
     13 C13         1.0110   -0.5120   -3.3050 ca        1 PQA     -0.089000
     14 C14         1.3290   -0.2990    2.3010 c         1 PQA      0.643300
     15 O15         0.1390    0.0620    2.3920 o         1 PQA     -0.583100
     16 C16         2.1150   -0.7530    3.4540 ca        1 PQA     -0.150600
     17 C17         3.0260   -1.8150    3.3410 ca        1 PQA     -0.142000
     18 C18         3.7350   -2.2350    4.4620 ca        1 PQA     -0.093000
     19 C19         3.5600   -1.6080    5.6960 ca        1 PQA     -0.164000
     20 C20         2.6480   -0.5500    5.8090 ca        1 PQA      0.143100
     21 O21         2.3870    0.1690    6.9480 os        1 PQA     -0.322900
     22 C22         3.0270   -0.2460    8.1730 c3        1 PQA      0.140100
     23 C23         2.8700    0.9470    9.1130 c3        1 PQA     -0.094400
     24 C24         3.3730    0.5790   10.5080 c3        1 PQA      0.167300
     25 N25         2.7530   -0.6200   11.0340 n3        1 PQA     -0.824200
     26 C26         2.8540   -1.7660   10.1540 c3        1 PQA      0.167300
     27 C27         2.3380   -1.4780    8.7450 c3        1 PQA     -0.094400
     28 C28         1.9090   -0.1270    4.6840 ca        1 PQA     -0.100000
     29 HN11       -0.5510    0.3020    0.5430 hn        1 PQA      0.482133
     30 HN12       -0.5420   -0.2050   -1.0790 hn        1 PQA      0.482133
     31 H4          4.1970   -0.6720    1.2200 h4        1 PQA      0.093100
     32 H8          3.4930    1.8420   -2.8550 ha        1 PQA      0.159000
     33 H9          2.9800    2.2500   -5.2550 ha        1 PQA      0.180500
     34 H12        -0.0210   -0.8890   -5.1720 ha        1 PQA      0.180500
     35 H13         0.4990   -1.3390   -2.7870 ha        1 PQA      0.159000
     36 H17         3.1590   -2.3350    2.3810 ha        1 PQA      0.135000
     37 H18         4.4420   -3.0760    4.3780 ha        1 PQA      0.151000
     38 H19         4.1340   -1.9590    6.5670 ha        1 PQA      0.158000
     39 H22         4.1170   -0.4440    7.9810 h1        1 PQA      0.049700
     40 H231        3.4590    1.8160    8.7260 hc        1 PQA      0.063950
     41 H232        1.7920    1.2480    9.1520 hc        1 PQA      0.063950
     42 H241        4.4990    0.4920   10.4640 h1        1 PQA      0.035950
     43 H242        3.1230    1.4230   11.2120 h1        1 PQA      0.035950
     44 H25         3.1280   -0.8400   11.9380 hn        1 PQA      0.376800
     45 H261        2.2350   -2.5920   10.6040 h1        1 PQA      0.035950
     46 H262        3.9170   -2.1440   10.0670 h1        1 PQA      0.035950
     47 H271        2.5300   -2.3690    8.0960 hc        1 PQA      0.063950
     48 H272        1.2310   -1.3010    8.7680 hc        1 PQA      0.063950
     49 H28         1.1770    0.6880    4.7910 ha        1 PQA      0.169000
     50 H131       -0.1860    1.3880   -0.7000 hn        1 PQA      0.482133
@<TRIPOS>BOND
     1    1    2 1   
     2    1   29 1   
     3    1   30 1   
     4    1   50 1   
     5    2    3 2   
     6    2    6 1   
     7    3    4 1   
     8    3   14 1   
     9    4    5 2   
    10    4   31 1   
    11    5    6 1   
    12    6    7 1   
    13    7    8 ar  
    14    7   13 ar  
    15    8    9 ar  
    16    8   32 1   
    17    9   10 ar  
    18    9   33 1   
    19   10   11 1   
    20   10   12 ar  
    21   12   13 ar  
    22   12   34 1   
    23   13   35 1   
    24   14   15 2   
    25   14   16 1   
    26   16   17 ar  
    27   16   28 ar  
    28   17   18 ar  
    29   17   36 1   
    30   18   19 ar  
    31   18   37 1   
    32   19   20 ar  
    33   19   38 1   
    34   20   21 1   
    35   20   28 ar  
    36   21   22 1   
    37   22   23 1   
    38   22   27 1   
    39   22   39 1   
    40   23   24 1   
    41   23   40 1   
    42   23   41 1   
    43   24   25 1   
    44   24   42 1   
    45   24   43 1   
    46   25   26 1   
    47   25   44 1   
    48   26   27 1   
    49   26   45 1   
    50   26   46 1   
    51   27   47 1   
    52   27   48 1   
    53   28   49 1   
@<TRIPOS>SUBSTRUCTURE
     1 PQA         1 TEMP              0 ****  ****    0 ROOT
