@<TRIPOS>MOLECULE
PQA
   49    52     1     0     0
SMALL
bcc


@<TRIPOS>ATOM
      1 N1         -0.0710   -0.4710   -0.1970 nh        1 PQA     -0.821200
      2 C2          1.2790   -0.2590   -0.0890 cc        1 PQA      0.230300
      3 C3          2.0920   -0.3630    1.0870 cd        1 PQA     -0.429900
      4 C4          3.4390   -0.1180    0.6160 cd        1 PQA      0.377200
      5 N5          3.4570    0.1180   -0.7070 nc        1 PQA     -0.510800
      6 N6          2.1740    0.0240   -1.1530 na        1 PQA      0.107300
      7 C7          1.7970    0.2570   -2.5040 ca        1 PQA      0.001800
      8 C8          2.3380    1.3500   -3.2120 ca        1 PQA     -0.105500
      9 C9          1.9660    1.5830   -4.5290 ca        1 PQA     -0.158000
     10 C10         1.0450    0.7270   -5.1610 ca        1 PQA      0.127900
     11 F11         0.6740    0.9600   -6.4420 f         1 PQA     -0.133900
     12 C12         0.5150   -0.3740   -4.4650 ca        1 PQA     -0.158000
     13 C13         0.8960   -0.6130   -3.1510 ca        1 PQA     -0.105500
     14 C14         1.6070   -0.5990    2.4210 c         1 PQA      0.638300
     15 O15         0.3880   -0.6320    2.6810 o         1 PQA     -0.589100
     16 C16         2.6150   -0.7850    3.4940 ca        1 PQA     -0.132600
     17 C17         3.7120   -1.6340    3.3090 ca        1 PQA     -0.119000
     18 C18         4.6400   -1.8110    4.3340 ca        1 PQA     -0.123000
     19 C19         4.4910   -1.1410    5.5470 ca        1 PQA     -0.150000
     20 C20         3.3850   -0.3000    5.7310 ca        1 PQA      0.097100
     21 O21         3.2380    0.4760    6.8710 os        1 PQA     -0.340900
     22 C22         3.1670   -0.2680    8.1020 c3        1 PQA      0.145100
     23 C23         3.4730    0.7390    9.2060 c3        1 PQA     -0.093400
     24 C24         3.2800    0.0900   10.5750 c3        1 PQA      0.166300
     25 N25         1.9780   -0.5260   10.7380 n3        1 PQA     -0.822200
     26 C26         1.6270   -1.4540    9.6810 c3        1 PQA      0.166300
     27 C27         1.7730   -0.8550    8.2840 c3        1 PQA     -0.093400
     28 C28         2.4370   -0.1240    4.7130 ca        1 PQA     -0.098000
     29 HN11       -0.5530   -0.5000    0.6800 hn        1 PQA      0.440800
     30 HN12       -0.5490   -0.0520   -0.9610 hn        1 PQA      0.440800
     31 H4          4.3490   -0.1050    1.2220 h4        1 PQA      0.054100
     32 H8          3.0680    2.0220   -2.7300 ha        1 PQA      0.161000
     33 H9          2.3870    2.4350   -5.0840 ha        1 PQA      0.156500
     34 H12        -0.1930   -1.0480   -4.9710 ha        1 PQA      0.156500
     35 H13         0.4990   -1.5030   -2.6350 ha        1 PQA      0.161000
     36 H17         3.8350   -2.1680    2.3540 ha        1 PQA      0.143000
     37 H18         5.5000   -2.4810    4.1840 ha        1 PQA      0.136000
     38 H19         5.2330   -1.2660    6.3480 ha        1 PQA      0.141000
     39 H22         3.9360   -1.0880    8.0980 h1        1 PQA      0.041700
     40 H231        2.7970    1.6260    9.0930 hc        1 PQA      0.062700
     41 H232        4.5290    1.0970    9.1130 hc        1 PQA      0.062700
     42 H241        3.3740    0.8850   11.3670 h1        1 PQA      0.029200
     43 H242        4.1210   -0.6490   10.7330 h1        1 PQA      0.029200
     44 H25         1.9260   -0.9860   11.6280 hn        1 PQA      0.364800
     45 H261        0.5510   -1.7480    9.8390 h1        1 PQA      0.029200
     46 H262        2.2480   -2.3990    9.7240 h1        1 PQA      0.029200
     47 H271        1.5910   -1.6550    7.5210 hc        1 PQA      0.062700
     48 H272        1.0100   -0.0490    8.1250 hc        1 PQA      0.062700
     49 H28         1.5680    0.5310    4.8730 ha        1 PQA      0.162000
@<TRIPOS>BOND
     1    1    2 1   
     2    1   29 1   
     3    1   30 1   
     4    2    3 2   
     5    2    6 1   
     6    3    4 1   
     7    3   14 1   
     8    4    5 2   
     9    4   31 1   
    10    5    6 1   
    11    6    7 1   
    12    7    8 ar  
    13    7   13 ar  
    14    8    9 ar  
    15    8   32 1   
    16    9   10 ar  
    17    9   33 1   
    18   10   11 1   
    19   10   12 ar  
    20   12   13 ar  
    21   12   34 1   
    22   13   35 1   
    23   14   15 2   
    24   14   16 1   
    25   16   17 ar  
    26   16   28 ar  
    27   17   18 ar  
    28   17   36 1   
    29   18   19 ar  
    30   18   37 1   
    31   19   20 ar  
    32   19   38 1   
    33   20   21 1   
    34   20   28 ar  
    35   21   22 1   
    36   22   23 1   
    37   22   27 1   
    38   22   39 1   
    39   23   24 1   
    40   23   40 1   
    41   23   41 1   
    42   24   25 1   
    43   24   42 1   
    44   24   43 1   
    45   25   26 1   
    46   25   44 1   
    47   26   27 1   
    48   26   45 1   
    49   26   46 1   
    50   27   47 1   
    51   27   48 1   
    52   28   49 1   
@<TRIPOS>SUBSTRUCTURE
     1 PQA         1 TEMP              0 ****  ****    0 ROOT
