@<TRIPOS>MOLECULE
PQA
   49    52     1     0     0
SMALL
bcc


@<TRIPOS>ATOM
      1 N1         -0.0780   -0.4520   -0.1930 nv        1 PQA     -0.821200
      2 C2          1.2740   -0.2580   -0.0870 cc        1 PQA      0.230300
      3 C3          2.0880   -0.3680    1.0890 cd        1 PQA     -0.429900
      4 C4          3.4380   -0.1430    0.6150 cd        1 PQA      0.377200
      5 N5          3.4570    0.0870   -0.7100 nc        1 PQA     -0.510800
      6 N6          2.1720    0.0090   -1.1540 na        1 PQA      0.107300
      7 C7          1.7960    0.2410   -2.5050 ca        1 PQA      0.001800
      8 C8          2.3510    1.3250   -3.2180 ca        1 PQA     -0.105500
      9 C9          1.9800    1.5580   -4.5350 ca        1 PQA     -0.158000
     10 C10         1.0470    0.7130   -5.1630 ca        1 PQA      0.127900
     11 F11         0.6770    0.9460   -6.4440 f         1 PQA     -0.133900
     12 C12         0.5030   -0.3790   -4.4620 ca        1 PQA     -0.158000
     13 C13         0.8820   -0.6190   -3.1470 ca        1 PQA     -0.105500
     14 C14         1.6010   -0.5930    2.4240 c         1 PQA      0.638300
     15 O15         0.3830   -0.6080    2.6860 o         1 PQA     -0.589100
     16 C16         2.6090   -0.7880    3.4960 ca        1 PQA     -0.132600
     17 C17         3.6940   -1.6520    3.3130 ca        1 PQA     -0.119000
     18 C18         4.6210   -1.8370    4.3380 ca        1 PQA     -0.123000
     19 C19         4.4820   -1.1610    5.5480 ca        1 PQA     -0.150000
     20 C20         3.3890   -0.3030    5.7300 ca        1 PQA      0.097100
     21 O21         3.2530    0.4790    6.8670 os        1 PQA     -0.340900
     22 C22         3.1740   -0.2590    8.1010 c3        1 PQA      0.145100
     23 C23         3.4950    0.7490    9.2000 c3        1 PQA     -0.093400
     24 C24         3.2960    0.1090   10.5720 c3        1 PQA      0.166300
     25 N25         1.9860   -0.4890   10.7400 n7        1 PQA     -0.822200
     26 C26         1.6210   -1.4170    9.6870 c3        1 PQA      0.166300
     27 C27         1.7730   -0.8260    8.2870 c3        1 PQA     -0.093400
     28 C28         2.4420   -0.1190    4.7120 ca        1 PQA     -0.098000
     29 HN11       -0.5520   -0.0300   -0.9580 hn        1 PQA      0.440800
     30 HN12       -0.5590   -0.4720    0.6850 hn        1 PQA      0.440800
     31 H4          4.3480   -0.1400    1.2200 h4        1 PQA      0.054100
     32 H8          3.0900    1.9890   -2.7400 ha        1 PQA      0.161000
     33 H9          2.4120    2.4020   -5.0940 ha        1 PQA      0.156500
     34 H12        -0.2140   -1.0450   -4.9640 ha        1 PQA      0.156500
     35 H13         0.4740   -1.5010   -2.6280 ha        1 PQA      0.161000
     36 H17         3.8080   -2.1920    2.3600 ha        1 PQA      0.143000
     37 H18         5.4710   -2.5190    4.1890 ha        1 PQA      0.136000
     38 H19         5.2240   -1.2920    6.3480 ha        1 PQA      0.141000
     39 H22         3.9320   -1.0890    8.1000 h1        1 PQA      0.041700
     40 H231        4.5560    1.0930    9.1040 hc        1 PQA      0.062700
     41 H232        2.8310    1.6450    9.0850 hc        1 PQA      0.062700
     42 H241        4.1270   -0.6410   10.7330 h1        1 PQA      0.029200
     43 H242        3.4020    0.9060   11.3610 h1        1 PQA      0.029200
     44 H25         1.9300   -0.9450   11.6320 hn        1 PQA      0.364800
     45 H261        0.5420   -1.6960    9.8480 h1        1 PQA      0.029200
     46 H262        2.2290   -2.3700    9.7330 h1        1 PQA      0.029200
     47 H271        1.5800   -1.6260    7.5290 hc        1 PQA      0.062700
     48 H272        1.0210   -0.0110    8.1270 hc        1 PQA      0.062700
     49 H28         1.5810    0.5480    4.8710 ha        1 PQA      0.162000
@<TRIPOS>BOND
     1    1    2 1   
     2    1   29 1   
     3    1   30 1   
     4    2    3 2   
     5    2    6 1   
     6    3    4 1   
     7    3   14 1   
     8    4    5 2   
     9    4   31 1   
    10    5    6 1   
    11    6    7 1   
    12    7    8 ar  
    13    7   13 ar  
    14    8    9 ar  
    15    8   32 1   
    16    9   10 ar  
    17    9   33 1   
    18   10   11 1   
    19   10   12 ar  
    20   12   13 ar  
    21   12   34 1   
    22   13   35 1   
    23   14   15 2   
    24   14   16 1   
    25   16   17 ar  
    26   16   28 ar  
    27   17   18 ar  
    28   17   36 1   
    29   18   19 ar  
    30   18   37 1   
    31   19   20 ar  
    32   19   38 1   
    33   20   21 1   
    34   20   28 ar  
    35   21   22 1   
    36   22   23 1   
    37   22   27 1   
    38   22   39 1   
    39   23   24 1   
    40   23   40 1   
    41   23   41 1   
    42   24   25 1   
    43   24   42 1   
    44   24   43 1   
    45   25   26 1   
    46   25   44 1   
    47   26   27 1   
    48   26   45 1   
    49   26   46 1   
    50   27   47 1   
    51   27   48 1   
    52   28   49 1   
@<TRIPOS>SUBSTRUCTURE
     1 PQA         1 TEMP              0 ****  ****    0 ROOT
