@<TRIPOS>MOLECULE
PQB
   46    48     1     0     0
SMALL
bcc


@<TRIPOS>ATOM
      1 N1          0.0660    0.2270    0.1260 n4        1 PQB     -0.685000
      2 C2          1.4930    0.0370    0.0420 cc        1 PQB     -0.089700
      3 C3          2.4020   -0.1110    1.1300 cd        1 PQB     -0.246900
      4 C4          3.6880   -0.2000    0.4910 cd        1 PQB      0.359200
      5 N5          3.5540   -0.1270   -0.8640 nc        1 PQB     -0.418800
      6 N6          2.2570    0.0090   -1.1450 na        1 PQB      0.220300
      7 C7          1.7050    0.1010   -2.4630 ca        1 PQB     -0.087200
      8 C8          0.7240   -0.8250   -2.8770 ca        1 PQB     -0.088500
      9 C9          0.1850   -0.7350   -4.1510 ca        1 PQB     -0.153000
     10 C10         0.6330    0.2700   -5.0360 ca        1 PQB      0.179900
     11 F11         0.1060    0.3560   -6.2730 f         1 PQB     -0.100900
     12 C12         1.6330    1.1740   -4.6300 ca        1 PQB     -0.153000
     13 C13         2.1720    1.0870   -3.3520 ca        1 PQB     -0.088500
     14 C14         2.0200   -0.1170    2.5430 c         1 PQB      0.642300
     15 O15         0.8350    0.1430    2.8330 o         1 PQB     -0.583100
     16 C16         3.0400   -0.4100    3.5570 ca        1 PQB     -0.152600
     17 C17         4.0260   -1.3840    3.3380 ca        1 PQB     -0.136000
     18 C18         4.9620   -1.6550    4.3320 ca        1 PQB     -0.094000
     19 C19         4.9390   -0.9620    5.5430 ca        1 PQB     -0.157000
     20 C20         3.9480    0.0040    5.7610 ca        1 PQB      0.136100
     21 O21         3.8360    0.7700    6.8980 os        1 PQB     -0.320900
     22 C22         4.5830    0.3180    8.0400 c3        1 PQB      0.123400
     23 C23         3.9940    1.0750    9.2340 c3        1 PQB      0.141100
     24 O25         3.1430    0.1590    9.9020 oh        1 PQB     -0.601800
     25 C26         5.1140    1.5520   10.1660 c3        1 PQB      0.094400
     26 O27         4.4590    2.1690   11.2620 oh        1 PQB     -0.607800
     27 C28         2.9830    0.2770    4.7720 ca        1 PQB     -0.092000
     28 HN11       -0.4270   -0.4880   -0.4210 hn        1 PQB      0.482133
     29 HN12       -0.1870    1.1590   -0.2250 hn        1 PQB      0.482133
     30 H4          4.6700   -0.3000    0.9700 h4        1 PQB      0.092100
     31 H8          0.4080   -1.6520   -2.2210 ha        1 PQB      0.159500
     32 H9         -0.5780   -1.4540   -4.4900 ha        1 PQB      0.180500
     33 H12         1.9930    1.9420   -5.3350 ha        1 PQB      0.180500
     34 H13         2.9710    1.7870   -3.0520 ha        1 PQB      0.159500
     35 H17         4.0450   -1.9560    2.3990 ha        1 PQB      0.136000
     36 H18         5.7300   -2.4270    4.1640 ha        1 PQB      0.152000
     37 H19         5.6920   -1.1820    6.3140 ha        1 PQB      0.157000
     38 H221        5.6620    0.5790    7.8830 h1        1 PQB      0.061700
     39 H222        4.4570   -0.7880    8.1770 h1        1 PQB      0.061700
     40 H23         3.3930    1.9600    8.8810 h1        1 PQB      0.073700
     41 H25         2.8380    0.6000   10.7080 ho        1 PQB      0.431000
     42 H261        5.7280    0.6820   10.5180 h1        1 PQB      0.038700
     43 H262        5.7710    2.2930    9.6400 h1        1 PQB      0.038700
     44 H27         5.1400    2.3900   11.9090 ho        1 PQB      0.418000
     45 H28         2.1960    1.0230    4.9680 ha        1 PQB      0.171000
     46 H131       -0.2000    0.1560    1.1360 hn        1 PQB      0.482133
@<TRIPOS>BOND
     1    1    2 1   
     2    1   28 1   
     3    1   29 1   
     4    1   46 1   
     5    2    3 2   
     6    2    6 1   
     7    3    4 1   
     8    3   14 1   
     9    4    5 2   
    10    4   30 1   
    11    5    6 1   
    12    6    7 1   
    13    7    8 ar  
    14    7   13 ar  
    15    8    9 ar  
    16    8   31 1   
    17    9   10 ar  
    18    9   32 1   
    19   10   11 1   
    20   10   12 ar  
    21   12   13 ar  
    22   12   33 1   
    23   13   34 1   
    24   14   15 2   
    25   14   16 1   
    26   16   17 ar  
    27   16   27 ar  
    28   17   18 ar  
    29   17   35 1   
    30   18   19 ar  
    31   18   36 1   
    32   19   20 ar  
    33   19   37 1   
    34   20   21 1   
    35   20   27 ar  
    36   21   22 1   
    37   22   23 1   
    38   22   38 1   
    39   22   39 1   
    40   23   24 1   
    41   23   25 1   
    42   23   40 1   
    43   24   41 1   
    44   25   26 1   
    45   25   42 1   
    46   25   43 1   
    47   26   44 1   
    48   27   45 1   
@<TRIPOS>SUBSTRUCTURE
     1 PQB         1 TEMP              0 ****  ****    0 ROOT
