@<TRIPOS>MOLECULE
PQB
   45    47     1     0     0
SMALL
bcc


@<TRIPOS>ATOM
      1 N1          2.8600    1.9930   -0.5880 nh        1 PQB     -0.822200
      2 C2          2.4800    0.7050   -0.3140 cc        1 PQB      0.230300
      3 C3          1.1720    0.1300   -0.4410 cd        1 PQB     -0.429900
      4 C4          1.3580   -1.2660   -0.1040 cd        1 PQB      0.377200
      5 N5          2.6410   -1.5260    0.2040 nc        1 PQB     -0.510800
      6 N6          3.3340   -0.3620    0.0710 na        1 PQB      0.107300
      7 C7          4.7210   -0.2410    0.3550 ca        1 PQB      0.001800
      8 C8          5.5690    0.4650   -0.5230 ca        1 PQB     -0.106000
      9 C9          6.9220    0.5970   -0.2330 ca        1 PQB     -0.158000
     10 C10         7.4520    0.0080    0.9290 ca        1 PQB      0.127900
     11 F11         8.7700    0.1370    1.2100 f         1 PQB     -0.133900
     12 C12         6.6160   -0.7200    1.7950 ca        1 PQB     -0.158000
     13 C13         5.2620   -0.8430    1.5110 ca        1 PQB     -0.106000
     14 C14        -0.0290    0.8500   -0.7740 c         1 PQB      0.637300
     15 O15        -0.0420    2.0910   -0.8850 o         1 PQB     -0.586100
     16 C16        -1.2700    0.0580   -0.9620 ca        1 PQB     -0.117600
     17 C17        -1.2670   -1.1020   -1.7480 ca        1 PQB     -0.137000
     18 C18        -2.4450   -1.8210   -1.9300 ca        1 PQB     -0.105000
     19 C19        -3.6340   -1.4060   -1.3280 ca        1 PQB     -0.188000
     20 C20        -3.6310   -0.2460   -0.5470 ca        1 PQB      0.117100
     21 O21        -4.7350    0.2620    0.1120 os        1 PQB     -0.321900
     22 C22        -5.9780   -0.3900   -0.1650 c3        1 PQB      0.094400
     23 C23        -7.0430    0.3870    0.6140 c3        1 PQB      0.098100
     24 O25        -7.4640    1.5540   -0.0620 oh        1 PQB     -0.576800
     25 C26        -8.2480   -0.5210    0.8930 c3        1 PQB      0.093400
     26 O27        -7.9020   -1.6120    1.7190 oh        1 PQB     -0.591800
     27 C28        -2.4510    0.5000   -0.3660 ca        1 PQB     -0.109000
     28 HN11        3.6850    2.3380   -0.1540 hn        1 PQB      0.440800
     29 HN12        2.0970    2.6330   -0.6910 hn        1 PQB      0.440800
     30 H4          0.5850   -2.0390   -0.0810 h4        1 PQB      0.054100
     31 H8          5.1800    0.9010   -1.4580 ha        1 PQB      0.160500
     32 H9          7.5850    1.1510   -0.9140 ha        1 PQB      0.156500
     33 H12         7.0410   -1.1900    2.6950 ha        1 PQB      0.156500
     34 H13         4.6180   -1.4240    2.1920 ha        1 PQB      0.160500
     35 H17        -0.3340   -1.4340   -2.2290 ha        1 PQB      0.144000
     36 H18        -2.4420   -2.7280   -2.5540 ha        1 PQB      0.136000
     37 H19        -4.5510   -1.9920   -1.4760 ha        1 PQB      0.139000
     38 H221       -6.1850   -0.3670   -1.2660 h1        1 PQB      0.053200
     39 H222       -5.9380   -1.4510    0.2010 h1        1 PQB      0.053200
     40 H23        -6.6030    0.7710    1.5790 h1        1 PQB      0.097700
     41 H25        -7.7500    1.2930   -0.9470 ho        1 PQB      0.398000
     42 H261       -9.0680    0.0880    1.3570 h1        1 PQB      0.056700
     43 H262       -8.6230   -0.9890   -0.0560 h1        1 PQB      0.056700
     44 H27        -7.6160   -1.2520    2.5670 ho        1 PQB      0.404000
     45 H28        -2.4710    1.4250    0.2310 ha        1 PQB      0.165000
@<TRIPOS>BOND
     1    1    2 1   
     2    1   28 1   
     3    1   29 1   
     4    2    3 2   
     5    2    6 1   
     6    3    4 1   
     7    3   14 1   
     8    4    5 2   
     9    4   30 1   
    10    5    6 1   
    11    6    7 1   
    12    7    8 ar  
    13    7   13 ar  
    14    8    9 ar  
    15    8   31 1   
    16    9   10 ar  
    17    9   32 1   
    18   10   11 1   
    19   10   12 ar  
    20   12   13 ar  
    21   12   33 1   
    22   13   34 1   
    23   14   15 2   
    24   14   16 1   
    25   16   17 ar  
    26   16   27 ar  
    27   17   18 ar  
    28   17   35 1   
    29   18   19 ar  
    30   18   36 1   
    31   19   20 ar  
    32   19   37 1   
    33   20   21 1   
    34   20   27 ar  
    35   21   22 1   
    36   22   23 1   
    37   22   38 1   
    38   22   39 1   
    39   23   24 1   
    40   23   25 1   
    41   23   40 1   
    42   24   41 1   
    43   25   26 1   
    44   25   42 1   
    45   25   43 1   
    46   26   44 1   
    47   27   45 1   
@<TRIPOS>SUBSTRUCTURE
     1 PQB         1 TEMP              0 ****  ****    0 ROOT
