@<TRIPOS>MOLECULE
PQB
   45    40     1     0     0
SMALL
bcc


@<TRIPOS>ATOM
      1 N1         -1.2590   -1.4510   -3.4750 n3        1 PQB     -0.336000
      2 C2         -0.6740   -0.2310   -3.0500 c2        1 PQB      0.179000
      3 C3         -0.3950    0.1190   -1.7600 c1        1 PQB     -0.347000
      4 C4          0.1230    1.3810   -1.7680 c1        1 PQB     -0.087000
      5 N5          0.1620    1.8060   -3.0480 n2        1 PQB     -0.077000
      6 N6         -0.3330    0.8050   -3.8450 n3        1 PQB     -0.133000
      7 C7         -0.4600    0.8490   -5.1790 c1        1 PQB      0.047000
      8 C8          0.5560    0.3640   -5.9870 c1        1 PQB     -0.090000
      9 C9          0.4670    0.4920   -7.3650 c1        1 PQB     -0.158000
     10 C10        -0.6380    1.1040   -7.9330 c1        1 PQB      0.093000
     11 F11        -0.7120    1.2520   -9.2620 f         1 PQB     -0.099000
     12 C12        -1.6540    1.5900   -7.1250 c2        1 PQB     -0.157000
     13 C13        -1.5650    1.4620   -5.7480 c1        1 PQB     -0.122000
     14 C14        -0.6760   -0.7190   -0.5310 c1        1 PQB      0.356000
     15 O15        -1.7190   -1.3340   -0.4420 o         1 PQB     -0.348000
     16 C16         0.3260   -0.7590    0.6020 c2        1 PQB     -0.093000
     17 C17         1.5620   -1.3560    0.4140 c2        1 PQB     -0.138000
     18 C18         2.4800   -1.3950    1.4520 c1        1 PQB     -0.103000
     19 C19         2.1610   -0.8360    2.6800 c1        1 PQB     -0.187000
     20 C20         0.9240   -0.2390    2.8690 c1        1 PQB      0.074000
     21 O21         0.6410    0.4190    4.0780 o         1 PQB     -0.223000
     22 C22         0.2910   -0.4480    5.1300 c3        1 PQB     -0.058000
     23 C23        -0.0100    0.3620    6.3720 c3        1 PQB     -0.013000
     24 O25        -1.2690    0.9760    6.2380 oh        1 PQB     -0.337000
     25 C26        -0.0200   -0.5490    7.5770 c3        1 PQB     -0.012000
     26 O27         0.0220    0.2280    8.7540 oh        1 PQB     -0.322000
     27 C28         0.0070   -0.2000    1.8300 c2        1 PQB     -0.112000
     28 HN11       -1.3280   -1.6380   -4.3670 hn        1 PQB      0.240000
     29 HN12       -1.5750   -2.0470   -2.8570 hn        1 PQB      0.240000
     30 H4          0.4130    1.8880   -0.9860 DU        1 PQB      0.190000
     31 H8          1.3340   -0.0680   -5.5860 ha        1 PQB      0.163000
     32 H9          1.1820    0.1500   -7.9340 ha        1 PQB      0.157000
     33 H12        -2.4330    2.0210   -7.5260 ha        1 PQB      0.156000
     34 H13        -2.2810    1.8040   -5.1790 ha        1 PQB      0.158000
     35 H17         1.7870   -1.7500   -0.4510 ha        1 PQB      0.143000
     36 H18         3.3500   -1.8160    1.3190 ha        1 PQB      0.137000
     37 H19         2.8070   -0.8640    3.4110 ha        1 PQB      0.139000
     38 H221        1.0350   -1.0590    5.3110 h1        1 PQB      0.092500
     39 H222       -0.5020   -0.9650    4.8780 h1        1 PQB      0.092500
     40 H23         0.6770    1.0480    6.4870 h1        1 PQB      0.105000
     41 H25        -1.2190    1.6260    5.6320 ho        1 PQB      0.223000
     42 H261       -0.8370   -1.0900    7.5710 h1        1 PQB      0.091500
     43 H262        0.7620   -1.1380    7.5470 h1        1 PQB      0.091500
     44 H27        -0.6450   -0.0130    9.2910 ho        1 PQB      0.218000
     45 H28        -0.8640    0.2210    1.9630 ha        1 PQB      0.163000
@<TRIPOS>BOND
     1    1    2 1   
     2    1   28 1   
     3    1   29 1   
     4    2    3 1   
     5    2    6 1   
     6    3    4 1   
     7    4    5 1   
     8    5    6 1   
     9    6    7 1   
    10    7    8 1   
    11    8   31 1   
    12    9   10 1   
    13    9   32 1   
    14   10   12 1   
    15   12   13 1   
    16   12   33 1   
    17   13   34 1   
    18   14   15 1   
    19   14   16 1   
    20   16   17 1   
    21   16   27 1   
    22   17   18 1   
    23   17   35 1   
    24   18   36 1   
    25   19   20 1   
    26   19   37 1   
    27   20   27 1   
    28   21   22 1   
    29   22   23 1   
    30   22   38 1   
    31   22   39 1   
    32   23   24 1   
    33   23   25 1   
    34   23   40 1   
    35   24   41 1   
    36   25   26 1   
    37   25   42 1   
    38   25   43 1   
    39   26   44 1   
    40   27   45 1   
@<TRIPOS>SUBSTRUCTURE
     1 PQB         1 TEMP              0 ****  ****    0 ROOT
