@<TRIPOS>MOLECULE
PQB
   45    47     1     0     0
SMALL
bcc


@<TRIPOS>ATOM
      1 N1          0.0150   -0.0470    0.1450 nh        1 PQB     -0.822200
      2 C2          1.3850   -0.0830    0.1810 cc        1 PQB      0.231300
      3 C3          2.2260   -0.3160    1.3190 cd        1 PQB     -0.429900
      4 C4          3.5690   -0.3290    0.7770 cd        1 PQB      0.377200
      5 N5          3.5600   -0.1200   -0.5520 nc        1 PQB     -0.510800
      6 N6          2.2600    0.0160   -0.9320 na        1 PQB      0.107300
      7 C7          1.8610    0.2870   -2.2690 ca        1 PQB      0.001800
      8 C8          0.7840   -0.4180   -2.8470 ca        1 PQB     -0.106000
      9 C9          0.3840   -0.1380   -4.1480 ca        1 PQB     -0.157500
     10 C10         1.0670    0.8360   -4.8990 ca        1 PQB      0.127900
     11 F11         0.6770    1.1080   -6.1660 f         1 PQB     -0.133900
     12 C12         2.1590    1.5230   -4.3370 ca        1 PQB     -0.157500
     13 C13         2.5520    1.2510   -3.0330 ca        1 PQB     -0.106000
     14 C14         1.7760   -0.4400    2.6800 c         1 PQB      0.637300
     15 O15         0.5880   -0.2420    3.0000 o         1 PQB     -0.587100
     16 C16         2.7890   -0.7960    3.7060 ca        1 PQB     -0.117600
     17 C17         3.7030   -1.8350    3.4820 ca        1 PQB     -0.136000
     18 C18         4.6300   -2.1680    4.4640 ca        1 PQB     -0.105000
     19 C19         4.6710   -1.4710    5.6730 ca        1 PQB     -0.185000
     20 C20         3.7530   -0.4380    5.8920 ca        1 PQB      0.118100
     21 O21         3.6990    0.3350    7.0370 os        1 PQB     -0.334900
     22 C22         4.5520   -0.0840    8.1080 c3        1 PQB      0.126400
     23 C23         4.1810    0.8040    9.3000 c3        1 PQB      0.143100
     24 O25         4.7800    0.1950   10.4340 oh        1 PQB     -0.603800
     25 C26         4.7050    2.2280    9.0970 c3        1 PQB      0.092400
     26 O27         4.3270    2.9570   10.2550 oh        1 PQB     -0.613800
     27 C28         2.7990   -0.1000    4.9150 ca        1 PQB     -0.111000
     28 HN11       -0.4180    0.0240    1.0440 hn        1 PQB      0.441800
     29 HN12       -0.4200    0.4350   -0.6070 hn        1 PQB      0.441800
     30 H4          4.4960   -0.4750    1.3370 h4        1 PQB      0.053100
     31 H8          0.2620   -1.2110   -2.2880 ha        1 PQB      0.160500
     32 H9         -0.4580   -0.6820   -4.6000 ha        1 PQB      0.156500
     33 H12         2.6960    2.2730   -4.9350 ha        1 PQB      0.156500
     34 H13         3.4150    1.7880   -2.6060 ha        1 PQB      0.160500
     35 H17         3.6740   -2.3920    2.5330 ha        1 PQB      0.144000
     36 H18         5.3420   -2.9890    4.2890 ha        1 PQB      0.137000
     37 H19         5.4150   -1.7430    6.4340 ha        1 PQB      0.142000
     38 H221        4.3640   -1.1590    8.3620 h1        1 PQB      0.056200
     39 H222        5.6230    0.0610    7.8150 h1        1 PQB      0.056200
     40 H23         3.0630    0.8310    9.4310 h1        1 PQB      0.066700
     41 H25         4.6470    0.8070   11.1710 ho        1 PQB      0.426000
     42 H261        5.8220    2.2260    8.9970 h1        1 PQB      0.042700
     43 H262        4.2410    2.6720    8.1780 h1        1 PQB      0.042700
     44 H27         4.6110    3.8680   10.1160 ho        1 PQB      0.410000
     45 H28         2.0670    0.6980    5.1110 ha        1 PQB      0.163000
@<TRIPOS>BOND
     1    1    2 1   
     2    1   28 1   
     3    1   29 1   
     4    2    3 2   
     5    2    6 1   
     6    3    4 1   
     7    3   14 1   
     8    4    5 2   
     9    4   30 1   
    10    5    6 1   
    11    6    7 1   
    12    7    8 ar  
    13    7   13 ar  
    14    8    9 ar  
    15    8   31 1   
    16    9   10 ar  
    17    9   32 1   
    18   10   11 1   
    19   10   12 ar  
    20   12   13 ar  
    21   12   33 1   
    22   13   34 1   
    23   14   15 2   
    24   14   16 1   
    25   16   17 ar  
    26   16   27 ar  
    27   17   18 ar  
    28   17   35 1   
    29   18   19 ar  
    30   18   36 1   
    31   19   20 ar  
    32   19   37 1   
    33   20   21 1   
    34   20   27 ar  
    35   21   22 1   
    36   22   23 1   
    37   22   38 1   
    38   22   39 1   
    39   23   24 1   
    40   23   25 1   
    41   23   40 1   
    42   24   41 1   
    43   25   26 1   
    44   25   42 1   
    45   25   43 1   
    46   26   44 1   
    47   27   45 1   
@<TRIPOS>SUBSTRUCTURE
     1 PQB         1 TEMP              0 ****  ****    0 ROOT
