@<TRIPOS>MOLECULE
PQB
   45    47     1     0     0
SMALL
bcc


@<TRIPOS>ATOM
      1 N1          0.0130   -0.0020    0.1440 nv        1 PQB     -0.822200
      2 C2          1.3810   -0.0690    0.1820 cc        1 PQB      0.231300
      3 C3          2.2160   -0.3130    1.3220 cd        1 PQB     -0.429900
      4 C4          3.5590   -0.3590    0.7810 cd        1 PQB      0.377200
      5 N5          3.5550   -0.1590   -0.5490 nc        1 PQB     -0.510800
      6 N6          2.2590    0.0040   -0.9310 na        1 PQB      0.107300
      7 C7          1.8670    0.2740   -2.2700 ca        1 PQB      0.001800
      8 C8          0.7760   -0.4100   -2.8450 ca        1 PQB     -0.106000
      9 C9          0.3840   -0.1300   -4.1480 ca        1 PQB     -0.157500
     10 C10         1.0890    0.8230   -4.9050 ca        1 PQB      0.127900
     11 F11         0.7060    1.0950   -6.1740 f         1 PQB     -0.133900
     12 C12         2.1950    1.4890   -4.3460 ca        1 PQB     -0.157500
     13 C13         2.5810    1.2170   -3.0400 ca        1 PQB     -0.106000
     14 C14         1.7620   -0.4180    2.6830 c         1 PQB      0.637300
     15 O15         0.5790   -0.1910    3.0010 o         1 PQB     -0.587100
     16 C16         2.7660   -0.7890    3.7120 ca        1 PQB     -0.117600
     17 C17         3.6560   -1.8490    3.4960 ca        1 PQB     -0.136000
     18 C18         4.5760   -2.1960    4.4810 ca        1 PQB     -0.105000
     19 C19         4.6310   -1.4920    5.6850 ca        1 PQB     -0.185000
     20 C20         3.7360   -0.4370    5.8970 ca        1 PQB      0.118100
     21 O21         3.6990    0.3450    7.0360 os        1 PQB     -0.334900
     22 C22         4.5420   -0.0850    8.1100 c3        1 PQB      0.126400
     23 C23         4.1910    0.8200    9.2960 c3        1 PQB      0.143100
     24 O25         4.7760    0.2060   10.4340 oh        1 PQB     -0.603800
     25 C26         4.7460    2.2310    9.0830 c3        1 PQB      0.092400
     26 O27         4.3850    2.9770   10.2350 oh        1 PQB     -0.613800
     27 C28         2.7910   -0.0850    4.9160 ca        1 PQB     -0.111000
     28 HN11       -0.4110    0.4840   -0.6120 hn        1 PQB      0.441800
     29 HN12       -0.4200    0.0840    1.0420 hn        1 PQB      0.441800
     30 H4          4.4820   -0.5220    1.3430 h4        1 PQB      0.053100
     31 H8          0.2350   -1.1880   -2.2810 ha        1 PQB      0.160500
     32 H9         -0.4700   -0.6580   -4.5970 ha        1 PQB      0.156500
     33 H12         2.7490    2.2240   -4.9490 ha        1 PQB      0.156500
     34 H13         3.4550    1.7390   -2.6160 ha        1 PQB      0.160500
     35 H17         3.6160   -2.4130    2.5510 ha        1 PQB      0.144000
     36 H18         5.2690   -3.0340    4.3130 ha        1 PQB      0.137000
     37 H19         5.3690   -1.7750    6.4490 ha        1 PQB      0.142000
     38 H221        5.6170    0.0340    7.8170 h1        1 PQB      0.056200
     39 H222        4.3300   -1.1540    8.3720 h1        1 PQB      0.056200
     40 H23         3.0740    0.8730    9.4260 h1        1 PQB      0.066700
     41 H25         4.6570    0.8260   11.1660 ho        1 PQB      0.426000
     42 H261        5.8640    2.2030    8.9830 h1        1 PQB      0.042700
     43 H262        4.2930    2.6780    8.1590 h1        1 PQB      0.042700
     44 H27         4.6890    3.8790   10.0890 ho        1 PQB      0.410000
     45 H28         2.0770    0.7310    5.1060 ha        1 PQB      0.163000
@<TRIPOS>BOND
     1    1    2 1   
     2    1   28 1   
     3    1   29 1   
     4    2    3 2   
     5    2    6 1   
     6    3    4 1   
     7    3   14 1   
     8    4    5 2   
     9    4   30 1   
    10    5    6 1   
    11    6    7 1   
    12    7    8 ar  
    13    7   13 ar  
    14    8    9 ar  
    15    8   31 1   
    16    9   10 ar  
    17    9   32 1   
    18   10   11 1   
    19   10   12 ar  
    20   12   13 ar  
    21   12   33 1   
    22   13   34 1   
    23   14   15 2   
    24   14   16 1   
    25   16   17 ar  
    26   16   27 ar  
    27   17   18 ar  
    28   17   35 1   
    29   18   19 ar  
    30   18   36 1   
    31   19   20 ar  
    32   19   37 1   
    33   20   21 1   
    34   20   27 ar  
    35   21   22 1   
    36   22   23 1   
    37   22   38 1   
    38   22   39 1   
    39   23   24 1   
    40   23   25 1   
    41   23   40 1   
    42   24   41 1   
    43   25   26 1   
    44   25   42 1   
    45   25   43 1   
    46   26   44 1   
    47   27   45 1   
@<TRIPOS>SUBSTRUCTURE
     1 PQB         1 TEMP              0 ****  ****    0 ROOT
