@<TRIPOS>MOLECULE
PQC
   46    50     1     0     0
SMALL
bcc


@<TRIPOS>ATOM
      1 C1          3.4010   -3.2310    0.8200 ca        1 PQC     -0.107000
      2 C2          2.1110   -3.6590    0.6640 ca        1 PQC     -0.078000
      3 C3          3.7260   -1.8810    0.5430 ca        1 PQC     -0.074100
      4 C4          2.7400   -0.9680    0.1080 ca        1 PQC     -0.152100
      5 C5          3.2860    0.3370   -0.1130 cc        1 PQC     -0.086200
      6 S6          5.2210   -1.1360    0.6610 ss        1 PQC      0.084500
      7 C7          4.6380    0.3770    0.1540 cd        1 PQC     -0.060600
      8 C8          5.5040    1.5270    0.0420 ca        1 PQC     -0.022800
      9 C9          6.8830    1.3590   -0.1680 ca        1 PQC     -0.118500
     10 C10         4.9830    2.8260    0.1430 ca        1 PQC     -0.118500
     11 C11         5.8240    3.9310    0.0340 ca        1 PQC     -0.126500
     12 C12         7.1920    3.7560   -0.1750 ca        1 PQC     -0.125000
     13 C13         1.3830   -1.3990   -0.0610 ca        1 PQC      0.506600
     14 C14         1.0930   -2.7680    0.2290 ca        1 PQC     -0.311600
     15 C15        -0.2680   -3.1690    0.0580 ca        1 PQC      0.483200
     16 N16        -1.2290   -2.3570   -0.3500 nb        1 PQC     -0.724000
     17 N17         0.4140   -0.5250   -0.4750 nb        1 PQC     -0.745000
     18 C18        -0.8510   -1.0280   -0.6240 ca        1 PQC      0.864900
     19 N19        -1.8230   -0.1440   -1.1550 nh        1 PQC     -0.700300
     20 C20        -3.2050   -0.3680   -0.9430 ca        1 PQC      0.101600
     21 C21        -3.9820    0.5980   -0.2710 ca        1 PQC     -0.057000
     22 C22        -3.8480   -1.5080   -1.4720 ca        1 PQC     -0.043000
     23 C23        -5.2210   -1.6700   -1.3060 ca        1 PQC     -0.149000
     24 C24        -5.9740   -0.7070   -0.6400 ca        1 PQC     -0.029000
     25 C25        -5.3620    0.4420   -0.1290 ca        1 PQC     -0.367500
     26 S26        -6.2760    1.6090    0.6900 sy        1 PQC      1.526200
     27 O27        -7.3800    0.9700    1.2920 o         1 PQC     -0.657300
     28 O28        -5.4070    2.3480    1.5230 o         1 PQC     -0.657300
     29 N29        -6.8000    2.5550   -0.4920 n3        1 PQC     -1.026700
     30 C30         7.7180    2.4670   -0.2750 ca        1 PQC     -0.126500
     31 H1          4.1920   -3.9180    1.1570 ha        1 PQC      0.142000
     32 H2          1.8350   -4.7040    0.8750 ha        1 PQC      0.137000
     33 H5          2.6810    1.1780   -0.4610 ha        1 PQC      0.174000
     34 H9          7.3020    0.3440   -0.2530 ha        1 PQC      0.135500
     35 H10         3.9050    2.9690    0.3140 ha        1 PQC      0.135500
     36 H11         5.4060    4.9450    0.1150 ha        1 PQC      0.134000
     37 H12         7.8540    4.6300   -0.2600 ha        1 PQC      0.134000
     38 H15        -0.5690   -4.2120    0.2750 h4        1 PQC      0.030100
     39 HN19       -1.5600    0.8230   -1.1020 hn        1 PQC      0.435800
     40 H21        -3.5040    1.4930    0.1680 ha        1 PQC      0.155000
     41 H22        -3.2730   -2.2750   -2.0140 ha        1 PQC      0.159000
     42 H23        -5.7130   -2.5700   -1.7070 ha        1 PQC      0.143000
     43 H24        -7.0580   -0.8540   -0.4970 ha        1 PQC      0.152000
     44 HN29       -6.3110    3.3510   -0.8130 hn        1 PQC      0.447800
     45 HN2A       -7.6590    2.4180   -0.9610 hn        1 PQC      0.447800
     46 H30         8.7960    2.3250   -0.4400 ha        1 PQC      0.134000
@<TRIPOS>BOND
     1    1    2 ar  
     2    1    3 ar  
     3    1   31 1   
     4    2   14 ar  
     5    2   32 1   
     6    3    4 ar  
     7    3    6 1   
     8    4    5 1   
     9    4   13 ar  
    10    5    7 2   
    11    5   33 1   
    12    6    7 1   
    13    7    8 1   
    14    8    9 ar  
    15    8   10 ar  
    16    9   30 ar  
    17    9   34 1   
    18   10   11 ar  
    19   10   35 1   
    20   11   12 ar  
    21   11   36 1   
    22   12   30 ar  
    23   12   37 1   
    24   13   14 ar  
    25   13   17 ar  
    26   14   15 ar  
    27   15   16 ar  
    28   15   38 1   
    29   16   18 ar  
    30   17   18 ar  
    31   18   19 1   
    32   19   20 1   
    33   19   39 1   
    34   20   21 ar  
    35   20   22 ar  
    36   21   25 ar  
    37   21   40 1   
    38   22   23 ar  
    39   22   41 1   
    40   23   24 ar  
    41   23   42 1   
    42   24   25 ar  
    43   24   43 1   
    44   25   26 1   
    45   26   27 2   
    46   26   28 2   
    47   26   29 1   
    48   29   44 1   
    49   29   45 1   
    50   30   46 1   
@<TRIPOS>SUBSTRUCTURE
     1 PQC         1 TEMP              0 ****  ****    0 ROOT
