@<TRIPOS>MOLECULE
PQC
   48    52     1     0     0
SMALL
bcc


@<TRIPOS>ATOM
      1 C1          0.1060    0.4110    0.0570 ca        1 PQC     -0.001000
      2 C2          1.3960   -0.0140   -0.1520 ca        1 PQC     -0.135000
      3 C3         -0.4560    0.3610    1.3500 ca        1 PQC     -0.139100
      4 C4          0.2970   -0.1240    2.4580 ca        1 PQC     -0.131100
      5 C5         -0.4660   -0.0970    3.6600 cc        1 PQC     -0.132200
      6 S6         -1.9880    0.8060    1.8260 ss        1 PQC      0.244500
      7 C7         -1.7440    0.3930    3.4400 cd        1 PQC     -0.012600
      8 C8         -2.7810    0.5530    4.4300 ca        1 PQC     -0.072800
      9 C9         -4.1330    0.5080    4.0480 ca        1 PQC     -0.105000
     10 C10        -2.4580    0.7600    5.7800 ca        1 PQC     -0.105000
     11 C11        -3.4670    0.9200    6.7260 ca        1 PQC     -0.121000
     12 C12        -4.8070    0.8730    6.3390 ca        1 PQC     -0.093000
     13 C13         1.6380   -0.5720    2.2560 ca        1 PQC      0.460600
     14 C14         2.1760   -0.5090    0.9200 ca        1 PQC     -0.204600
     15 C15         3.5180   -0.9710    0.7420 ca        1 PQC      0.484200
     16 N16         4.2630   -1.4500    1.7360 nb        1 PQC     -0.704000
     17 N17         2.3900   -1.0570    3.2980 nb        1 PQC     -0.641000
     18 C18         3.6310   -1.4760    2.9730 ca        1 PQC      0.646900
     19 N19         4.4450   -2.0620    4.0950 n4        1 PQC     -0.609100
     20 C20         5.5810   -1.2000    4.4390 ca        1 PQC     -0.039400
     21 C21         5.4980   -0.3340    5.5350 ca        1 PQC      0.029000
     22 C22         6.7440   -1.2280    3.6350 ca        1 PQC      0.029000
     23 C23         7.8070   -0.3840    3.9510 ca        1 PQC     -0.123000
     24 C24         7.7210    0.4850    5.0340 ca        1 PQC      0.040000
     25 C25         6.5720    0.5210    5.8500 ca        1 PQC     -0.500500
     26 S26         6.4230    1.6410    7.0300 sy        1 PQC      1.471200
     27 O27         7.2090    2.7510    6.8370 o         1 PQC     -0.539300
     28 O28         5.1630    1.6610    7.5830 o         1 PQC     -0.539300
     29 N29         7.3950    0.7760    8.4020 n4        1 PQC     -0.799500
     30 C30        -5.1370    0.6670    4.9990 ca        1 PQC     -0.121000
     31 H1         -0.5000    0.7920   -0.7850 ha        1 PQC      0.173000
     32 H2          1.8400    0.0200   -1.1610 ha        1 PQC      0.167000
     33 H5         -0.0870   -0.4390    4.6270 ha        1 PQC      0.169000
     34 H9         -4.4010    0.3390    2.9920 ha        1 PQC      0.131500
     35 H10        -1.4030    0.8060    6.0880 ha        1 PQC      0.131500
     36 H11        -3.2060    1.0850    7.7830 ha        1 PQC      0.150000
     37 H12        -5.6030    1.0000    7.0900 ha        1 PQC      0.154000
     38 H15         3.9960   -0.9490   -0.2600 h4        1 PQC      0.070100
     39 HN19        3.8370   -2.1960    4.9170 hn        1 PQC      0.482800
     40 H21         4.5780   -0.2860    6.1550 ha        1 PQC      0.189000
     41 H22         6.8160   -1.8950    2.7520 ha        1 PQC      0.207000
     42 H23         8.7170   -0.3950    3.3200 ha        1 PQC      0.207000
     43 H24         8.5620    1.1790    5.2360 ha        1 PQC      0.190000
     44 HN29        8.1720    1.3670    8.7140 hn        1 PQC      0.469467
     45 HN2A        6.7980    0.6150    9.2180 hn        1 PQC      0.469467
     46 H30        -6.1940    0.6290    4.6910 ha        1 PQC      0.150000
     47 H192        4.7970   -2.9810    3.7810 hn        1 PQC      0.482800
     48 H293        7.7880   -0.1210    8.1300 hn        1 PQC      0.469467
@<TRIPOS>BOND
     1    1    2 ar  
     2    1    3 ar  
     3    1   31 1   
     4    2   14 ar  
     5    2   32 1   
     6    3    4 ar  
     7    3    6 1   
     8    4    5 1   
     9    4   13 ar  
    10    5    7 2   
    11    5   33 1   
    12    6    7 1   
    13    7    8 1   
    14    8    9 ar  
    15    8   10 ar  
    16    9   30 ar  
    17    9   34 1   
    18   10   11 ar  
    19   10   35 1   
    20   11   12 ar  
    21   11   36 1   
    22   12   30 ar  
    23   12   37 1   
    24   13   14 ar  
    25   13   17 ar  
    26   14   15 ar  
    27   15   16 ar  
    28   15   38 1   
    29   16   18 ar  
    30   17   18 ar  
    31   18   19 1   
    32   19   20 1   
    33   19   39 1   
    34   19   47 1   
    35   20   21 ar  
    36   20   22 ar  
    37   21   25 ar  
    38   21   40 1   
    39   22   23 ar  
    40   22   41 1   
    41   23   24 ar  
    42   23   42 1   
    43   24   25 ar  
    44   24   43 1   
    45   25   26 1   
    46   26   27 2   
    47   26   28 2   
    48   26   29 1   
    49   29   44 1   
    50   29   45 1   
    51   29   48 1   
    52   30   46 1   
@<TRIPOS>SUBSTRUCTURE
     1 PQC         1 TEMP              0 ****  ****    0 ROOT
