@<TRIPOS>MOLECULE
PQC
   46    36     1     0     0
SMALL
bcc


@<TRIPOS>ATOM
      1 C1         -1.9330   -0.2520   -4.0790 c1        1 PQC     -0.107000
      2 C2         -0.5360   -0.2850   -4.0620 c1        1 PQC     -0.030000
      3 C3         -2.6390   -0.2330   -2.8900 c1        1 PQC     -0.301000
      4 C4         -1.9380   -0.2460   -1.6450 c1        1 PQC     -0.075000
      5 C5         -3.0200   -0.2760   -0.4560 c1        1 PQC     -0.098000
      6 S6         -4.1750   -0.2530   -2.5800 s         1 PQC      0.552000
      7 C7         -4.3400   -0.2800   -1.0430 c2        1 PQC     -0.313000
      8 C8         -5.5270   -0.2520   -0.3280 c1        1 PQC     -0.011000
      9 C9         -6.0290    0.9550    0.1330 c1        1 PQC     -0.111000
     10 C10        -6.1750   -1.4370   -0.0150 c1        1 PQC     -0.127000
     11 C11        -7.3240   -1.4150    0.7580 c1        1 PQC     -0.111000
     12 C12        -7.8270   -0.2080    1.2190 c1        1 PQC     -0.111000
     13 C13        -0.5280   -0.2790   -1.6300 c1        1 PQC      0.113000
     14 C14         0.1690   -0.2980   -2.8080 c1        1 PQC     -0.181000
     15 C15         1.5520   -0.3400   -2.7910 c1        1 PQC     -0.030000
     16 N16         2.2110   -0.3630   -1.6150 n1        1 PQC     -0.198000
     17 N17         0.1420   -0.3010   -0.4450 n1        1 PQC     -0.219000
     18 C18         1.5100   -0.3430   -0.4320 c1        1 PQC      0.146000
     19 N19         2.1060   -0.6280    0.8240 n3        1 PQC     -0.221000
     20 C20         3.5080   -0.4840    0.9930 c2        1 PQC      0.020000
     21 C21         4.0240    0.6840    1.5320 c2        1 PQC     -0.057000
     22 C22         4.3540   -1.5360    0.6800 c1        1 PQC     -0.043000
     23 C23         5.7170   -1.4200    0.9050 c1        1 PQC     -0.111000
     24 C24         6.2330   -0.2520    1.4430 c1        1 PQC     -0.111000
     25 C25         5.3860    0.8000    1.7570 c1        1 PQC     -0.812000
     26 S26         6.0470    2.2950    2.4450 s4        1 PQC      2.081800
     27 O27         7.0800    2.8410    1.6090 o         1 PQC     -0.544900
     28 O28         5.0770    3.3540    2.4180 o         1 PQC     -0.544900
     29 N29         6.5940    2.0250    3.9700 n2        1 PQC     -0.953000
     30 C30        -7.1790    0.9770    0.9070 c1        1 PQC     -0.111000
     31 H1         -2.4100   -0.2280   -4.9300 ha        1 PQC      0.142000
     32 H2         -0.0380   -0.2960   -4.9010 ha        1 PQC      0.152000
     33 H5         -2.8190   -0.2890    0.5000 DU        1 PQC      0.174000
     34 H9         -5.5730    1.7890   -0.0870 ha        1 PQC      0.139167
     35 H10        -5.8210   -2.2860   -0.3400 ha        1 PQC      0.133000
     36 H11        -7.7800   -2.2490    0.9780 ha        1 PQC      0.139167
     37 H12        -8.6360   -0.1930    1.7640 ha        1 PQC      0.139167
     38 H15         2.0510   -0.3540   -3.6310 ha        1 PQC      0.152000
     39 HN19        1.5920   -0.9270    1.5150 hn        1 PQC      0.231000
     40 H21         3.4290    1.4250    1.7520 ha        1 PQC      0.155000
     41 H22         3.9910   -2.3590    0.3000 ha        1 PQC      0.159000
     42 H23         6.3130   -2.1610    0.6840 ha        1 PQC      0.139167
     43 H24         7.1930   -0.1700    1.6020 ha        1 PQC      0.139167
     44 HN29        6.0500    2.1890    4.6860 hn        1 PQC      0.243000
     45 HN2A        7.4500    1.7340    4.1040 hn        1 PQC      0.243000
     46 H30        -7.5330    1.8270    1.2310 ha        1 PQC      0.139167
@<TRIPOS>BOND
     1    1    3 1   
     2    1   31 1   
     3    2   14 1   
     4    2   32 1   
     5    4   13 1   
     6    5    7 1   
     7    6    7 1   
     8    7    8 1   
     9    8   10 1   
    10    9   30 1   
    11    9   34 1   
    12   10   35 1   
    13   11   12 1   
    14   11   36 1   
    15   12   37 1   
    16   13   17 1   
    17   14   15 1   
    18   15   38 1   
    19   16   18 1   
    20   18   19 1   
    21   19   20 1   
    22   19   39 1   
    23   20   21 1   
    24   20   22 1   
    25   21   25 1   
    26   21   40 1   
    27   22   41 1   
    28   23   24 1   
    29   23   42 1   
    30   24   43 1   
    31   25   26 1   
    32   26   27 1   
    33   26   28 1   
    34   29   44 1   
    35   29   45 1   
    36   30   46 1   
@<TRIPOS>SUBSTRUCTURE
     1 PQC         1 TEMP              0 ****  ****    0 ROOT
