@<TRIPOS>MOLECULE
PQC
   47    51     1     0     0
SMALL
bcc


@<TRIPOS>ATOM
      1 C1         -0.1860    0.2220    0.0300 ca        1 PQC     -0.075000
      2 C2          1.1770    0.1430   -0.0500 ca        1 PQC     -0.098000
      3 C3         -0.8210    0.1580    1.2940 ca        1 PQC     -0.094100
      4 C4         -0.0660    0.0140    2.4830 ca        1 PQC     -0.149100
      5 C5         -0.9060   -0.0330    3.6390 cc        1 PQC     -0.101200
      6 S6         -2.4550    0.2300    1.6300 ss        1 PQC      0.140500
      7 C7         -2.2410    0.0750    3.3030 cd        1 PQC     -0.047600
      8 C8         -3.3590    0.0690    4.2170 ca        1 PQC     -0.039800
      9 C9         -4.6200   -0.3780    3.7890 ca        1 PQC     -0.114500
     10 C10        -3.2030    0.5100    5.5390 ca        1 PQC     -0.114500
     11 C11        -4.2870    0.5030    6.4140 ca        1 PQC     -0.125000
     12 C12        -5.5360    0.0580    5.9820 ca        1 PQC     -0.115000
     13 C13         1.3620   -0.0710    2.4180 ca        1 PQC      0.497600
     14 C14         1.9690   -0.0040    1.1240 ca        1 PQC     -0.282600
     15 C15         3.3920   -0.0870    1.0900 ca        1 PQC      0.487200
     16 N16         4.1450   -0.2280    2.1730 nb        1 PQC     -0.750000
     17 N17         2.1120   -0.2070    3.5590 nb        1 PQC     -0.713000
     18 C18         3.4630   -0.2960    3.3950 ca        1 PQC      0.837900
     19 N19         4.2180   -0.5030    4.5900 nu        1 PQC     -0.713300
     20 C20         5.6090   -0.3530    4.6310 ca        1 PQC      0.161600
     21 C21         6.2070    0.4080    5.6520 ca        1 PQC     -0.075000
     22 C22         6.4630   -1.0420    3.7240 ca        1 PQC      0.012000
     23 C23         7.8450   -0.9290    3.8390 ca        1 PQC     -0.136000
     24 C24         8.4180   -0.1700    4.8500 ca        1 PQC     -0.011000
     25 C25         7.6090    0.5020    5.7880 ca        1 PQC     -0.532500
     26 S26         8.2510    1.4270    6.9160 sy        1 PQC      1.494200
     27 O27         9.5820    1.7420    6.7480 o         1 PQC     -0.568300
     28 O28         7.3830    2.2780    7.5650 o         1 PQC     -0.568300
     29 N29         8.4260    0.0650    8.2820 nz        1 PQC     -0.784500
     30 C30        -5.7000   -0.3820    4.6680 ca        1 PQC     -0.125000
     31 H1         -0.8010    0.3350   -0.8770 ha        1 PQC      0.152000
     32 H2          1.6890    0.1910   -1.0230 ha        1 PQC      0.146000
     33 H5         -0.5160   -0.1510    4.6540 ha        1 PQC      0.172000
     34 H9         -4.7530   -0.7320    2.7540 ha        1 PQC      0.134000
     35 H10        -2.2210    0.8690    5.8820 ha        1 PQC      0.134000
     36 H11        -4.1560    0.8530    7.4490 ha        1 PQC      0.139000
     37 H12        -6.3910    0.0540    6.6750 ha        1 PQC      0.140000
     38 H15         3.9300   -0.0320    0.1230 h4        1 PQC      0.039100
     39 HN19        3.7370   -0.2230    5.4240 hn        1 PQC      0.447800
     40 H21         5.5720    0.9690    6.3650 ha        1 PQC      0.164000
     41 H22         6.0380   -1.6770    2.9250 ha        1 PQC      0.194000
     42 H23         8.4930   -1.4520    3.1140 ha        1 PQC      0.176000
     43 H24         9.5180   -0.0770    4.9120 ha        1 PQC      0.167000
     44 HN29        8.0880   -0.8390    7.9700 hn        1 PQC      0.453800
     45 HN2A        7.9000    0.3290    9.1130 hn        1 PQC      0.453800
     46 H30        -6.6840   -0.7350    4.3240 ha        1 PQC      0.139000
     47 H293        9.4020   -0.0390    8.5520 hn        1 PQC      0.453800
@<TRIPOS>BOND
     1    1    2 ar  
     2    1    3 ar  
     3    1   31 1   
     4    2   14 ar  
     5    2   32 1   
     6    3    4 ar  
     7    3    6 1   
     8    4    5 1   
     9    4   13 ar  
    10    5    7 2   
    11    5   33 1   
    12    6    7 1   
    13    7    8 1   
    14    8    9 ar  
    15    8   10 ar  
    16    9   30 ar  
    17    9   34 1   
    18   10   11 ar  
    19   10   35 1   
    20   11   12 ar  
    21   11   36 1   
    22   12   30 ar  
    23   12   37 1   
    24   13   14 ar  
    25   13   17 ar  
    26   14   15 ar  
    27   15   16 ar  
    28   15   38 1   
    29   16   18 ar  
    30   17   18 ar  
    31   18   19 1   
    32   19   20 1   
    33   19   39 1   
    34   20   21 ar  
    35   20   22 ar  
    36   21   25 ar  
    37   21   40 1   
    38   22   23 ar  
    39   22   41 1   
    40   23   24 ar  
    41   23   42 1   
    42   24   25 ar  
    43   24   43 1   
    44   25   26 1   
    45   26   27 2   
    46   26   28 2   
    47   26   29 1   
    48   29   44 1   
    49   29   45 1   
    50   29   47 1   
    51   30   46 1   
@<TRIPOS>SUBSTRUCTURE
     1 PQC         1 TEMP              0 ****  ****    0 ROOT
