@<TRIPOS>MOLECULE
PQE
   97    96     1     0     0
SMALL
bcc


@<TRIPOS>ATOM
      1 O47        20.3810   10.3310    9.6970 oh        1 PQE     -0.594800
      2 C68        19.1030   10.4150   10.2920 c3        1 PQE      0.125400
      3 C52        18.1160   11.0970    9.3460 c3        1 PQE      0.093400
      4 O70        16.8340   10.9770    9.9520 os        1 PQE     -0.425600
      5 C55        15.8190   11.6440    9.2020 c3        1 PQE      0.127400
      6 C58        14.4890   11.2690    9.8500 c3        1 PQE      0.126400
      7 O71        13.8100   10.4310    8.9190 os        1 PQE     -0.427600
      8 C61        12.6070    9.8870    9.4610 c3        1 PQE      0.127400
      9 C62        11.9820    9.0410    8.3670 c3        1 PQE     -0.082400
     10 C63        10.7140    8.3840    8.8690 c3        1 PQE     -0.079400
     11 C66        10.0920    7.5220    7.7930 c3        1 PQE     -0.083400
     12 C67         8.8790    6.7870    8.3350 c3        1 PQE      0.132400
     13 O72         8.4100    5.9500    7.2800 os        1 PQE     -0.425600
     14 C65         7.2800    5.1680    7.6570 c3        1 PQE      0.125400
     15 C64         7.2850    3.9230    6.7740 c3        1 PQE      0.125400
     16 O73         7.8330    2.8730    7.5670 os        1 PQE     -0.426600
     17 C60         7.9610    1.6560    6.8350 c3        1 PQE      0.128400
     18 C59         8.6140    0.6630    7.7920 c3        1 PQE      0.119400
     19 O74         8.3650   -0.6310    7.2400 os        1 PQE     -0.428600
     20 C57         8.7910   -1.6890    8.0850 c3        1 PQE      0.131400
     21 C56         7.8490   -1.8840    9.2690 c3        1 PQE      0.094400
     22 O75         8.3710   -1.1070   10.3430 os        1 PQE     -0.429600
     23 C54         7.4930   -1.0520   11.4650 c3        1 PQE      0.127400
     24 C53         7.9600    0.1140   12.3300 c3        1 PQE      0.126400
     25 O76         7.2350    1.2580   11.8900 os        1 PQE     -0.423600
     26 C51         7.7180    2.4700   12.4670 c3        1 PQE      0.134400
     27 C50         7.0190    3.6010   11.7340 c3        1 PQE     -0.088400
     28 C49         7.3270    4.9300   12.3880 c3        1 PQE     -0.078400
     29 C48         6.7230    6.0730   11.5990 c3        1 PQE     -0.080400
     30 C47         6.8900    7.3940   12.3190 c3        1 PQE     -0.079400
     31 C46         6.3060    8.5310   11.5060 c3        1 PQE     -0.079400
     32 C45         6.3620    9.8560   12.2370 c3        1 PQE     -0.077400
     33 C44         7.7280   10.5090   12.2130 c3        1 PQE     -0.078400
     34 C43         8.0500   11.1310   10.8710 c3        1 PQE     -0.079400
     35 C42         9.3210   11.9520   10.9370 c3        1 PQE     -0.080400
     36 C41         9.6650   12.5410    9.5850 c3        1 PQE     -0.083400
     37 C40        10.8360   13.4860    9.6730 c3        1 PQE     -0.093100
     38 HO47       20.3030    9.7530    8.9280 ho        1 PQE      0.398000
     39 H681       18.7250    9.3990   10.5770 h1        1 PQE      0.059200
     40 H682       19.2540   11.0310   11.2180 h1        1 PQE      0.059200
     41 H521       18.1120   10.5910    8.3440 h1        1 PQE      0.032200
     42 H522       18.3800   12.1780    9.2070 h1        1 PQE      0.032200
     43 H551       15.9880   12.7510    9.2610 h1        1 PQE      0.044700
     44 H552       15.8460   11.3140    8.1300 h1        1 PQE      0.044700
     45 H581       13.8720   12.1880   10.0390 h1        1 PQE      0.042700
     46 H582       14.6570   10.7240   10.8160 h1        1 PQE      0.042700
     47 H611       12.8490    9.2650   10.3640 h1        1 PQE      0.028700
     48 H612       11.9180   10.7220    9.7660 h1        1 PQE      0.028700
     49 H621       11.7580    9.6870    7.4790 hc        1 PQE      0.056700
     50 H622       12.7170    8.2620    8.0340 hc        1 PQE      0.056700
     51 H631        9.9840    9.1730    9.1950 hc        1 PQE      0.041200
     52 H632       10.9480    7.7560    9.7690 hc        1 PQE      0.041200
     53 H661       10.8380    6.7730    7.4180 hc        1 PQE      0.057200
     54 H662        9.7870    8.1520    6.9190 hc        1 PQE      0.057200
     55 H671        9.1550    6.1570    9.2240 h1        1 PQE      0.026700
     56 H672        8.0690    7.5040    8.6370 h1        1 PQE      0.026700
     57 H651        7.3280    4.8760    8.7400 h1        1 PQE      0.044700
     58 H652        6.3550    5.7740    7.4690 h1        1 PQE      0.044700
     59 H641        7.9120    4.0850    5.8580 h1        1 PQE      0.042200
     60 H642        6.2370    3.6560    6.4740 h1        1 PQE      0.042200
     61 H601        6.9490    1.2940    6.5160 h1        1 PQE      0.037700
     62 H602        8.6000    1.8170    5.9280 h1        1 PQE      0.037700
     63 H591        8.1660    0.7400    8.8190 h1        1 PQE      0.054700
     64 H592        9.7190    0.8350    7.8550 h1        1 PQE      0.054700
     65 H571        8.7530   -2.5930    7.4200 h1        1 PQE      0.059700
     66 H572        9.8390   -1.5120    8.4440 h1        1 PQE      0.059700
     67 H561        7.8230   -2.9630    9.5750 h1        1 PQE      0.039700
     68 H562        6.8130   -1.5420    9.0070 h1        1 PQE      0.039700
     69 H541        6.4330   -0.8950   11.1340 h1        1 PQE      0.042700
     70 H542        7.5760   -2.0150   12.0360 h1        1 PQE      0.042700
     71 H531        9.0640    0.2780   12.2110 h1        1 PQE      0.040200
     72 H532        7.7200   -0.0850   13.4080 h1        1 PQE      0.040200
     73 H511        7.4700    2.4790   13.5620 h1        1 PQE      0.025200
     74 H512        8.8310    2.5420   12.3440 h1        1 PQE      0.025200
     75 H501        7.3510    3.6060   10.6620 hc        1 PQE      0.059200
     76 H502        5.9130    3.4160   11.7370 hc        1 PQE      0.059200
     77 H491        6.9210    4.9380   13.4340 hc        1 PQE      0.039700
     78 H492        8.4370    5.0700   12.4620 hc        1 PQE      0.039700
     79 H481        5.6320    5.8750   11.4270 hc        1 PQE      0.039700
     80 H482        7.2120    6.1300   10.5890 hc        1 PQE      0.039700
     81 H471        6.3800    7.3440   13.3170 hc        1 PQE      0.040200
     82 H472        7.9780    7.5850   12.5120 hc        1 PQE      0.040200
     83 H461        6.8530    8.6110   10.5290 hc        1 PQE      0.039200
     84 H462        5.2350    8.2940   11.2660 hc        1 PQE      0.039200
     85 H451        5.6130   10.5550   11.7770 hc        1 PQE      0.039700
     86 H452        6.0530    9.7000   13.3050 hc        1 PQE      0.039700
     87 H441        8.5140    9.7540   12.4750 hc        1 PQE      0.039700
     88 H442        7.7590   11.3070   13.0020 hc        1 PQE      0.039700
     89 H431        8.1640   10.3260   10.0960 hc        1 PQE      0.039700
     90 H432        7.2000   11.7860   10.5440 hc        1 PQE      0.039700
     91 H421        9.1950   12.7770   11.6860 hc        1 PQE      0.038200
     92 H422       10.1690   11.3090   11.2920 hc        1 PQE      0.038200
     93 H411        8.7740   13.0870    9.1760 hc        1 PQE      0.040700
     94 H412        9.9030   11.7100    8.8680 hc        1 PQE      0.040700
     95 H401       11.7420   12.9580   10.0620 hc        1 PQE      0.032700
     96 H402       11.0780   13.8990    8.6640 hc        1 PQE      0.032700
     97 H403       10.6070   14.3370   10.3580 hc        1 PQE      0.032700
@<TRIPOS>BOND
     1    1    2 1   
     2    1   38 1   
     3    2    3 1   
     4    2   39 1   
     5    2   40 1   
     6    3    4 1   
     7    3   41 1   
     8    3   42 1   
     9    4    5 1   
    10    5    6 1   
    11    5   43 1   
    12    5   44 1   
    13    6    7 1   
    14    6   45 1   
    15    6   46 1   
    16    7    8 1   
    17    8    9 1   
    18    8   47 1   
    19    8   48 1   
    20    9   10 1   
    21    9   49 1   
    22    9   50 1   
    23   10   11 1   
    24   10   51 1   
    25   10   52 1   
    26   11   12 1   
    27   11   53 1   
    28   11   54 1   
    29   12   13 1   
    30   12   55 1   
    31   12   56 1   
    32   13   14 1   
    33   14   15 1   
    34   14   57 1   
    35   14   58 1   
    36   15   16 1   
    37   15   59 1   
    38   15   60 1   
    39   16   17 1   
    40   17   18 1   
    41   17   61 1   
    42   17   62 1   
    43   18   19 1   
    44   18   63 1   
    45   18   64 1   
    46   19   20 1   
    47   20   21 1   
    48   20   65 1   
    49   20   66 1   
    50   21   22 1   
    51   21   67 1   
    52   21   68 1   
    53   22   23 1   
    54   23   24 1   
    55   23   69 1   
    56   23   70 1   
    57   24   25 1   
    58   24   71 1   
    59   24   72 1   
    60   25   26 1   
    61   26   27 1   
    62   26   73 1   
    63   26   74 1   
    64   27   28 1   
    65   27   75 1   
    66   27   76 1   
    67   28   29 1   
    68   28   77 1   
    69   28   78 1   
    70   29   30 1   
    71   29   79 1   
    72   29   80 1   
    73   30   31 1   
    74   30   81 1   
    75   30   82 1   
    76   31   32 1   
    77   31   83 1   
    78   31   84 1   
    79   32   33 1   
    80   32   85 1   
    81   32   86 1   
    82   33   34 1   
    83   33   87 1   
    84   33   88 1   
    85   34   35 1   
    86   34   89 1   
    87   34   90 1   
    88   35   36 1   
    89   35   91 1   
    90   35   92 1   
    91   36   37 1   
    92   36   93 1   
    93   36   94 1   
    94   37   95 1   
    95   37   96 1   
    96   37   97 1   
@<TRIPOS>SUBSTRUCTURE
     1 PQE         1 TEMP              0 ****  ****    0 ROOT
