@<TRIPOS>MOLECULE
PQE
   97    96     1     0     0
SMALL
bcc


@<TRIPOS>ATOM
      1 O47         0.7220   -1.9490    1.3900 oh        1 PQE     -0.600800
      2 C68         1.7780   -1.1910    0.8370 c3        1 PQE      0.131400
      3 C52         2.6510   -0.5670    1.9200 c3        1 PQE      0.087400
      4 O70         1.8280    0.3840    2.5920 os        1 PQE     -0.438600
      5 C55         2.5030    1.0160    3.6780 c3        1 PQE      0.128400
      6 C58         1.5890    2.1360    4.1650 c3        1 PQE      0.126400
      7 O71         2.2370    3.3600    3.8280 os        1 PQE     -0.426600
      8 C61         1.4210    4.4970    4.1050 c3        1 PQE      0.127400
      9 C62         2.2360    5.7190    3.7210 c3        1 PQE     -0.082400
     10 C63         1.4270    6.9790    3.9400 c3        1 PQE     -0.079400
     11 C66         2.2220    8.2040    3.5430 c3        1 PQE     -0.083400
     12 C67         1.3700    9.4550    3.6680 c3        1 PQE      0.132400
     13 O72         2.1740   10.5380    3.2050 os        1 PQE     -0.426600
     14 C65         1.4880   11.7860    3.2320 c3        1 PQE      0.125400
     15 C64         2.1260   12.6700    2.1650 c3        1 PQE      0.124400
     16 O73         1.2590   12.6180    1.0340 os        1 PQE     -0.426600
     17 C60         1.7760   13.3510   -0.0750 c3        1 PQE      0.128400
     18 C59         0.7770   13.1470   -1.2100 c3        1 PQE      0.119400
     19 O74         1.0480   14.1810   -2.1580 os        1 PQE     -0.428600
     20 C57         0.1090   14.2210   -3.2220 c3        1 PQE      0.131400
     21 C56        -1.2260   14.8140   -2.7800 c3        1 PQE      0.094400
     22 O75        -2.0500   13.7220   -2.3820 os        1 PQE     -0.429600
     23 C54        -3.2690   14.1410   -1.7740 c3        1 PQE      0.127400
     24 C53        -3.8330   12.9270   -1.0420 c3        1 PQE      0.126400
     25 O76        -3.3180   12.9830    0.2850 os        1 PQE     -0.423600
     26 C51        -3.5910   11.7970    1.0300 c3        1 PQE      0.134400
     27 C50        -2.7910   11.9050    2.3160 c3        1 PQE     -0.088400
     28 C49        -3.1440   10.7770    3.2600 c3        1 PQE     -0.078400
     29 C48        -2.2720   10.8160    4.4970 c3        1 PQE     -0.080400
     30 C47        -2.7120    9.7890    5.5190 c3        1 PQE     -0.079400
     31 C46        -1.8140    9.8190    6.7380 c3        1 PQE     -0.079400
     32 C45        -2.2810    8.8770    7.8270 c3        1 PQE     -0.077400
     33 C44        -1.9270    7.4270    7.5720 c3        1 PQE     -0.078400
     34 C43        -0.4620    7.1350    7.8200 c3        1 PQE     -0.079400
     35 C42        -0.1800    5.6490    7.7610 c3        1 PQE     -0.080400
     36 C41         1.2910    5.3590    7.9700 c3        1 PQE     -0.083400
     37 C40         1.5580    3.8790    8.0690 c3        1 PQE     -0.093100
     38 HO47        0.2230   -1.3550    1.9660 ho        1 PQE      0.412000
     39 H681        1.3680   -0.3900    0.1660 h1        1 PQE      0.053700
     40 H682        2.3810   -1.9230    0.2380 h1        1 PQE      0.053700
     41 H521        2.9990   -1.3450    2.6480 h1        1 PQE      0.039700
     42 H522        3.5360   -0.0510    1.4660 h1        1 PQE      0.039700
     43 H551        2.6720    0.2630    4.4920 h1        1 PQE      0.045200
     44 H552        3.4890    1.4280    3.3350 h1        1 PQE      0.045200
     45 H581        1.4580    2.0810    5.2780 h1        1 PQE      0.041700
     46 H582        0.5850    2.0770    3.6650 h1        1 PQE      0.041700
     47 H611        0.4760    4.4370    3.5020 h1        1 PQE      0.029200
     48 H612        1.1580    4.5160    5.1980 h1        1 PQE      0.029200
     49 H621        3.1730    5.7490    4.3350 hc        1 PQE      0.056700
     50 H622        2.5440    5.6370    2.6470 hc        1 PQE      0.056700
     51 H631        1.1280    7.0540    5.0210 hc        1 PQE      0.041200
     52 H632        0.4820    6.9300    3.3370 hc        1 PQE      0.041200
     53 H661        3.1310    8.3040    4.1910 hc        1 PQE      0.057200
     54 H662        2.5790    8.1070    2.4840 hc        1 PQE      0.057200
     55 H671        1.0680    9.6370    4.7340 h1        1 PQE      0.026700
     56 H672        0.4440    9.3740    3.0370 h1        1 PQE      0.026700
     57 H651        0.3920   11.6560    3.0250 h1        1 PQE      0.044700
     58 H652        1.6300   12.2410    4.2480 h1        1 PQE      0.044700
     59 H641        2.2000   13.7290    2.5290 h1        1 PQE      0.042200
     60 H642        3.1450   12.2910    1.8890 h1        1 PQE      0.042200
     61 H601        1.8590   14.4380    0.1910 h1        1 PQE      0.037700
     62 H602        2.7890   12.9610   -0.3570 h1        1 PQE      0.037700
     63 H591        0.9230   12.1480   -1.6960 h1        1 PQE      0.054700
     64 H592       -0.2790   13.2280   -0.8360 h1        1 PQE      0.054700
     65 H571        0.5910   14.8980   -3.9770 h1        1 PQE      0.059700
     66 H572       -0.0420   13.1980   -3.6560 h1        1 PQE      0.059700
     67 H561       -1.0760   15.5220   -1.9230 h1        1 PQE      0.039700
     68 H562       -1.7160   15.3530   -3.6320 h1        1 PQE      0.039700
     69 H541       -3.0870   14.9820   -1.0550 h1        1 PQE      0.042700
     70 H542       -3.9790   14.4720   -2.5770 h1        1 PQE      0.042700
     71 H531       -4.9530   12.9830   -1.0080 h1        1 PQE      0.040200
     72 H532       -3.5150   11.9770   -1.5480 h1        1 PQE      0.040200
     73 H511       -3.2830   10.8910    0.4430 h1        1 PQE      0.025200
     74 H512       -4.6920   11.7400    1.2380 h1        1 PQE      0.025200
     75 H501       -1.6960   11.8820    2.0710 hc        1 PQE      0.059200
     76 H502       -3.0010   12.8950    2.8000 hc        1 PQE      0.059200
     77 H491       -3.0160    9.7910    2.7400 hc        1 PQE      0.039700
     78 H492       -4.2230   10.8580    3.5560 hc        1 PQE      0.039700
     79 H481       -1.2030   10.6240    4.2080 hc        1 PQE      0.039700
     80 H482       -2.3130   11.8400    4.9530 hc        1 PQE      0.039700
     81 H471       -2.6940    8.7670    5.0590 hc        1 PQE      0.040200
     82 H472       -3.7710    9.9960    5.8250 hc        1 PQE      0.040200
     83 H461       -1.7930   10.8650    7.1490 hc        1 PQE      0.039200
     84 H462       -0.7640    9.5630    6.4360 hc        1 PQE      0.039200
     85 H451       -3.3950    8.9640    7.9360 hc        1 PQE      0.039700
     86 H452       -1.8290    9.1980    8.8030 hc        1 PQE      0.039700
     87 H441       -2.1910    7.1510    6.5170 hc        1 PQE      0.039700
     88 H442       -2.5480    6.7800    8.2480 hc        1 PQE      0.039700
     89 H431        0.1660    7.6660    7.0570 hc        1 PQE      0.039700
     90 H432       -0.1630    7.5300    8.8270 hc        1 PQE      0.039700
     91 H421       -0.7830    5.1200    8.5460 hc        1 PQE      0.038200
     92 H422       -0.5030    5.2420    6.7660 hc        1 PQE      0.038200
     93 H411        1.6440    5.8670    8.9070 hc        1 PQE      0.041200
     94 H412        1.8790    5.7930    7.1170 hc        1 PQE      0.041200
     95 H401        1.0060    3.4360    8.9330 hc        1 PQE      0.032700
     96 H402        2.6490    3.6900    8.2130 hc        1 PQE      0.032700
     97 H403        1.2300    3.3550    7.1380 hc        1 PQE      0.032700
@<TRIPOS>BOND
     1    1    2 1   
     2    1   38 1   
     3    2    3 1   
     4    2   39 1   
     5    2   40 1   
     6    3    4 1   
     7    3   41 1   
     8    3   42 1   
     9    4    5 1   
    10    5    6 1   
    11    5   43 1   
    12    5   44 1   
    13    6    7 1   
    14    6   45 1   
    15    6   46 1   
    16    7    8 1   
    17    8    9 1   
    18    8   47 1   
    19    8   48 1   
    20    9   10 1   
    21    9   49 1   
    22    9   50 1   
    23   10   11 1   
    24   10   51 1   
    25   10   52 1   
    26   11   12 1   
    27   11   53 1   
    28   11   54 1   
    29   12   13 1   
    30   12   55 1   
    31   12   56 1   
    32   13   14 1   
    33   14   15 1   
    34   14   57 1   
    35   14   58 1   
    36   15   16 1   
    37   15   59 1   
    38   15   60 1   
    39   16   17 1   
    40   17   18 1   
    41   17   61 1   
    42   17   62 1   
    43   18   19 1   
    44   18   63 1   
    45   18   64 1   
    46   19   20 1   
    47   20   21 1   
    48   20   65 1   
    49   20   66 1   
    50   21   22 1   
    51   21   67 1   
    52   21   68 1   
    53   22   23 1   
    54   23   24 1   
    55   23   69 1   
    56   23   70 1   
    57   24   25 1   
    58   24   71 1   
    59   24   72 1   
    60   25   26 1   
    61   26   27 1   
    62   26   73 1   
    63   26   74 1   
    64   27   28 1   
    65   27   75 1   
    66   27   76 1   
    67   28   29 1   
    68   28   77 1   
    69   28   78 1   
    70   29   30 1   
    71   29   79 1   
    72   29   80 1   
    73   30   31 1   
    74   30   81 1   
    75   30   82 1   
    76   31   32 1   
    77   31   83 1   
    78   31   84 1   
    79   32   33 1   
    80   32   85 1   
    81   32   86 1   
    82   33   34 1   
    83   33   87 1   
    84   33   88 1   
    85   34   35 1   
    86   34   89 1   
    87   34   90 1   
    88   35   36 1   
    89   35   91 1   
    90   35   92 1   
    91   36   37 1   
    92   36   93 1   
    93   36   94 1   
    94   37   95 1   
    95   37   96 1   
    96   37   97 1   
@<TRIPOS>SUBSTRUCTURE
     1 PQE         1 TEMP              0 ****  ****    0 ROOT
