@<TRIPOS>MOLECULE
PQE
   97    96     1     0     0
SMALL
bcc


@<TRIPOS>ATOM
      1 O47         2.1890   -2.4390    3.4490 oh        1 PQE     -0.599800
      2 C68         3.0700   -2.1220    2.3920 c3        1 PQE      0.131400
      3 C52         3.8610   -0.8510    2.6800 c3        1 PQE      0.088400
      4 O70         2.9110    0.2140    2.6830 os        1 PQE     -0.439600
      5 C55         3.5150    1.4710    2.9810 c3        1 PQE      0.130400
      6 C58         2.3860    2.4970    2.9280 c3        1 PQE      0.126400
      7 O71         2.9980    3.7570    3.1890 os        1 PQE     -0.427600
      8 C61         2.0490    4.8240    3.1580 c3        1 PQE      0.128400
      9 C62         2.7860    6.0720    3.6090 c3        1 PQE     -0.083400
     10 C63         1.8610    7.2690    3.5860 c3        1 PQE     -0.079400
     11 C66         2.6030    8.5300    3.9720 c3        1 PQE     -0.083400
     12 C67         1.6940    9.7400    3.8520 c3        1 PQE      0.121400
     13 O72         2.4620   10.8710    4.2660 os        1 PQE     -0.424600
     14 C65         1.8730   12.1120    3.9120 c3        1 PQE      0.125400
     15 C64         2.0700   12.4250    2.4310 c3        1 PQE      0.094400
     16 O73         0.8820   12.0110    1.7570 os        1 PQE     -0.435600
     17 C60         1.0010   12.1230    0.3410 c3        1 PQE      0.127400
     18 C59        -0.4010   11.8930   -0.2150 c3        1 PQE      0.116400
     19 O74        -0.2320   11.6210   -1.6060 os        1 PQE     -0.427600
     20 C57        -1.4560   11.6190   -2.3270 c3        1 PQE      0.124400
     21 C56        -1.9480   13.0370   -2.6030 c3        1 PQE      0.092400
     22 O75        -2.8300   13.4010   -1.5430 os        1 PQE     -0.437600
     23 C54        -2.7810   14.7890   -1.2270 c3        1 PQE      0.097400
     24 C53        -3.7430   15.0270   -0.0680 c3        1 PQE      0.129400
     25 O76        -3.1560   14.6620    1.1710 os        1 PQE     -0.424600
     26 C51        -3.3900   13.2980    1.5300 c3        1 PQE      0.124400
     27 C50        -2.4680   12.9860    2.6960 c3        1 PQE     -0.093400
     28 C49        -3.0220   11.8440    3.5200 c3        1 PQE     -0.074400
     29 C48        -2.0490   11.4280    4.6020 c3        1 PQE     -0.081400
     30 C47        -2.6680   10.4050    5.5320 c3        1 PQE     -0.079400
     31 C46        -1.6880    9.9740    6.6020 c3        1 PQE     -0.079400
     32 C45        -2.2920    8.9860    7.5780 c3        1 PQE     -0.077400
     33 C44        -2.4040    7.5800    7.0270 c3        1 PQE     -0.078400
     34 C43        -1.0750    6.8530    7.0200 c3        1 PQE     -0.079400
     35 C42        -1.2300    5.4350    6.5150 c3        1 PQE     -0.080400
     36 C41         0.0960    4.7040    6.5160 c3        1 PQE     -0.083400
     37 C40        -0.0400    3.3070    5.9690 c3        1 PQE     -0.095100
     38 HO47        1.6180   -1.6710    3.5800 ho        1 PQE      0.413000
     39 H681        2.4970   -2.0090    1.4330 h1        1 PQE      0.053200
     40 H682        3.7690   -2.9970    2.3210 h1        1 PQE      0.053200
     41 H521        4.3630   -0.9120    3.6820 h1        1 PQE      0.040200
     42 H522        4.6290   -0.6730    1.8830 h1        1 PQE      0.040200
     43 H551        3.9790    1.4430    4.0000 h1        1 PQE      0.042700
     44 H552        4.3030    1.7090    2.2190 h1        1 PQE      0.042700
     45 H581        1.6110    2.2770    3.7090 h1        1 PQE      0.039700
     46 H582        1.9030    2.5030    1.9160 h1        1 PQE      0.039700
     47 H611        1.6570    4.9400    2.1120 h1        1 PQE      0.030200
     48 H612        1.1930    4.5910    3.8480 h1        1 PQE      0.030200
     49 H621        3.1870    5.9130    4.6440 hc        1 PQE      0.056200
     50 H622        3.6650    6.2470    2.9350 hc        1 PQE      0.056200
     51 H631        1.0080    7.1010    4.2970 hc        1 PQE      0.042200
     52 H632        1.4220    7.3890    2.5610 hc        1 PQE      0.042200
     53 H661        2.9810    8.4510    5.0240 hc        1 PQE      0.053700
     54 H662        3.4960    8.6720    3.3090 hc        1 PQE      0.053700
     55 H671        0.8000    9.6460    4.5270 h1        1 PQE      0.038200
     56 H672        1.3400    9.8800    2.7950 h1        1 PQE      0.038200
     57 H651        0.7820   12.1270    4.1740 h1        1 PQE      0.061700
     58 H652        2.4330   12.8620    4.5330 h1        1 PQE      0.061700
     59 H641        2.2130   13.5280    2.2790 h1        1 PQE      0.041200
     60 H642        2.9560   11.8720    2.0240 h1        1 PQE      0.041200
     61 H601        1.3770   13.1410    0.0590 h1        1 PQE      0.040200
     62 H602        1.7150   11.3460   -0.0390 h1        1 PQE      0.040200
     63 H591       -0.8870   11.0120    0.2810 h1        1 PQE      0.051200
     64 H592       -1.0450   12.8020   -0.0680 h1        1 PQE      0.051200
     65 H571       -1.1940   11.1140   -3.2960 h1        1 PQE      0.061200
     66 H572       -2.2400   11.0320   -1.7810 h1        1 PQE      0.061200
     67 H561       -1.0770   13.7410   -2.6720 h1        1 PQE      0.045200
     68 H562       -2.5320   13.0680   -3.5600 h1        1 PQE      0.045200
     69 H541       -1.7360   15.0750   -0.9320 h1        1 PQE      0.038200
     70 H542       -3.0980   15.3890   -2.1210 h1        1 PQE      0.038200
     71 H531       -3.9330   16.1300    0.0270 h1        1 PQE      0.057200
     72 H532       -4.7070   14.4820   -0.2400 h1        1 PQE      0.057200
     73 H511       -3.1780   12.6280    0.6550 h1        1 PQE      0.035700
     74 H512       -4.4690   13.1890    1.8230 h1        1 PQE      0.035700
     75 H501       -1.4480   12.7220    2.3060 hc        1 PQE      0.061200
     76 H502       -2.3540   13.9000    3.3360 hc        1 PQE      0.061200
     77 H491       -3.2390   10.9670    2.8550 hc        1 PQE      0.037700
     78 H492       -3.9940   12.1550    3.9870 hc        1 PQE      0.037700
     79 H481       -1.1240   11.0000    4.1300 hc        1 PQE      0.041700
     80 H482       -1.7320   12.3290    5.1910 hc        1 PQE      0.041700
     81 H471       -3.0000    9.5130    4.9380 hc        1 PQE      0.039700
     82 H472       -3.5830   10.8410    6.0130 hc        1 PQE      0.039700
     83 H461       -1.3460   10.8810    7.1700 hc        1 PQE      0.040200
     84 H462       -0.7790    9.5260    6.1200 hc        1 PQE      0.040200
     85 H451       -3.3150    9.3420    7.8740 hc        1 PQE      0.039200
     86 H452       -1.6660    8.9670    8.5090 hc        1 PQE      0.039200
     87 H441       -2.8200    7.6100    5.9860 hc        1 PQE      0.039200
     88 H442       -3.1320    7.0010    7.6570 hc        1 PQE      0.039200
     89 H431       -0.3440    7.4040    6.3700 hc        1 PQE      0.040200
     90 H432       -0.6480    6.8380    8.0570 hc        1 PQE      0.040200
     91 H421       -1.9630    4.8820    7.1590 hc        1 PQE      0.038700
     92 H422       -1.6500    5.4500    5.4750 hc        1 PQE      0.038700
     93 H411        0.4980    4.6610    7.5630 hc        1 PQE      0.040700
     94 H412        0.8410    5.2800    5.9020 hc        1 PQE      0.040700
     95 H401       -0.7390    2.7040    6.5970 hc        1 PQE      0.033033
     96 H402        0.9540    2.7970    5.9540 hc        1 PQE      0.033033
     97 H403       -0.4390    3.3270    4.9250 hc        1 PQE      0.033033
@<TRIPOS>BOND
     1    1    2 1   
     2    1   38 1   
     3    2    3 1   
     4    2   39 1   
     5    2   40 1   
     6    3    4 1   
     7    3   41 1   
     8    3   42 1   
     9    4    5 1   
    10    5    6 1   
    11    5   43 1   
    12    5   44 1   
    13    6    7 1   
    14    6   45 1   
    15    6   46 1   
    16    7    8 1   
    17    8    9 1   
    18    8   47 1   
    19    8   48 1   
    20    9   10 1   
    21    9   49 1   
    22    9   50 1   
    23   10   11 1   
    24   10   51 1   
    25   10   52 1   
    26   11   12 1   
    27   11   53 1   
    28   11   54 1   
    29   12   13 1   
    30   12   55 1   
    31   12   56 1   
    32   13   14 1   
    33   14   15 1   
    34   14   57 1   
    35   14   58 1   
    36   15   16 1   
    37   15   59 1   
    38   15   60 1   
    39   16   17 1   
    40   17   18 1   
    41   17   61 1   
    42   17   62 1   
    43   18   19 1   
    44   18   63 1   
    45   18   64 1   
    46   19   20 1   
    47   20   21 1   
    48   20   65 1   
    49   20   66 1   
    50   21   22 1   
    51   21   67 1   
    52   21   68 1   
    53   22   23 1   
    54   23   24 1   
    55   23   69 1   
    56   23   70 1   
    57   24   25 1   
    58   24   71 1   
    59   24   72 1   
    60   25   26 1   
    61   26   27 1   
    62   26   73 1   
    63   26   74 1   
    64   27   28 1   
    65   27   75 1   
    66   27   76 1   
    67   28   29 1   
    68   28   77 1   
    69   28   78 1   
    70   29   30 1   
    71   29   79 1   
    72   29   80 1   
    73   30   31 1   
    74   30   81 1   
    75   30   82 1   
    76   31   32 1   
    77   31   83 1   
    78   31   84 1   
    79   32   33 1   
    80   32   85 1   
    81   32   86 1   
    82   33   34 1   
    83   33   87 1   
    84   33   88 1   
    85   34   35 1   
    86   34   89 1   
    87   34   90 1   
    88   35   36 1   
    89   35   91 1   
    90   35   92 1   
    91   36   37 1   
    92   36   93 1   
    93   36   94 1   
    94   37   95 1   
    95   37   96 1   
    96   37   97 1   
@<TRIPOS>SUBSTRUCTURE
     1 PQE         1 TEMP              0 ****  ****    0 ROOT
