@<TRIPOS>MOLECULE
PQN
   79    80     1     0     0
SMALL
bcc


@<TRIPOS>ATOM
      1 C1          0.7490   -1.1940   -0.0330 c         1 PQN      0.570900
      2 O1          0.2720   -1.5580   -1.1160 o         1 PQN     -0.515100
      3 C2          2.1690   -0.7780    0.0950 cc        1 PQN     -0.127400
      4 C2M         2.9240   -0.6440   -1.1750 c3        1 PQN     -0.069900
      5 C3          2.7350   -0.5490    1.2990 cd        1 PQN     -0.125400
      6 C4          1.9780   -0.7230    2.5640 c         1 PQN      0.574900
      7 O4          2.5400   -0.7190    3.6680 o         1 PQN     -0.519100
      8 C5          0.5160   -0.9060    2.4450 ca        1 PQN     -0.132600
      9 C6         -0.2820   -0.8590    3.5920 ca        1 PQN     -0.086000
     10 C7         -1.6630   -1.0340    3.4930 ca        1 PQN     -0.117000
     11 C8         -2.2510   -1.2640    2.2510 ca        1 PQN     -0.117000
     12 C9         -1.4600   -1.3190    1.1020 ca        1 PQN     -0.085000
     13 C10        -0.0760   -1.1370    1.1920 ca        1 PQN     -0.133600
     14 C11         4.1600   -0.1250    1.4490 c3        1 PQN     -0.014000
     15 C12         4.3030    1.3510    1.3670 c2        1 PQN     -0.188200
     16 C13         4.7150    2.1430    2.3700 c2        1 PQN     -0.090400
     17 C14         5.0590    1.6350    3.7200 c3        1 PQN     -0.072900
     18 C15         4.8690    3.6130    2.1650 c3        1 PQN     -0.047200
     19 C16         3.7340    4.3910    2.8050 c3        1 PQN     -0.075400
     20 C17         3.9210    5.8800    2.6070 c3        1 PQN     -0.077400
     21 C18         2.8420    6.6990    3.3050 c3        1 PQN     -0.064700
     22 C19         1.5130    6.5630    2.5910 c3        1 PQN     -0.090100
     23 C20         3.2720    8.1590    3.3800 c3        1 PQN     -0.076400
     24 C21         2.4740    8.9420    4.4010 c3        1 PQN     -0.079400
     25 C22         2.9540   10.3760    4.4800 c3        1 PQN     -0.076400
     26 C23         2.2130   11.1790    5.5410 c3        1 PQN     -0.064700
     27 C24         0.8020   11.4960    5.0900 c3        1 PQN     -0.089100
     28 C25         2.9840   12.4560    5.8530 c3        1 PQN     -0.076400
     29 C26         2.5270   13.1050    7.1420 c3        1 PQN     -0.079400
     30 C27         3.3580   14.3310    7.4560 c3        1 PQN     -0.076400
     31 C28         2.9360   15.0000    8.7560 c3        1 PQN     -0.067700
     32 C29         4.0330   15.9220    9.2490 c3        1 PQN     -0.089600
     33 C30         1.6450   15.7730    8.5860 c3        1 PQN     -0.089600
     34 H2M1        2.2490   -0.7530   -2.0600 hc        1 PQN      0.060033
     35 H2M2        3.7130   -1.4360   -1.2350 hc        1 PQN      0.060033
     36 H2M3        3.4250    0.3550   -1.2280 hc        1 PQN      0.060033
     37 H6          0.1940   -0.6850    4.5710 ha        1 PQN      0.159000
     38 H7         -2.2860   -0.9920    4.4000 ha        1 PQN      0.142000
     39 H8         -3.3400   -1.4050    2.1710 ha        1 PQN      0.142000
     40 H9         -1.9130   -1.5090    0.1160 ha        1 PQN      0.159000
     41 H111        4.5560   -0.5120    2.4290 hc        1 PQN      0.068700
     42 H112        4.7790   -0.5920    0.6330 hc        1 PQN      0.068700
     43 H12         4.0510    1.7840    0.3850 ha        1 PQN      0.120000
     44 H141        6.0280    1.0760    3.6850 hc        1 PQN      0.050033
     45 H142        4.2670    0.9370    4.0960 hc        1 PQN      0.050033
     46 H143        5.1660    2.4730    4.4510 hc        1 PQN      0.050033
     47 H151        4.9060    3.8540    1.0690 hc        1 PQN      0.045200
     48 H152        5.8460    3.9440    2.6100 hc        1 PQN      0.045200
     49 H161        3.6890    4.1570    3.9020 hc        1 PQN      0.044700
     50 H162        2.7600    4.0640    2.3560 hc        1 PQN      0.044700
     51 H171        4.9280    6.1760    3.0080 hc        1 PQN      0.039700
     52 H172        3.9180    6.1190    1.5110 hc        1 PQN      0.039700
     53 H18         2.7260    6.3080    4.3550 hc        1 PQN      0.047700
     54 H191        1.5940    6.9220    1.5370 hc        1 PQN      0.034033
     55 H192        1.1850    5.4950    2.5770 hc        1 PQN      0.034033
     56 H193        0.7280    7.1630    3.1100 hc        1 PQN      0.034033
     57 H201        3.1600    8.6320    2.3690 hc        1 PQN      0.039700
     58 H202        4.3600    8.2130    3.6520 hc        1 PQN      0.039700
     59 H211        1.3860    8.9210    4.1290 hc        1 PQN      0.040700
     60 H212        2.5720    8.4560    5.4080 hc        1 PQN      0.040700
     61 H221        4.0530   10.3770    4.7140 hc        1 PQN      0.039700
     62 H222        2.8290   10.8710    3.4820 hc        1 PQN      0.039700
     63 H23         2.1570   10.5590    6.4810 hc        1 PQN      0.047700
     64 H241        0.2570   12.0640    5.8820 hc        1 PQN      0.033367
     65 H242        0.8150   12.1130    4.1590 hc        1 PQN      0.033367
     66 H243        0.2370   10.5560    4.8830 hc        1 PQN      0.033367
     67 H251        2.8660   13.1780    5.0040 hc        1 PQN      0.039700
     68 H252        4.0780   12.2170    5.9360 hc        1 PQN      0.039700
     69 H261        1.4460   13.3940    7.0600 hc        1 PQN      0.040200
     70 H262        2.6100   12.3690    7.9850 hc        1 PQN      0.040200
     71 H271        3.2770   15.0670    6.6140 hc        1 PQN      0.039700
     72 H272        4.4380   14.0310    7.5320 hc        1 PQN      0.039700
     73 H28         2.7710   14.1990    9.5320 hc        1 PQN      0.045700
     74 H291        4.2550   16.7070    8.4870 hc        1 PQN      0.033033
     75 H292        4.9690   15.3450    9.4450 hc        1 PQN      0.033033
     76 H293        3.7210   16.4250   10.1950 hc        1 PQN      0.033033
     77 H301        0.8210   15.0950    8.2560 hc        1 PQN      0.033033
     78 H302        1.7670   16.5790    7.8230 hc        1 PQN      0.033033
     79 H303        1.3470   16.2460    9.5530 hc        1 PQN      0.033033
@<TRIPOS>BOND
     1    1    2 2   
     2    1    3 1   
     3    1   13 1   
     4    3    4 1   
     5    3    5 2   
     6    4   34 1   
     7    4   35 1   
     8    4   36 1   
     9    5    6 1   
    10    5   14 1   
    11    6    7 2   
    12    6    8 1   
    13    8    9 ar  
    14    8   13 ar  
    15    9   10 ar  
    16    9   37 1   
    17   10   11 ar  
    18   10   38 1   
    19   11   12 ar  
    20   11   39 1   
    21   12   13 ar  
    22   12   40 1   
    23   14   15 1   
    24   14   41 1   
    25   14   42 1   
    26   15   16 2   
    27   15   43 1   
    28   16   17 1   
    29   16   18 1   
    30   17   44 1   
    31   17   45 1   
    32   17   46 1   
    33   18   19 1   
    34   18   47 1   
    35   18   48 1   
    36   19   20 1   
    37   19   49 1   
    38   19   50 1   
    39   20   21 1   
    40   20   51 1   
    41   20   52 1   
    42   21   22 1   
    43   21   23 1   
    44   21   53 1   
    45   22   54 1   
    46   22   55 1   
    47   22   56 1   
    48   23   24 1   
    49   23   57 1   
    50   23   58 1   
    51   24   25 1   
    52   24   59 1   
    53   24   60 1   
    54   25   26 1   
    55   25   61 1   
    56   25   62 1   
    57   26   27 1   
    58   26   28 1   
    59   26   63 1   
    60   27   64 1   
    61   27   65 1   
    62   27   66 1   
    63   28   29 1   
    64   28   67 1   
    65   28   68 1   
    66   29   30 1   
    67   29   69 1   
    68   29   70 1   
    69   30   31 1   
    70   30   71 1   
    71   30   72 1   
    72   31   32 1   
    73   31   33 1   
    74   31   73 1   
    75   32   74 1   
    76   32   75 1   
    77   32   76 1   
    78   33   77 1   
    79   33   78 1   
    80   33   79 1   
@<TRIPOS>SUBSTRUCTURE
     1 PQN         1 TEMP              0 ****  ****    0 ROOT
