@<TRIPOS>MOLECULE
PQN
   79    80     1     0     0
SMALL
bcc


@<TRIPOS>ATOM
      1 C1          0.5950   -0.8480   -7.2420 c         1 PQN      0.570900
      2 O1          0.8810   -1.7490   -8.0410 o         1 PQN     -0.515100
      3 C2         -0.7720   -0.7100   -6.6780 cc        1 PQN     -0.127400
      4 C2M        -1.7140   -1.8170   -6.9760 c3        1 PQN     -0.069900
      5 C3         -1.1320    0.3670   -5.9470 cd        1 PQN     -0.125400
      6 C4         -0.1920    1.4840   -5.6870 c         1 PQN      0.574900
      7 O4         -0.5710    2.5600   -5.2030 o         1 PQN     -0.519100
      8 C5          1.2260    1.2560   -6.0390 ca        1 PQN     -0.132600
      9 C6          2.1970    2.1730   -5.6250 ca        1 PQN     -0.086000
     10 C7          3.5390    1.9710   -5.9530 ca        1 PQN     -0.117000
     11 C8          3.9140    0.8570   -6.7010 ca        1 PQN     -0.117000
     12 C9          2.9490   -0.0590   -7.1230 ca        1 PQN     -0.085000
     13 C10         1.6050    0.1330   -6.7920 ca        1 PQN     -0.133600
     14 C11        -2.5000    0.5220   -5.3660 c3        1 PQN     -0.014000
     15 C12        -2.6040   -0.1200   -4.0310 c2        1 PQN     -0.188200
     16 C13        -2.8240    0.5300   -2.8780 c2        1 PQN     -0.090400
     17 C14        -2.9660    2.0030   -2.7880 c3        1 PQN     -0.072900
     18 C15        -2.9580   -0.2210   -1.5940 c3        1 PQN     -0.047200
     19 C16        -1.7080   -0.1010   -0.7410 c3        1 PQN     -0.075400
     20 C17        -1.8750   -0.8460    0.5660 c3        1 PQN     -0.077400
     21 C18        -0.6670   -0.6890    1.4810 c3        1 PQN     -0.064700
     22 C19         0.5140   -1.4790    0.9570 c3        1 PQN     -0.090100
     23 C20        -1.0300   -1.1270    2.8940 c3        1 PQN     -0.076400
     24 C21        -0.0370   -0.6310    3.9240 c3        1 PQN     -0.079400
     25 C22        -0.4560   -1.0410    5.3210 c3        1 PQN     -0.076400
     26 C23         0.4930   -0.5140    6.3890 c3        1 PQN     -0.064700
     27 C24         1.7990   -1.2820    6.3790 c3        1 PQN     -0.089100
     28 C25        -0.1740   -0.5950    7.7560 c3        1 PQN     -0.076400
     29 C26         0.5410    0.2400    8.7980 c3        1 PQN     -0.079400
     30 C27        -0.1890    0.1950   10.1240 c3        1 PQN     -0.076400
     31 C28         0.4960    1.0370   11.1910 c3        1 PQN     -0.067700
     32 C29        -0.4650    1.3200   12.3280 c3        1 PQN     -0.089600
     33 C30         1.7400    0.3540   11.7200 c3        1 PQN     -0.089600
     34 H2M1       -1.1920   -2.6660   -7.4840 hc        1 PQN      0.060033
     35 H2M2       -2.1830   -2.1960   -6.0340 hc        1 PQN      0.060033
     36 H2M3       -2.5290   -1.4520   -7.6520 hc        1 PQN      0.060033
     37 H6          1.8890    3.0560   -5.0410 ha        1 PQN      0.159000
     38 H7          4.2980    2.6950   -5.6210 ha        1 PQN      0.142000
     39 H8          4.9710    0.6970   -6.9630 ha        1 PQN      0.142000
     40 H9          3.2350   -0.9400   -7.7230 ha        1 PQN      0.159000
     41 H111       -3.2570    0.0490   -6.0530 hc        1 PQN      0.068700
     42 H112       -2.7490    1.6180   -5.3040 hc        1 PQN      0.068700
     43 H12        -2.4970   -1.2180   -4.0390 ha        1 PQN      0.120000
     44 H141       -2.9260    2.3480   -1.7250 hc        1 PQN      0.050033
     45 H142       -2.1490    2.5180   -3.3560 hc        1 PQN      0.050033
     46 H143       -3.9470    2.3220   -3.2210 hc        1 PQN      0.050033
     47 H151       -3.1620   -1.3060   -1.7960 hc        1 PQN      0.045200
     48 H152       -3.8390    0.1820   -1.0260 hc        1 PQN      0.045200
     49 H161       -1.4960    0.9820   -0.5360 hc        1 PQN      0.044700
     50 H162       -0.8310   -0.5100   -1.3070 hc        1 PQN      0.044700
     51 H171       -2.0470   -1.9350    0.3610 hc        1 PQN      0.039700
     52 H172       -2.7890   -0.4590    1.0900 hc        1 PQN      0.039700
     53 H18        -0.3830    0.4020    1.5090 hc        1 PQN      0.047700
     54 H191        0.2670   -2.5670    0.9030 hc        1 PQN      0.034033
     55 H192        0.7960   -1.1300   -0.0660 hc        1 PQN      0.034033
     56 H193        1.3990   -1.3510    1.6260 hc        1 PQN      0.034033
     57 H201       -1.0880   -2.2460    2.9340 hc        1 PQN      0.039700
     58 H202       -2.0490   -0.7330    3.1540 hc        1 PQN      0.039700
     59 H211        0.0370    0.4870    3.8670 hc        1 PQN      0.040700
     60 H212        0.9810   -1.0430    3.6980 hc        1 PQN      0.040700
     61 H221       -0.5070   -2.1600    5.3860 hc        1 PQN      0.039700
     62 H222       -1.4900   -0.6510    5.5180 hc        1 PQN      0.039700
     63 H23         0.7140    0.5680    6.1650 hc        1 PQN      0.047700
     64 H241        1.6220   -2.3620    6.6060 hc        1 PQN      0.033367
     65 H242        2.2890   -1.2080    5.3780 hc        1 PQN      0.033367
     66 H243        2.5010   -0.8710    7.1440 hc        1 PQN      0.033367
     67 H251       -0.2110   -1.6650    8.0900 hc        1 PQN      0.039700
     68 H252       -1.2350   -0.2370    7.6720 hc        1 PQN      0.039700
     69 H261        0.6130    1.3030    8.4440 hc        1 PQN      0.040200
     70 H262        1.5890   -0.1360    8.9320 hc        1 PQN      0.040200
     71 H271       -0.2650   -0.8670   10.4770 hc        1 PQN      0.039700
     72 H272       -1.2370    0.5710    9.9770 hc        1 PQN      0.039700
     73 H28         0.7980    2.0200   10.7290 hc        1 PQN      0.045700
     74 H291        0.0380    1.9260   13.1190 hc        1 PQN      0.033033
     75 H292       -1.3530    1.8880   11.9570 hc        1 PQN      0.033033
     76 H293       -0.8220    0.3660   12.7860 hc        1 PQN      0.033033
     77 H301        1.4820   -0.6260   12.1870 hc        1 PQN      0.033033
     78 H302        2.4690    0.1720   10.8940 hc        1 PQN      0.033033
     79 H303        2.2320    0.9940   12.4920 hc        1 PQN      0.033033
@<TRIPOS>BOND
     1    1    2 2   
     2    1    3 1   
     3    1   13 1   
     4    3    4 1   
     5    3    5 2   
     6    4   34 1   
     7    4   35 1   
     8    4   36 1   
     9    5    6 1   
    10    5   14 1   
    11    6    7 2   
    12    6    8 1   
    13    8    9 ar  
    14    8   13 ar  
    15    9   10 ar  
    16    9   37 1   
    17   10   11 ar  
    18   10   38 1   
    19   11   12 ar  
    20   11   39 1   
    21   12   13 ar  
    22   12   40 1   
    23   14   15 1   
    24   14   41 1   
    25   14   42 1   
    26   15   16 2   
    27   15   43 1   
    28   16   17 1   
    29   16   18 1   
    30   17   44 1   
    31   17   45 1   
    32   17   46 1   
    33   18   19 1   
    34   18   47 1   
    35   18   48 1   
    36   19   20 1   
    37   19   49 1   
    38   19   50 1   
    39   20   21 1   
    40   20   51 1   
    41   20   52 1   
    42   21   22 1   
    43   21   23 1   
    44   21   53 1   
    45   22   54 1   
    46   22   55 1   
    47   22   56 1   
    48   23   24 1   
    49   23   57 1   
    50   23   58 1   
    51   24   25 1   
    52   24   59 1   
    53   24   60 1   
    54   25   26 1   
    55   25   61 1   
    56   25   62 1   
    57   26   27 1   
    58   26   28 1   
    59   26   63 1   
    60   27   64 1   
    61   27   65 1   
    62   27   66 1   
    63   28   29 1   
    64   28   67 1   
    65   28   68 1   
    66   29   30 1   
    67   29   69 1   
    68   29   70 1   
    69   30   31 1   
    70   30   71 1   
    71   30   72 1   
    72   31   32 1   
    73   31   33 1   
    74   31   73 1   
    75   32   74 1   
    76   32   75 1   
    77   32   76 1   
    78   33   77 1   
    79   33   78 1   
    80   33   79 1   
@<TRIPOS>SUBSTRUCTURE
     1 PQN         1 TEMP              0 ****  ****    0 ROOT
