@<TRIPOS>MOLECULE
PQN
   79    80     1     0     0
SMALL
bcc


@<TRIPOS>ATOM
      1 C1          0.7540   -1.2020   -0.0010 c         1 PQN      0.570900
      2 O1          0.2840   -1.5710   -1.0860 o         1 PQN     -0.515100
      3 C2          2.1750   -0.7950    0.1350 cc        1 PQN     -0.127400
      4 C2M         2.9420   -0.6740   -1.1290 c3        1 PQN     -0.069900
      5 C3          2.7330   -0.5610    1.3420 cd        1 PQN     -0.125400
      6 C4          1.9650   -0.7210    2.6020 c         1 PQN      0.574900
      7 O4          2.5180   -0.7130    3.7100 o         1 PQN     -0.519100
      8 C5          0.5030   -0.8950    2.4720 ca        1 PQN     -0.132600
      9 C6         -0.3040   -0.8340    3.6120 ca        1 PQN     -0.086000
     10 C7         -1.6860   -1.0000    3.5030 ca        1 PQN     -0.117000
     11 C8         -2.2650   -1.2350    2.2580 ca        1 PQN     -0.117000
     12 C9         -1.4650   -1.3040    1.1170 ca        1 PQN     -0.085000
     13 C10        -0.0810   -1.1310    1.2170 ca        1 PQN     -0.133600
     14 C11         4.1600   -0.1450    1.5010 c3        1 PQN     -0.014000
     15 C12         4.3140    1.3300    1.4100 c2        1 PQN     -0.188200
     16 C13         4.7210    2.1260    2.4100 c2        1 PQN     -0.090400
     17 C14         5.0500    1.6250    3.7670 c3        1 PQN     -0.072900
     18 C15         4.8860    3.5940    2.1960 c3        1 PQN     -0.047200
     19 C16         3.7490    4.3830    2.8190 c3        1 PQN     -0.075400
     20 C17         3.9500    5.8700    2.6140 c3        1 PQN     -0.077400
     21 C18         2.8640    6.6990    3.2880 c3        1 PQN     -0.064700
     22 C19         1.5500    6.5750    2.5450 c3        1 PQN     -0.090100
     23 C20         3.3050    8.1550    3.3730 c3        1 PQN     -0.076400
     24 C21         2.4860    8.9480    4.3690 c3        1 PQN     -0.079400
     25 C22         2.9840   10.3760    4.4630 c3        1 PQN     -0.076400
     26 C23         2.2160   11.1900    5.4970 c3        1 PQN     -0.064700
     27 C24         0.8290   11.5320    4.9940 c3        1 PQN     -0.089100
     28 C25         2.9960   12.4530    5.8400 c3        1 PQN     -0.076400
     29 C26         2.4980   13.1120    7.1090 c3        1 PQN     -0.079400
     30 C27         3.3400   14.3210    7.4590 c3        1 PQN     -0.076400
     31 C28         2.8750   15.0000    8.7390 c3        1 PQN     -0.067700
     32 C29         3.9690   15.8980    9.2800 c3        1 PQN     -0.089600
     33 C30         1.6090   15.8010    8.5130 c3        1 PQN     -0.089600
     34 H2M1        3.7260   -1.4720   -1.1780 hc        1 PQN      0.060033
     35 H2M2        3.4500    0.3210   -1.1860 hc        1 PQN      0.060033
     36 H2M3        2.2730   -0.7860   -2.0190 hc        1 PQN      0.060033
     37 H6          0.1650   -0.6560    4.5940 ha        1 PQN      0.159000
     38 H7         -2.3150   -0.9470    4.4050 ha        1 PQN      0.142000
     39 H8         -3.3540   -1.3690    2.1710 ha        1 PQN      0.142000
     40 H9         -1.9120   -1.4980    0.1280 ha        1 PQN      0.159000
     41 H111        4.5460   -0.5280    2.4870 hc        1 PQN      0.068700
     42 H112        4.7830   -0.6220    0.6930 hc        1 PQN      0.068700
     43 H12         4.0730    1.7570    0.4220 ha        1 PQN      0.120000
     44 H141        5.1550    2.4680    4.4930 hc        1 PQN      0.050033
     45 H142        4.2500    0.9350    4.1410 hc        1 PQN      0.050033
     46 H143        6.0160    1.0610    3.7450 hc        1 PQN      0.050033
     47 H151        4.9360    3.8260    1.0990 hc        1 PQN      0.045200
     48 H152        5.8610    3.9210    2.6490 hc        1 PQN      0.045200
     49 H161        3.6910    4.1560    3.9160 hc        1 PQN      0.044700
     50 H162        2.7780    4.0600    2.3610 hc        1 PQN      0.044700
     51 H171        3.9670    6.1010    1.5160 hc        1 PQN      0.039700
     52 H172        4.9510    6.1610    3.0300 hc        1 PQN      0.039700
     53 H18         2.7200    6.3100    4.3360 hc        1 PQN      0.047700
     54 H191        1.2150    5.5110    2.5170 hc        1 PQN      0.034033
     55 H192        1.6550    6.9410    1.4950 hc        1 PQN      0.034033
     56 H193        0.7570    7.1780    3.0510 hc        1 PQN      0.034033
     57 H201        3.2280    8.6270    2.3580 hc        1 PQN      0.039700
     58 H202        4.3860    8.1980    3.6770 hc        1 PQN      0.039700
     59 H211        2.5460    8.4620    5.3780 hc        1 PQN      0.040700
     60 H212        1.4070    8.9430    4.0620 hc        1 PQN      0.040700
     61 H221        2.9000   10.8720    3.4610 hc        1 PQN      0.039700
     62 H222        4.0730   10.3620    4.7360 hc        1 PQN      0.039700
     63 H23         2.1140   10.5710    6.4330 hc        1 PQN      0.047700
     64 H241        0.2620   12.1040    5.7670 hc        1 PQN      0.033367
     65 H242        0.2580   10.6020    4.7580 hc        1 PQN      0.033367
     66 H243        0.8880   12.1540    4.0680 hc        1 PQN      0.033367
     67 H251        4.0810   12.1940    5.9700 hc        1 PQN      0.039700
     68 H252        2.9280   13.1770    4.9870 hc        1 PQN      0.039700
     69 H261        1.4280   13.4230    6.9810 hc        1 PQN      0.040200
     70 H262        2.5290   12.3740    7.9540 hc        1 PQN      0.040200
     71 H271        4.4090   13.9990    7.5820 hc        1 PQN      0.039700
     72 H272        3.3120   15.0580    6.6140 hc        1 PQN      0.039700
     73 H28         2.6590   14.2030    9.5070 hc        1 PQN      0.045700
     74 H291        3.6260   16.4080   10.2120 hc        1 PQN      0.033033
     75 H292        4.2420   16.6780    8.5300 hc        1 PQN      0.033033
     76 H293        4.8820   15.3020    9.5180 hc        1 PQN      0.033033
     77 H301        1.2800   16.2800    9.4660 hc        1 PQN      0.033033
     78 H302        0.7870   15.1410    8.1460 hc        1 PQN      0.033033
     79 H303        1.7830   16.6030    7.7560 hc        1 PQN      0.033033
@<TRIPOS>BOND
     1    1    2 2   
     2    1    3 1   
     3    1   13 1   
     4    3    4 1   
     5    3    5 2   
     6    4   34 1   
     7    4   35 1   
     8    4   36 1   
     9    5    6 1   
    10    5   14 1   
    11    6    7 2   
    12    6    8 1   
    13    8    9 ar  
    14    8   13 ar  
    15    9   10 ar  
    16    9   37 1   
    17   10   11 ar  
    18   10   38 1   
    19   11   12 ar  
    20   11   39 1   
    21   12   13 ar  
    22   12   40 1   
    23   14   15 1   
    24   14   41 1   
    25   14   42 1   
    26   15   16 2   
    27   15   43 1   
    28   16   17 1   
    29   16   18 1   
    30   17   44 1   
    31   17   45 1   
    32   17   46 1   
    33   18   19 1   
    34   18   47 1   
    35   18   48 1   
    36   19   20 1   
    37   19   49 1   
    38   19   50 1   
    39   20   21 1   
    40   20   51 1   
    41   20   52 1   
    42   21   22 1   
    43   21   23 1   
    44   21   53 1   
    45   22   54 1   
    46   22   55 1   
    47   22   56 1   
    48   23   24 1   
    49   23   57 1   
    50   23   58 1   
    51   24   25 1   
    52   24   59 1   
    53   24   60 1   
    54   25   26 1   
    55   25   61 1   
    56   25   62 1   
    57   26   27 1   
    58   26   28 1   
    59   26   63 1   
    60   27   64 1   
    61   27   65 1   
    62   27   66 1   
    63   28   29 1   
    64   28   67 1   
    65   28   68 1   
    66   29   30 1   
    67   29   69 1   
    68   29   70 1   
    69   30   31 1   
    70   30   71 1   
    71   30   72 1   
    72   31   32 1   
    73   31   33 1   
    74   31   73 1   
    75   32   74 1   
    76   32   75 1   
    77   32   76 1   
    78   33   77 1   
    79   33   78 1   
    80   33   79 1   
@<TRIPOS>SUBSTRUCTURE
     1 PQN         1 TEMP              0 ****  ****    0 ROOT
