@<TRIPOS>MOLECULE
PQQ
   27    29     1     0     0
SMALL
bcc


@<TRIPOS>ATOM
      1 N1         17.4000   51.3050   66.5690 na        1 PQQ     -0.088100
      2 C2         16.8780   50.0690   66.1660 cc        1 PQQ     -0.170900
      3 C2X        17.1580   49.3940   64.8460 c         1 PQQ      0.933200
      4 O2A        17.8720   49.9760   63.9830 o         1 PQQ     -0.847800
      5 O2B        16.6430   48.2490   64.6590 o         1 PQQ     -0.847800
      6 C3         16.0370   49.5870   67.1840 cd        1 PQQ     -0.138000
      7 C3A        16.0260   50.5680   68.2240 cd        1 PQQ     -0.318600
      8 C1A        16.9030   51.6270   67.8120 cc        1 PQQ      0.001700
      9 C4         15.3020   50.6270   69.4540 c         1 PQQ      0.542700
     10 O4         14.7660   49.6760   70.0490 o         1 PQQ     -0.598100
     11 C5         15.1710   52.0440   69.9990 c         1 PQQ      0.399600
     12 O5         14.1040   52.3990   70.5130 o         1 PQQ     -0.535100
     13 C6A        16.3430   52.9490   69.8040 ca        1 PQQ      0.308800
     14 N6         16.5220   53.9250   70.7280 nb        1 PQQ     -0.641000
     15 C7         17.5600   54.7700   70.5640 ca        1 PQQ      0.361800
     16 C7X        17.8010   55.8820   71.5980 c         1 PQQ      0.827100
     17 O7A        18.4470   55.5960   72.6440 o         1 PQQ     -0.843300
     18 O7B        17.3660   57.0390   71.3340 o         1 PQQ     -0.843300
     19 C8         18.4370   54.6640   69.4630 ca        1 PQQ     -0.195300
     20 C9         18.2580   53.6640   68.5020 ca        1 PQQ     -0.089600
     21 C9X        19.2460   53.6360   67.3470 c         1 PQQ      0.906200
     22 O9A        20.4740   53.5150   67.6150 o         1 PQQ     -0.835800
     23 O9B        18.8080   53.7810   66.1670 o         1 PQQ     -0.835800
     24 C9A        17.1880   52.7650   68.6680 ca        1 PQQ     -0.103300
     25 HN1        18.0230   51.8760   66.0260 hn        1 PQQ      0.359700
     26 H3         15.4930   48.6490   67.1630 ha        1 PQQ      0.145000
     27 H8         19.2770   55.3660   69.3660 ha        1 PQQ      0.146000
@<TRIPOS>BOND
     1    1    2 1   
     2    1    8 1   
     3    1   25 1   
     4    2    3 1   
     5    2    6 2   
     6    3    4 1   
     7    3    5 1   
     8    6    7 1   
     9    6   26 1   
    10    7    8 2   
    11    7    9 1   
    12    8   24 1   
    13    9   10 2   
    14    9   11 1   
    15   11   12 2   
    16   11   13 1   
    17   13   14 ar  
    18   13   24 ar  
    19   14   15 ar  
    20   15   16 1   
    21   15   19 ar  
    22   16   17 1   
    23   16   18 1   
    24   19   20 ar  
    25   19   27 1   
    26   20   21 1   
    27   20   24 ar  
    28   21   22 1   
    29   21   23 1   
@<TRIPOS>SUBSTRUCTURE
     1 PQQ         1 TEMP              0 ****  ****    0 ROOT
