@<TRIPOS>MOLECULE
PQQ
   27    29     1     0     0
SMALL
bcc


@<TRIPOS>ATOM
      1 N1         -0.0490   -0.0950    0.0500 na        1 PQQ     -0.088100
      2 C2          1.3460   -0.0420   -0.0700 cc        1 PQQ     -0.170900
      3 C2X         2.1180   -0.2400   -1.3520 c         1 PQQ      0.933200
      4 O2A         1.5030   -0.5350   -2.4150 o         1 PQQ     -0.847800
      5 O2B         3.3780   -0.1090   -1.2960 o         1 PQQ     -0.847800
      6 C3          1.8950    0.2030    1.2010 cd        1 PQQ     -0.138000
      7 C3A         0.8060    0.2740    2.1250 cd        1 PQQ     -0.318600
      8 C1A        -0.4000    0.0960    1.3680 cc        1 PQQ      0.001700
      9 C4          0.7870    0.4400    3.5430 c         1 PQQ      0.542700
     10 O4          1.7020    0.8900    4.2540 o         1 PQQ     -0.598100
     11 C5         -0.5020   -0.0610    4.1830 c         1 PQQ      0.399600
     12 O5         -0.4500   -0.6680    5.2590 o         1 PQQ     -0.535100
     13 C6A        -1.7620    0.1540    3.4100 ca        1 PQQ      0.308800
     14 N6         -2.9050    0.2890    4.1290 nb        1 PQQ     -0.641000
     15 C7         -4.0600    0.4630    3.4550 ca        1 PQQ      0.361800
     16 C7X        -5.3730    0.6320    4.2370 c         1 PQQ      0.827100
     17 O7A        -5.6710    1.7820    4.6630 o         1 PQQ     -0.843300
     18 O7B        -6.1060   -0.3860    4.3860 o         1 PQQ     -0.843300
     19 C8         -4.1000    0.4940    2.0440 ca        1 PQQ     -0.195300
     20 C9         -2.9280    0.3500    1.2940 ca        1 PQQ     -0.089600
     21 C9X        -3.0720    0.3860   -0.2180 c         1 PQQ      0.906200
     22 O9A        -3.5880    1.4110   -0.7460 o         1 PQQ     -0.835800
     23 O9B        -2.7140   -0.6290   -0.8890 o         1 PQQ     -0.835800
     24 C9A        -1.7130    0.1840    1.9840 ca        1 PQQ     -0.103300
     25 HN1        -0.6890   -0.2680   -0.7030 hn        1 PQQ      0.359700
     26 H3          2.9510    0.3020    1.4240 ha        1 PQQ      0.145000
     27 H8         -5.0590    0.6450    1.5290 ha        1 PQQ      0.146000
@<TRIPOS>BOND
     1    1    2 1   
     2    1    8 1   
     3    1   25 1   
     4    2    3 1   
     5    2    6 2   
     6    3    4 1   
     7    3    5 1   
     8    6    7 1   
     9    6   26 1   
    10    7    8 2   
    11    7    9 1   
    12    8   24 1   
    13    9   10 2   
    14    9   11 1   
    15   11   12 2   
    16   11   13 1   
    17   13   14 ar  
    18   13   24 ar  
    19   14   15 ar  
    20   15   16 1   
    21   15   19 ar  
    22   16   17 1   
    23   16   18 1   
    24   19   20 ar  
    25   19   27 1   
    26   20   21 1   
    27   20   24 ar  
    28   21   22 1   
    29   21   23 1   
@<TRIPOS>SUBSTRUCTURE
     1 PQQ         1 TEMP              0 ****  ****    0 ROOT
