@<TRIPOS>MOLECULE
PQR
   20    20     1     0     0
SMALL
bcc


@<TRIPOS>ATOM
      1 O5         -0.0350    0.0610   -0.2560 oh        1 PQR     -0.491100
      2 C6          1.3330    0.0330   -0.1430 ca        1 PQR      0.104100
      3 C7          2.0140    0.3360    1.0540 ca        1 PQR      0.055100
      4 O4          1.2220    0.6680    2.1350 oh        1 PQR     -0.515100
      5 C8          3.4080    0.3050    1.1160 ca        1 PQR     -0.174000
      6 C9          4.1440   -0.0440   -0.0340 ca        1 PQR      0.147600
      7 N2          5.5750   -0.0780    0.0020 nh        1 PQR     -0.441100
      8 N3          6.1860   -0.5650    1.0890 n2        1 PQR      0.158600
      9 O3          7.3510   -0.6210    1.0780 o         1 PQR     -0.238300
     10 C10         6.2550    0.3530   -1.2100 c3        1 PQR      0.167100
     11 C5          2.0710   -0.3100   -1.2820 ca        1 PQR     -0.119000
     12 C4          3.4590   -0.3540   -1.2270 ca        1 PQR     -0.148000
     13 H4          6.3910   -0.5160   -1.9080 h1        1 PQR      0.056033
     14 H5          7.2660    0.7690   -0.9530 h1        1 PQR      0.056033
     15 H6          5.6510    1.1480   -1.7190 h1        1 PQR      0.056033
     16 H7          1.5380   -0.5490   -2.2150 ha        1 PQR      0.158000
     17 H2         -0.4020    0.2940    0.6120 ho        1 PQR      0.439000
     18 H15         1.8000    0.8040    2.8990 ho        1 PQR      0.433000
     19 H8          4.0160   -0.6400   -2.1330 ha        1 PQR      0.144000
     20 H1          3.9100    0.5510    2.0630 ha        1 PQR      0.151000
@<TRIPOS>BOND
     1    1    2 1   
     2    1   17 1   
     3    2    3 ar  
     4    2   11 ar  
     5    3    4 1   
     6    3    5 ar  
     7    4   18 1   
     8    5    6 ar  
     9    5   20 1   
    10    6    7 1   
    11    6   12 ar  
    12    7    8 1   
    13    7   10 1   
    14    8    9 2   
    15   10   13 1   
    16   10   14 1   
    17   10   15 1   
    18   11   12 ar  
    19   11   16 1   
    20   12   19 1   
@<TRIPOS>SUBSTRUCTURE
     1 PQR         1 TEMP              0 ****  ****    0 ROOT
