@<TRIPOS>MOLECULE
PQR
   20    20     1     0     0
SMALL
bcc


@<TRIPOS>ATOM
      1 O5         -0.0350    0.1240   -0.2600 oh        1 PQR     -0.491100
      2 C6          1.3330    0.0730   -0.1460 ca        1 PQR      0.104100
      3 C7          2.0170    0.3630    1.0530 ca        1 PQR      0.055100
      4 O4          1.2290    0.7070    2.1320 oh        1 PQR     -0.515100
      5 C8          3.4100    0.3080    1.1160 ca        1 PQR     -0.174000
      6 C9          4.1410   -0.0520   -0.0340 ca        1 PQR      0.147600
      7 N2          5.5720   -0.1110    0.0040 nh        1 PQR     -0.441100
      8 N3          6.1730   -0.6080    1.0910 n2        1 PQR      0.158600
      9 O3          7.3380   -0.6840    1.0810 o         1 PQR     -0.238300
     10 C10         6.2610    0.3090   -1.2070 c3        1 PQR      0.167100
     11 C5          2.0660   -0.2810   -1.2850 ca        1 PQR     -0.119000
     12 C4          3.4530   -0.3500   -1.2280 ca        1 PQR     -0.148000
     13 H4          7.2790    0.7080   -0.9480 h1        1 PQR      0.056033
     14 H5          5.6710    1.1150   -1.7160 h1        1 PQR      0.056033
     15 H6          6.3820   -0.5610   -1.9050 h1        1 PQR      0.056033
     16 H7          1.5300   -0.5100   -2.2180 ha        1 PQR      0.158000
     17 H2         -0.3990    0.3620    0.6070 ho        1 PQR      0.439000
     18 H15         1.8090    0.8330    2.8970 ho        1 PQR      0.433000
     19 H8          4.0060   -0.6440   -2.1340 ha        1 PQR      0.144000
     20 H1          3.9160    0.5440    2.0640 ha        1 PQR      0.151000
@<TRIPOS>BOND
     1    1    2 1   
     2    1   17 1   
     3    2    3 ar  
     4    2   11 ar  
     5    3    4 1   
     6    3    5 ar  
     7    4   18 1   
     8    5    6 ar  
     9    5   20 1   
    10    6    7 1   
    11    6   12 ar  
    12    7    8 1   
    13    7   10 1   
    14    8    9 2   
    15   10   13 1   
    16   10   14 1   
    17   10   15 1   
    18   11   12 ar  
    19   11   16 1   
    20   12   19 1   
@<TRIPOS>SUBSTRUCTURE
     1 PQR         1 TEMP              0 ****  ****    0 ROOT
