@<TRIPOS>MOLECULE
PQR
   21    21     1     0     0
SMALL
bcc


@<TRIPOS>ATOM
      1 O5          0.0990   -0.2230    0.1800 oh        1 PQR     -0.484100
      2 C6          1.4620   -0.1800    0.0950 ca        1 PQR      0.111100
      3 C7          2.1260    0.4090    1.2040 ca        1 PQR      0.146100
      4 O4          1.4690    0.9050    2.2940 oh        1 PQR     -0.466100
      5 C8          3.5200    0.5000    1.2140 ca        1 PQR     -0.125000
      6 C9          4.2420    0.0070    0.1110 ca        1 PQR     -0.060400
      7 N2          5.7150    0.1090    0.1300 n4        1 PQR     -0.433900
      8 N3          6.3650   -1.2470    0.3300 n2        1 PQR      0.221600
      9 O3          6.5380   -1.8910   -0.5780 o         1 PQR      0.043700
     10 C10         6.2020    0.9030   -1.0340 c3        1 PQR      0.077100
     11 C5          2.1990   -0.6700   -0.9870 ca        1 PQR     -0.159000
     12 C4          3.5890   -0.5800   -0.9830 ca        1 PQR     -0.100000
     13 H4          5.6440    1.8770   -1.0740 hx        1 PQR      0.108033
     14 H5          7.3010    1.1020   -0.9140 hx        1 PQR      0.108033
     15 H6          6.0190    0.3370   -1.9860 hx        1 PQR      0.108033
     16 H7          1.6840   -1.1300   -1.8460 ha        1 PQR      0.173000
     17 H2         -0.2580   -0.6430   -0.6200 ho        1 PQR      0.459000
     18 H15         0.5110    0.7810    2.1680 ho        1 PQR      0.465000
     19 H8          4.1500   -0.9760   -1.8450 ha        1 PQR      0.156000
     20 H1          4.0080    0.9590    2.0910 ha        1 PQR      0.178000
     21 H21         5.9770    0.6160    0.9930 hn        1 PQR      0.471800
@<TRIPOS>BOND
     1    1    2 1   
     2    1   17 1   
     3    2    3 ar  
     4    2   11 ar  
     5    3    4 1   
     6    3    5 ar  
     7    4   18 1   
     8    5    6 ar  
     9    5   20 1   
    10    6    7 1   
    11    6   12 ar  
    12    7    8 1   
    13    7   10 1   
    14    7   21 1   
    15    8    9 2   
    16   10   13 1   
    17   10   14 1   
    18   10   15 1   
    19   11   12 ar  
    20   11   16 1   
    21   12   19 1   
@<TRIPOS>SUBSTRUCTURE
     1 PQR         1 TEMP              0 ****  ****    0 ROOT
