@<TRIPOS>MOLECULE
PQR
   20    20     1     0     0
SMALL
bcc


@<TRIPOS>ATOM
      1 O5         -3.5860    0.2220   -0.0260 oh        1 PQR     -0.514100
      2 C6         -2.2080    0.2850    0.0350 ca        1 PQR      0.030100
      3 C7         -1.5150   -0.9090   -0.2550 ca        1 PQR      0.127100
      4 O4         -2.1550   -2.0810   -0.5790 oh        1 PQR     -0.490100
      5 C8         -0.1170   -0.9370   -0.2290 ca        1 PQR     -0.138000
      6 C9          0.5950    0.2340    0.0970 ca        1 PQR      0.153600
      7 N2          2.0270    0.2300    0.1230 nh        1 PQR     -0.444100
      8 N3          2.6630   -0.8340    0.6290 n2        1 PQR      0.164600
      9 O3          3.8290   -0.7980    0.6730 o         1 PQR     -0.237300
     10 C10         2.6790    1.4420   -0.3480 c3        1 PQR      0.168100
     11 C5         -1.4990    1.4440    0.3550 ca        1 PQR     -0.154000
     12 C4         -0.1080    1.4210    0.3920 ca        1 PQR     -0.154000
     13 H4          2.8120    2.1640    0.5000 h1        1 PQR      0.055033
     14 H5          3.6900    1.1920   -0.7690 h1        1 PQR      0.055033
     15 H6          2.0570    1.9180   -1.1490 h1        1 PQR      0.055033
     16 H7         -2.0380    2.3740    0.5840 ha        1 PQR      0.139000
     17 H2         -3.9330    1.0850    0.2410 ho        1 PQR      0.430000
     18 H15        -3.1110   -1.9190   -0.5440 ho        1 PQR      0.440000
     19 H8          0.4320    2.3420    0.6580 ha        1 PQR      0.143000
     20 H1          0.3930   -1.8840   -0.4630 ha        1 PQR      0.170000
@<TRIPOS>BOND
     1    1    2 1   
     2    1   17 1   
     3    2    3 ar  
     4    2   11 ar  
     5    3    4 1   
     6    3    5 ar  
     7    4   18 1   
     8    5    6 ar  
     9    5   20 1   
    10    6    7 1   
    11    6   12 ar  
    12    7    8 1   
    13    7   10 1   
    14    8    9 2   
    15   10   13 1   
    16   10   14 1   
    17   10   15 1   
    18   11   12 ar  
    19   11   16 1   
    20   12   19 1   
@<TRIPOS>SUBSTRUCTURE
     1 PQR         1 TEMP              0 ****  ****    0 ROOT
