@<TRIPOS>MOLECULE
PQW
   64    66     1     0     0
SMALL
bcc


@<TRIPOS>ATOM
      1 S01        -1.2580   -0.8410   -0.2850 ss        1 PQW      0.101200
      2 C02        -1.0120   -0.6970    1.3520 cc        1 PQW     -0.170100
      3 C03        -1.9690    0.0990    1.9510 cd        1 PQW     -0.157000
      4 C04        -2.9160    0.5790    0.9980 cd        1 PQW     -0.131000
      5 C05        -2.6220    0.1300   -0.2800 cc        1 PQW     -0.252000
      6 C06        -3.4390    0.4340   -1.4720 ce        1 PQW      0.696800
      7 N07        -3.1140    1.1940   -2.4860 nf        1 PQW     -0.652300
      8 N08        -4.6760   -0.2550   -1.4930 nv        1 PQW     -0.892800
      9 N1'        -2.9730   -4.9400   -4.6140 n7        1 PQW     -0.597000
     10 C11        -1.8970    1.8840   -2.5960 cf        1 PQW      0.097300
     11 C12        -1.3140    1.9560   -3.9950 c3        1 PQW      0.078900
     12 C13        -0.8740    0.6860   -4.4820 c1        1 PQW     -0.155100
     13 C14        -0.5000   -0.3650   -4.9120 c1        1 PQW     -0.047400
     14 C15        -0.7020    3.2800   -0.7350 c2        1 PQW     -0.199100
     15 C16        -1.2940    2.5640   -1.6370 c1        1 PQW     -0.073800
     16 O17        -0.1170   -1.4940   -5.4980 os        1 PQW     -0.231400
     17 C18         0.5950   -2.3900   -4.6170 c3        1 PQW      0.099700
     18 C2'        -2.3880   -4.0690   -3.8080 c1        1 PQW     -0.009100
     19 S21       -11.4230   -3.2090   -7.6830 ss        1 PQW      0.137200
     20 C22       -12.3750   -3.7020   -8.9460 cc        1 PQW     -0.144100
     21 C23       -11.6280   -4.1530  -10.0190 cd        1 PQW     -0.154000
     22 C24       -10.2330   -4.0720   -9.7480 cd        1 PQW     -0.106000
     23 C25        -9.9930   -3.5640   -8.4760 cc        1 PQW     -0.332000
     24 C26        -8.6550   -3.3910   -7.8860 ce        1 PQW      0.603400
     25 N28        -8.1930   -3.9890   -6.8390 n2        1 PQW     -0.791100
     26 C3'        -3.0580   -2.7230   -3.9390 c3        1 PQW     -0.191300
     27 C31        -6.6150   -1.9900   -8.3960 ce        1 PQW      0.455600
     28 C32        -6.0840   -1.0020   -9.4140 c3        1 PQW     -0.178500
     29 C33        -4.7140   -0.5100   -9.1660 c2        1 PQW     -0.064200
     30 C34        -3.9740   -0.8770   -8.1060 cf        1 PQW     -0.176000
     31 C35        -4.5330   -1.8060   -7.1390 cf        1 PQW      0.331100
     32 C36        -5.8110   -2.3470   -7.3010 ce        1 PQW     -0.451600
     33 O37        -3.7070   -2.0730   -6.1220 os        1 PQW     -0.248900
     34 C4'        -4.1510   -2.9040   -5.0220 c3        1 PQW      0.099100
     35 C5'        -4.0850   -4.4060   -5.4050 c3        1 PQW      0.102800
     36 H02        -0.1860   -1.1830    1.8710 h4        1 PQW      0.180000
     37 H03        -2.9510   -0.5020   -7.9230 ha        1 PQW      0.203000
     38 H04        -2.0130    0.3400    3.0150 ha        1 PQW      0.163000
     39 HN08       -3.7530    1.2290    1.2600 ha        1 PQW      0.156000
     40 HN0A       -5.3740    0.1460   -2.0820 hn        1 PQW      0.396800
     41 HN1'       -2.7110   -5.8910   -4.7090 hn        1 PQW      0.466800
     42 H12        -0.4450    2.6740   -3.9870 hc        1 PQW      0.072200
     43 H13        -2.0930    2.3740   -4.6960 hc        1 PQW      0.072200
     44 H15        -0.9760    4.3300   -0.5430 ha        1 PQW      0.135500
     45 H16         0.1090    2.8840   -0.1040 ha        1 PQW      0.135500
     46 H18        -0.1300   -2.8620   -3.9080 h1        1 PQW      0.061033
     47 H18A        1.0200   -3.1460   -5.3240 h1        1 PQW      0.061033
     48 H2'         1.4040   -1.8520   -4.0720 h1        1 PQW      0.061033
     49 H24        -9.4640   -4.3960  -10.4550 ha        1 PQW      0.162000
     50 HN28       -8.8190   -4.6340   -6.4040 hn        1 PQW      0.442400
     51 H3'        -3.5080   -2.4020   -2.9670 hc        1 PQW      0.123200
     52 H3'A       -2.3020   -1.9520   -4.2520 hc        1 PQW      0.123200
     53 H32        -6.7740   -0.1060   -9.4550 hc        1 PQW      0.125200
     54 H33        -6.1040   -1.4780  -10.4400 hc        1 PQW      0.125200
     55 H34        -4.3220    0.1990   -9.9190 ha        1 PQW      0.177000
     56 H36        -6.1700   -3.0720   -6.5490 ha        1 PQW      0.207000
     57 H4'        -5.1660   -2.5790   -4.6910 h1        1 PQW      0.090700
     58 H5'        -5.0440   -4.9230   -5.1360 h1        1 PQW      0.070700
     59 H5'A       -3.8940   -4.5370   -6.5030 h1        1 PQW      0.070700
     60 H22       -13.4670   -3.6690   -8.9160 h4        1 PQW      0.196000
     61 H083       -5.0130   -0.4600   -0.5760 hn        1 PQW      0.396800
     62 N27        -7.8660   -2.4540   -8.6350 nu        1 PQW     -0.364200
     63 H23       -12.0390   -4.5320  -10.9590 ha        1 PQW      0.178000
     64 HN27       -8.3360   -2.1150   -9.4570 hn        1 PQW      0.316700
@<TRIPOS>BOND
     1    1    2 1   
     2    1    5 1   
     3    2    3 2   
     4    2   36 1   
     5    3    4 1   
     6    3   38 1   
     7    4    5 2   
     8    4   39 1   
     9    5    6 1   
    10    6    7 2   
    11    6    8 1   
    12    7   10 1   
    13    8   40 1   
    14    8   61 1   
    15    9   18 3   
    16    9   35 1   
    17    9   41 1   
    18   10   11 1   
    19   10   15 2   
    20   11   12 1   
    21   11   42 1   
    22   11   43 1   
    23   12   13 3   
    24   13   16 1   
    25   14   15 2   
    26   14   44 1   
    27   14   45 1   
    28   16   17 1   
    29   17   46 1   
    30   17   47 1   
    31   17   48 1   
    32   18   26 1   
    33   19   20 1   
    34   19   23 1   
    35   20   21 2   
    36   20   60 1   
    37   21   22 1   
    38   21   63 1   
    39   22   23 2   
    40   22   49 1   
    41   23   24 1   
    42   24   25 2   
    43   24   62 1   
    44   25   50 1   
    45   26   34 1   
    46   26   51 1   
    47   26   52 1   
    48   27   28 1   
    49   27   32 1   
    50   27   62 2   
    51   28   29 1   
    52   28   53 1   
    53   28   54 1   
    54   29   30 2   
    55   29   55 1   
    56   30   31 1   
    57   30   37 1   
    58   31   32 2   
    59   31   33 1   
    60   32   56 1   
    61   33   34 1   
    62   34   35 1   
    63   34   57 1   
    64   35   58 1   
    65   35   59 1   
    66   62   64 1   
@<TRIPOS>SUBSTRUCTURE
     1 PQW         1 TEMP              0 ****  ****    0 ROOT
