@<TRIPOS>MOLECULE
PQW
   64    68     1     0     0
SMALL
bcc


@<TRIPOS>ATOM
      1 S01        -2.1770    0.8490   -1.5830 s4        1 PQW      1.356000
      2 C02        -2.4590    0.4440   -3.3310 c3        1 PQW     -0.410000
      3 C03        -1.0960    0.1360   -3.8370 c2        1 PQW     -0.181000
      4 C04        -0.1130    0.1810   -2.9030 c2        1 PQW     -0.093000
      5 C05        -0.6080    0.3930   -1.5650 c2        1 PQW     -0.754000
      6 C06        -0.0180   -0.0510   -0.3540 c2        1 PQW      0.077000
      7 N07        -0.6430   -0.4480    0.7350 n2        1 PQW     -0.174000
      8 N08         1.4700   -0.0640   -0.3220 n4        1 PQW     -0.020000
      9 N1'        -3.2000   -1.9640   -3.3980 n3        1 PQW     -0.269000
     10 C11        -2.0380   -0.5560    0.7160 ca        1 PQW      0.029000
     11 C12        -2.6570   -1.1860    1.8310 ca        1 PQW     -0.065000
     12 C13        -4.0260   -1.3430    1.8780 ca        1 PQW     -0.102000
     13 C14        -4.8280   -0.8680    0.8130 ca        1 PQW      0.110000
     14 C15        -4.2420   -0.2290   -0.2810 ca        1 PQW     -0.142000
     15 C16        -2.8540   -0.0610   -0.3370 ca        1 PQW     -0.499000
     16 O17        -6.1750   -1.0710    0.9760 os        1 PQW     -0.188000
     17 C18        -7.0190   -0.6990   -0.1120 c3        1 PQW     -0.085000
     18 C2'        -3.5190   -0.5690   -3.7370 c3        1 PQW     -0.016000
     19 S21        -9.9820   -1.8230  -10.6470 ss        1 PQW      0.635000
     20 C22       -11.3170   -2.6480  -11.1890 c2        1 PQW     -0.435000
     21 C23       -11.1390   -4.0170  -11.1310 c2        1 PQW     -0.157000
     22 C24        -9.8520   -4.3530  -10.6190 c2        1 PQW     -0.120000
     23 C25        -9.1140   -3.2180  -10.3170 c2        1 PQW     -0.455000
     24 C26        -7.7530   -3.2510   -9.7480 c2        1 PQW      0.182000
     25 N28        -7.3660   -4.0540   -8.8020 n2        1 PQW     -0.316000
     26 C3'        -3.8370   -0.4750   -5.2500 c3        1 PQW     -0.203000
     27 C31        -5.5140   -2.2360   -9.9550 c2        1 PQW     -0.007000
     28 C32        -4.6120   -1.6280  -10.7780 c2        1 PQW     -0.309000
     29 C33        -3.1800   -1.4670  -10.4180 c3        1 PQW      0.017000
     30 C34        -2.9610   -1.7240   -9.0240 c1        1 PQW     -0.192000
     31 C35        -2.8260   -1.9050   -7.8460 c1        1 PQW     -0.022000
     32 C36        -5.1130   -2.7200   -8.6380 c1        1 PQW      0.017000
     33 O37        -2.6400   -2.1590   -6.5580 os        1 PQW     -0.129000
     34 C4'        -3.8380   -1.9180   -5.7600 c3        1 PQW     -0.014000
     35 C5'        -3.6670   -2.7990   -4.5020 c3        1 PQW     -0.101000
     36 H02        -2.7880    1.4530   -3.7150 h1        1 PQW      0.163000
     37 H03        -0.9590   -0.1460   -4.8870 ha        1 PQW      0.183000
     38 H04         0.9460    0.0170   -3.1200 ha        1 PQW      0.138000
     39 HN08        1.7960   -0.7500   -1.0100 hn        1 PQW      0.262667
     40 HN0A        1.8280   -0.3090    0.6090 hn        1 PQW      0.262667
     41 HN1'       -2.2070   -2.0750   -3.2880 hn        1 PQW      0.148000
     42 H12        -4.5140   -1.8390    2.7340 ha        1 PQW      0.177000
     43 H13        -2.0340   -1.5660    2.6590 ha        1 PQW      0.168000
     44 H15        -4.8710    0.1450   -1.1040 ha        1 PQW      0.149000
     45 H16        -4.4630   -0.3240   -3.1650 h1        1 PQW      0.097000
     46 H18        -6.9830    0.4060   -0.2720 h1        1 PQW      0.097333
     47 H18A       -6.7310   -1.2470   -1.0410 h1        1 PQW      0.097333
     48 H2'        -8.0360   -1.0150    0.2380 h1        1 PQW      0.097333
     49 H24        -9.5030   -5.3810  -10.4960 ha        1 PQW      0.161000
     50 HN28       -8.0770   -4.6420   -8.4290 hn        1 PQW      0.172000
     51 H3'        -4.8370   -0.0050   -5.4070 hc        1 PQW      0.113000
     52 H3'A       -3.0720    0.1340   -5.7930 hc        1 PQW      0.113000
     53 H32        -2.8450   -0.4190  -10.6670 hc        1 PQW      0.106000
     54 H33        -4.8980   -1.1980  -11.7480 ha        1 PQW      0.137000
     55 H34        -2.5530   -2.1720  -11.0380 hc        1 PQW      0.106000
     56 H36        -4.6950   -3.7370   -8.6010 ha        1 PQW      0.081000
     57 H4'        -4.7490   -2.1770   -6.3650 h1        1 PQW      0.177000
     58 H5'        -4.6700   -3.2200   -4.2170 h1        1 PQW      0.118500
     59 H5'A       -2.9630   -3.6500   -4.7020 h1        1 PQW      0.118500
     60 H22       -12.2200   -2.1490  -11.5430 h4        1 PQW      0.181000
     61 H083        1.7990    0.8690   -0.5890 hn        1 PQW      0.262667
     62 N27        -6.8830   -2.2730  -10.2910 n3        1 PQW     -0.244000
     63 H23       -11.8780   -4.7630  -11.4350 ha        1 PQW      0.165000
     64 HN27       -7.0890   -2.0180  -11.2350 hn        1 PQW      0.227000
@<TRIPOS>BOND
     1    1    2 1   
     2    1    5 1   
     3    1   15 1   
     4    2    3 1   
     5    2   18 1   
     6    2   36 1   
     7    3    4 1   
     8    3   37 1   
     9    4    5 1   
    10    4   38 1   
    11    5    6 1   
    12    6    7 1   
    13    6    8 1   
    14    7   10 1   
    15    8   39 1   
    16    8   40 1   
    17    8   61 1   
    18    9   18 1   
    19    9   35 1   
    20    9   41 1   
    21   10   11 1   
    22   10   15 1   
    23   11   12 1   
    24   11   43 1   
    25   12   13 1   
    26   12   42 1   
    27   13   14 1   
    28   13   16 1   
    29   14   15 1   
    30   14   44 1   
    31   16   17 1   
    32   17   46 1   
    33   17   47 1   
    34   17   48 1   
    35   18   26 1   
    36   18   45 1   
    37   19   20 1   
    38   19   23 1   
    39   20   21 1   
    40   20   60 1   
    41   21   22 1   
    42   21   63 1   
    43   22   23 1   
    44   22   49 1   
    45   23   24 1   
    46   24   25 1   
    47   24   62 1   
    48   25   50 1   
    49   26   34 1   
    50   26   51 1   
    51   26   52 1   
    52   27   28 1   
    53   27   32 1   
    54   27   62 1   
    55   28   29 1   
    56   28   54 1   
    57   29   30 1   
    58   29   53 1   
    59   29   55 1   
    60   30   31 1   
    61   31   33 1   
    62   32   56 1   
    63   33   34 1   
    64   34   35 1   
    65   34   57 1   
    66   35   58 1   
    67   35   59 1   
    68   62   64 1   
@<TRIPOS>SUBSTRUCTURE
     1 PQW         1 TEMP              0 ****  ****    0 ROOT
