@<TRIPOS>MOLECULE
PQW
   65    69     1     0     0
SMALL
bcc


@<TRIPOS>ATOM
      1 S01        -1.3190    0.3480    2.3620 s4        1 PQW      1.396000
      2 C02        -2.1840    1.8050    2.3130 c2        1 PQW     -0.615000
      3 C03        -1.5790    2.7300    3.1100 c2        1 PQW     -0.054000
      4 C04        -0.2700    2.3040    3.5950 c2        1 PQW     -0.097000
      5 C05         0.0360    1.0430    3.1800 c2        1 PQW     -0.482000
      6 C06         1.2420    0.2810    3.0870 c2        1 PQW     -0.125000
      7 N07         1.5460   -0.5450    2.0930 n2        1 PQW     -0.078000
      8 N08         2.2300    0.4400    4.1760 n4        1 PQW      0.006000
      9 N1'        -3.3260   -2.2920   -6.5070 n3        1 PQW     -0.222000
     10 C11         0.6670   -0.7590    1.0580 c2        1 PQW     -0.054000
     11 C12         1.1840   -1.4340   -0.0660 c2        1 PQW      0.113000
     12 C13         0.4210   -1.6280   -1.2230 c2        1 PQW     -0.272000
     13 C14        -0.8940   -1.2020   -1.2700 c2        1 PQW      0.198000
     14 C15        -1.5850   -0.5990   -0.1010 c3        1 PQW     -0.077000
     15 C16        -0.7240   -0.3530    1.0730 c2        1 PQW     -0.761000
     16 O17        -1.5380   -1.3740   -2.4500 os        1 PQW     -0.173000
     17 C18        -2.9180   -1.0020   -2.5250 c3        1 PQW     -0.116000
     18 C2'        -4.1200   -2.0750   -5.4750 c1        1 PQW     -0.082000
     19 S21       -11.5570   -0.7100  -13.5030 ss        1 PQW      1.071000
     20 C22       -12.1940    0.0630  -12.4870 c1        1 PQW     -0.736000
     21 C23       -11.9820   -0.0790  -11.0700 c3        1 PQW     -0.089000
     22 C24       -10.9420   -1.2010  -11.0250 c2        1 PQW     -0.046000
     23 C25       -10.5940   -1.6580  -12.2490 c2        1 PQW     -0.605000
     24 C26        -9.7120   -2.7570  -12.5820 c2        1 PQW      0.122000
     25 N28        -9.9510   -3.9260  -13.0410 n2        1 PQW     -0.201000
     26 C3'        -5.4830   -2.6680   -5.7460 c3        1 PQW     -0.232000
     27 C31        -7.6280   -3.1470  -11.2770 c2        1 PQW     -0.141000
     28 C32        -6.9720   -4.4710  -11.6650 c3        1 PQW     -0.125000
     29 C33        -6.8980   -5.3430  -10.4430 c2        1 PQW     -0.039000
     30 C34        -6.6740   -4.6670   -9.3280 c1        1 PQW     -0.249000
     31 C35        -6.8110   -3.3670   -9.0280 c2        1 PQW      0.115000
     32 C36        -7.6250   -2.6320  -10.0130 c2        1 PQW     -0.053000
     33 O37        -6.3270   -2.6360   -7.9890 os        1 PQW     -0.175000
     34 C4'        -5.3840   -3.3260   -7.1430 c3        1 PQW     -0.002000
     35 C5'        -3.9310   -3.0390   -7.6130 c3        1 PQW     -0.129000
     36 H02        -3.1330    1.9740    1.8030 h4        1 PQW      0.179000
     37 H03        -1.9760    3.7200    3.3590 ha        1 PQW      0.168000
     38 H04         0.3700    2.9830    4.1650 ha        1 PQW      0.151000
     39 HN08        2.3820    1.4420    4.3230 hn        1 PQW      0.253667
     40 HN0A        1.8480    0.0250    5.0310 hn        1 PQW      0.253667
     41 HN1'       -2.3810   -1.9980   -6.5690 hn        1 PQW      0.260000
     42 H12         0.8740   -2.1160   -2.1010 ha        1 PQW      0.174000
     43 H13         2.2230   -1.8130   -0.0590 ha        1 PQW      0.164000
     44 H15        -2.4260   -1.3010    0.1830 hc        1 PQW      0.115500
     45 H16        -2.0670    0.3670   -0.4340 hc        1 PQW      0.115500
     46 H18        -3.0230    0.1030   -2.4040 h1        1 PQW      0.117000
     47 H18A       -3.5130   -1.5470   -1.7540 h1        1 PQW      0.117000
     48 H2'        -3.2150   -1.3260   -3.5670 h1        1 PQW      0.117000
     49 H24       -10.5860   -1.5480  -10.0510 ha        1 PQW      0.158000
     50 HN28      -10.9030   -4.1900  -13.1890 hn        1 PQW      0.238000
     51 H3'        -5.7400   -3.4250   -4.9660 hc        1 PQW      0.140000
     52 H3'A       -6.2580   -1.8600   -5.7290 hc        1 PQW      0.140000
     53 H32        -5.9660   -4.2550  -12.1170 hc        1 PQW      0.143500
     54 H33        -7.5880   -5.0190  -12.4300 hc        1 PQW      0.143500
     55 H34        -7.1120   -6.4150  -10.5290 ha        1 PQW      0.186000
     56 H36        -8.0770   -1.6740   -9.7160 ha        1 PQW      0.170000
     57 H4'        -5.6090   -4.4230   -7.1320 h1        1 PQW      0.141000
     58 H5'        -3.3730   -3.9960   -7.7880 h1        1 PQW      0.112500
     59 H5'A       -3.9240   -2.4300   -8.5550 h1        1 PQW      0.112500
     60 H22       -11.5950    0.8550  -10.5800 hc        1 PQW      0.175500
     61 H083        3.1210   -0.0130    3.9450 hn        1 PQW      0.253667
     62 N27        -8.2420   -2.4020  -12.3790 n4        1 PQW      0.017000
     63 H23       -12.9140   -0.3810  -10.5160 hc        1 PQW      0.175500
     64 HN27       -8.1970   -1.3930  -12.1890 hn        1 PQW      0.259500
     65 H272       -7.7160   -2.6090  -13.2390 hn        1 PQW      0.259500
@<TRIPOS>BOND
     1    1    2 1   
     2    1    5 1   
     3    1   15 1   
     4    2    3 1   
     5    2   36 1   
     6    3    4 1   
     7    3   37 1   
     8    4    5 1   
     9    4   38 1   
    10    5    6 1   
    11    6    7 1   
    12    6    8 1   
    13    7   10 1   
    14    8   39 1   
    15    8   40 1   
    16    8   61 1   
    17    9   18 1   
    18    9   35 1   
    19    9   41 1   
    20   10   11 1   
    21   10   15 1   
    22   11   12 1   
    23   11   43 1   
    24   12   13 1   
    25   12   42 1   
    26   13   14 1   
    27   13   16 1   
    28   14   15 1   
    29   14   44 1   
    30   14   45 1   
    31   16   17 1   
    32   17   46 1   
    33   17   47 1   
    34   17   48 1   
    35   18   26 1   
    36   19   20 1   
    37   19   23 1   
    38   20   21 1   
    39   21   22 1   
    40   21   60 1   
    41   21   63 1   
    42   22   23 1   
    43   22   49 1   
    44   23   24 1   
    45   24   25 1   
    46   24   62 1   
    47   25   50 1   
    48   26   34 1   
    49   26   51 1   
    50   26   52 1   
    51   27   28 1   
    52   27   32 1   
    53   27   62 1   
    54   28   29 1   
    55   28   53 1   
    56   28   54 1   
    57   29   30 1   
    58   29   55 1   
    59   30   31 1   
    60   31   32 1   
    61   31   33 1   
    62   32   56 1   
    63   33   34 1   
    64   34   35 1   
    65   34   57 1   
    66   35   58 1   
    67   35   59 1   
    68   62   64 1   
    69   62   65 1   
@<TRIPOS>SUBSTRUCTURE
     1 PQW         1 TEMP              0 ****  ****    0 ROOT
