@<TRIPOS>MOLECULE
PR0
   27    27     1     0     0
SMALL
bcc


@<TRIPOS>ATOM
      1 N          -1.1980    1.8330   -0.2900 n3        1 PR0     -0.899800
      2 CA         -1.3210    0.3960   -0.1730 c3        1 PR0      0.141500
      3 C          -2.7570   -0.1080    0.1560 c3        1 PR0      0.093100
      4 OXT        -2.8030   -1.5250    0.1080 oh        1 PR0     -0.591800
      5 CB         -0.3610   -0.1900    0.8790 c3        1 PR0     -0.034100
      6 CG          1.0530   -0.1750    0.4220 ca        1 PR0     -0.074300
      7 CD1         1.8190    0.9940    0.5080 ca        1 PR0     -0.118500
      8 CD2         1.6400   -1.3410   -0.0860 ca        1 PR0     -0.118500
      9 CE1         3.1490    0.9960    0.0910 ca        1 PR0     -0.133000
     10 CE2         2.9700   -1.3370   -0.5010 ca        1 PR0     -0.133000
     11 CZ          3.7270   -0.1690   -0.4140 ca        1 PR0     -0.132000
     12 CM         -3.7940    0.4880   -0.7770 c3        1 PR0     -0.136100
     13 H          -1.8310    2.1830   -0.9820 hn        1 PR0      0.348800
     14 H2         -1.3840    2.2820    0.5850 hn        1 PR0      0.348800
     15 HA         -1.0400   -0.0370   -1.1800 h1        1 PR0      0.062700
     16 HC         -3.0100    0.1310    1.2280 h1        1 PR0      0.074700
     17 HOR        -2.5880   -1.7890   -0.7950 ho        1 PR0      0.398000
     18 HB2        -0.4550    0.3800    1.8420 hc        1 PR0      0.058700
     19 HB3        -0.6860   -1.2470    1.0830 hc        1 PR0      0.058700
     20 HD1         1.3630    1.9170    0.8970 ha        1 PR0      0.132500
     21 HD2         1.0480   -2.2660   -0.1540 ha        1 PR0      0.132500
     22 HE1         3.7430    1.9190    0.1590 ha        1 PR0      0.128500
     23 HE2         3.4230   -2.2570   -0.8980 ha        1 PR0      0.128500
     24 HZ          4.7770   -0.1660   -0.7420 ha        1 PR0      0.128000
     25 HM1        -3.4430    0.4530   -1.8360 hc        1 PR0      0.045367
     26 HM2        -4.7450   -0.0940   -0.7000 hc        1 PR0      0.045367
     27 HM3        -4.0080    1.5480   -0.5020 hc        1 PR0      0.045367
@<TRIPOS>BOND
     1    1    2 1   
     2    1   13 1   
     3    1   14 1   
     4    2    3 1   
     5    2    5 1   
     6    2   15 1   
     7    3    4 1   
     8    3   12 1   
     9    3   16 1   
    10    4   17 1   
    11    5    6 1   
    12    5   18 1   
    13    5   19 1   
    14    6    7 ar  
    15    6    8 ar  
    16    7    9 ar  
    17    7   20 1   
    18    8   10 ar  
    19    8   21 1   
    20    9   11 ar  
    21    9   22 1   
    22   10   11 ar  
    23   10   23 1   
    24   11   24 1   
    25   12   25 1   
    26   12   26 1   
    27   12   27 1   
@<TRIPOS>SUBSTRUCTURE
     1 PR0         1 TEMP              0 ****  ****    0 ROOT
