@<TRIPOS>MOLECULE
PR1
   51    53     1     0     0
SMALL
bcc


@<TRIPOS>ATOM
      1 C1         -0.3580   -0.0740   -0.8360 ca        1 PR1     -0.048000
      2 C2          0.8800   -0.6910   -0.9420 ca        1 PR1     -0.204000
      3 C3          1.7440   -0.7130    0.1700 ca        1 PR1      0.200100
      4 C4          1.3650   -0.1160    1.3940 ca        1 PR1     -0.133300
      5 C5          0.1130    0.4880    1.4840 ca        1 PR1     -0.032000
      6 C6         -0.7420    0.5220    0.3740 ca        1 PR1     -0.309900
      7 C10        -2.0720    1.1450    0.5100 ce        1 PR1      0.595800
      8 N11        -3.0820    0.8410    1.2290 n2        1 PR1     -0.705100
      9 N12        -2.2160    2.3640   -0.3660 n4        1 PR1     -0.824600
     10 C13         2.3170   -0.0730    2.5590 c3        1 PR1      0.161300
     11 O44         2.9750   -1.3020    0.1280 oh        1 PR1     -0.481100
     12 C16        -0.0690   -4.7870   10.2250 ca        1 PR1     -0.173400
     13 C17        -0.8590   -4.4920   11.3680 ca        1 PR1     -0.095000
     14 C18        -1.9660   -5.2640   11.6140 ca        1 PR1     -0.146300
     15 C19        -2.3020   -6.3400   10.7110 ca        1 PR1      0.426200
     16 N20        -1.6070   -6.6550    9.6370 nb        1 PR1     -0.590000
     17 C21        -0.4840   -5.8900    9.3860 ca        1 PR1      0.370100
     18 C25         0.4130   -6.0610    8.3140 cc        1 PR1     -0.037800
     19 C26         1.4780   -5.1120    8.3320 cd        1 PR1     -0.736700
     20 S27         1.2910   -4.0870    9.6640 ss        1 PR1      0.398500
     21 N28         2.4690   -1.3100    3.2690 n         1 PR1     -0.459800
     22 C29         1.8110   -1.6220    4.4440 c         1 PR1      0.674500
     23 C30         2.5210   -2.8210    5.1350 c3        1 PR1      0.048500
     24 C31         3.5220   -3.3260    4.0740 c3        1 PR1     -0.104400
     25 C32         3.5840   -2.2080    3.0120 c3        1 PR1      0.086000
     26 N37         1.5980   -3.8130    5.6700 n3        1 PR1     -0.990800
     27 S38         2.6050   -5.1700    7.2880 s4        1 PR1      1.717100
     28 O39         2.6280   -6.2320    6.4410 o         1 PR1     -0.440400
     29 O40         3.6720   -4.3440    7.4540 o         1 PR1     -0.440400
     30 O41         0.7990   -1.0690    4.9010 o         1 PR1     -0.625500
     31 H11        -1.0380   -0.0790   -1.7030 ha        1 PR1      0.146000
     32 H21         1.1860   -1.1640   -1.8890 ha        1 PR1      0.171000
     33 H51        -0.1990    0.9420    2.4410 ha        1 PR1      0.162000
     34 H111       -3.0260    0.0340    1.8160 hn        1 PR1      0.488400
     35 H121       -1.9750    2.1000   -1.3270 hn        1 PR1      0.472467
     36 H122       -1.5580    3.0780   -0.0370 hn        1 PR1      0.472467
     37 H131        3.3300    0.2350    2.1610 h1        1 PR1      0.083200
     38 H132        1.9580    0.7130    3.2890 h1        1 PR1      0.083200
     39 H441        3.1470   -1.6140   -0.7780 ho        1 PR1      0.452000
     40 H191       -3.2000   -6.9600   10.9150 h4        1 PR1      0.065100
     41 H251        0.3150   -6.8550    7.5570 ha        1 PR1      0.208000
     42 H301        3.0930   -2.3910    6.0140 h1        1 PR1      0.122700
     43 H311        4.5290   -3.4860    4.5320 hc        1 PR1      0.084700
     44 H312        3.1950   -4.2850    3.6020 hc        1 PR1      0.084700
     45 H321        4.5590   -1.6500    3.0820 h1        1 PR1      0.076700
     46 H322        3.4930   -2.6280    1.9720 h1        1 PR1      0.076700
     47 H371        0.7920   -3.3370    6.0530 hn        1 PR1      0.410300
     48 H171       -0.5730   -3.6630   12.0360 ha        1 PR1      0.174000
     49 H123       -3.1720    2.7460   -0.3440 hn        1 PR1      0.472467
     50 H372        1.2850   -4.4340    4.9390 hn        1 PR1      0.410300
     51 H181       -2.6110   -5.0850   12.4900 ha        1 PR1      0.185000
@<TRIPOS>BOND
     1    1    2 ar  
     2    1    6 ar  
     3    1   31 1   
     4    2    3 ar  
     5    2   32 1   
     6    3    4 ar  
     7    3   11 1   
     8    4    5 ar  
     9    4   10 1   
    10    5    6 ar  
    11    5   33 1   
    12    6    7 1   
    13    7    8 2   
    14    7    9 1   
    15    8   34 1   
    16    9   35 1   
    17    9   36 1   
    18    9   49 1   
    19   10   21 1   
    20   10   37 1   
    21   10   38 1   
    22   11   39 1   
    23   12   13 ar  
    24   12   17 ar  
    25   12   20 1   
    26   13   14 ar  
    27   13   48 1   
    28   14   15 ar  
    29   14   51 1   
    30   15   16 ar  
    31   15   40 1   
    32   16   17 ar  
    33   17   18 1   
    34   18   19 2   
    35   18   41 1   
    36   19   20 1   
    37   19   27 1   
    38   21   22 1   
    39   21   25 1   
    40   22   23 1   
    41   22   30 2   
    42   23   24 1   
    43   23   26 1   
    44   23   42 1   
    45   24   25 1   
    46   24   43 1   
    47   24   44 1   
    48   25   45 1   
    49   25   46 1   
    50   26   47 1   
    51   26   50 1   
    52   27   28 1   
    53   27   29 1   
@<TRIPOS>SUBSTRUCTURE
     1 PR1         1 TEMP              0 ****  ****    0 ROOT
