@<TRIPOS>MOLECULE
PR1
   51    53     1     0     0
SMALL
bcc


@<TRIPOS>ATOM
      1 C1         -0.3530   -0.0820   -0.8440 ca        1 PR1     -0.048000
      2 C2          0.8960   -0.6790   -0.9410 ca        1 PR1     -0.204000
      3 C3          1.7510   -0.6890    0.1780 ca        1 PR1      0.200100
      4 C4          1.3530   -0.1000    1.3990 ca        1 PR1     -0.133300
      5 C5          0.0910    0.4840    1.4810 ca        1 PR1     -0.032000
      6 C6         -0.7560    0.5060    0.3640 ca        1 PR1     -0.309900
      7 C10        -2.0960    1.1070    0.4910 ce        1 PR1      0.595800
      8 N11        -3.1070    0.7860    1.2010 n2        1 PR1     -0.705100
      9 N12        -2.2530    2.3260   -0.3840 n4        1 PR1     -0.824600
     10 C13         2.2950   -0.0430    2.5720 c3        1 PR1      0.161300
     11 O44         2.9920   -1.2580    0.1440 oh        1 PR1     -0.481100
     12 C16        -0.0670   -4.7980   10.2190 ca        1 PR1     -0.173400
     13 C17        -0.8670   -4.5150   11.3570 ca        1 PR1     -0.095000
     14 C18        -1.9650   -5.3030   11.5960 ca        1 PR1     -0.146300
     15 C19        -2.2810   -6.3830   10.6910 ca        1 PR1      0.426200
     16 N20        -1.5760   -6.6870    9.6200 nb        1 PR1     -0.590000
     17 C21        -0.4620   -5.9060    9.3760 ca        1 PR1      0.370100
     18 C25         0.4440   -6.0640    8.3100 cc        1 PR1     -0.037800
     19 C26         1.4950   -5.1000    8.3350 cd        1 PR1     -0.736700
     20 S27         1.2860   -4.0790    9.6660 ss        1 PR1      0.398500
     21 N28         2.4610   -1.2800    3.2820 n         1 PR1     -0.459800
     22 C29         1.8000   -1.6030    4.4520 c         1 PR1      0.674500
     23 C30         2.5230   -2.7910    5.1460 c3        1 PR1      0.048500
     24 C31         3.5390   -3.2800    4.0910 c3        1 PR1     -0.104400
     25 C32         3.5920   -2.1600    3.0310 c3        1 PR1      0.085000
     26 N37         1.6120   -3.7980    5.6740 n3        1 PR1     -0.990800
     27 S38         2.6290   -5.1420    7.2970 s4        1 PR1      1.717100
     28 O39         2.6720   -6.2030    6.4500 o         1 PR1     -0.440400
     29 O40         3.6830   -4.3010    7.4700 o         1 PR1     -0.440400
     30 O41         0.7770   -1.0660    4.9030 o         1 PR1     -0.625500
     31 H11        -1.0260   -0.0960   -1.7160 ha        1 PR1      0.146000
     32 H21         1.2160   -1.1450   -1.8860 ha        1 PR1      0.171000
     33 H51        -0.2350    0.9310    2.4360 ha        1 PR1      0.162000
     34 H111       -3.0430   -0.0210    1.7870 hn        1 PR1      0.488400
     35 H121       -3.2150    2.6930   -0.3690 hn        1 PR1      0.472467
     36 H122       -1.6090    3.0500   -0.0490 hn        1 PR1      0.472467
     37 H131        1.9190    0.7350    3.3000 h1        1 PR1      0.082700
     38 H132        3.3070    0.2810    2.1820 h1        1 PR1      0.082700
     39 H441        3.1760   -1.5660   -0.7600 ho        1 PR1      0.452000
     40 H191       -3.1720   -7.0150   10.8890 h4        1 PR1      0.065100
     41 H251        0.3610   -6.8590    7.5520 ha        1 PR1      0.208000
     42 H301        3.0840   -2.3540    6.0290 h1        1 PR1      0.122700
     43 H311        3.2310   -4.2440    3.6160 hc        1 PR1      0.084700
     44 H312        4.5450   -3.4260    4.5560 hc        1 PR1      0.084700
     45 H321        4.5580   -1.5870    3.1080 h1        1 PR1      0.076700
     46 H322        3.5140   -2.5800    1.9900 h1        1 PR1      0.076700
     47 H371        0.7970   -3.3350    6.0520 hn        1 PR1      0.410300
     48 H171       -0.5980   -3.6830   12.0280 ha        1 PR1      0.174000
     49 H123       -2.0000    2.0680   -1.3440 hn        1 PR1      0.472467
     50 H372        1.3140   -4.4230    4.9400 hn        1 PR1      0.410300
     51 H181       -2.6180   -5.1340   12.4680 ha        1 PR1      0.185000
@<TRIPOS>BOND
     1    1    2 ar  
     2    1    6 ar  
     3    1   31 1   
     4    2    3 ar  
     5    2   32 1   
     6    3    4 ar  
     7    3   11 1   
     8    4    5 ar  
     9    4   10 1   
    10    5    6 ar  
    11    5   33 1   
    12    6    7 1   
    13    7    8 2   
    14    7    9 1   
    15    8   34 1   
    16    9   35 1   
    17    9   36 1   
    18    9   49 1   
    19   10   21 1   
    20   10   37 1   
    21   10   38 1   
    22   11   39 1   
    23   12   13 ar  
    24   12   17 ar  
    25   12   20 1   
    26   13   14 ar  
    27   13   48 1   
    28   14   15 ar  
    29   14   51 1   
    30   15   16 ar  
    31   15   40 1   
    32   16   17 ar  
    33   17   18 1   
    34   18   19 2   
    35   18   41 1   
    36   19   20 1   
    37   19   27 1   
    38   21   22 1   
    39   21   25 1   
    40   22   23 1   
    41   22   30 2   
    42   23   24 1   
    43   23   26 1   
    44   23   42 1   
    45   24   25 1   
    46   24   43 1   
    47   24   44 1   
    48   25   45 1   
    49   25   46 1   
    50   26   47 1   
    51   26   50 1   
    52   27   28 1   
    53   27   29 1   
@<TRIPOS>SUBSTRUCTURE
     1 PR1         1 TEMP              0 ****  ****    0 ROOT
