@<TRIPOS>MOLECULE
PR1
   49    52     1     0     0
SMALL
bcc


@<TRIPOS>ATOM
      1 C1          1.3450   -0.6090    5.1930 ca        1 PR1     -0.056000
      2 C2          0.0300   -0.4500    5.6080 ca        1 PR1     -0.167000
      3 C3         -0.8200    0.4230    4.9010 ca        1 PR1      0.149100
      4 C4         -0.3490    1.1440    3.7900 ca        1 PR1     -0.209300
      5 C5          0.9800    0.9650    3.3900 ca        1 PR1     -0.059000
      6 C6          1.8240    0.0960    4.0820 ca        1 PR1     -0.235900
      7 C10         3.2480   -0.0510    3.6420 ce        1 PR1      0.641800
      8 N11         4.0540    0.9480    3.4330 n2        1 PR1     -0.832100
      9 N12         3.6860   -1.3890    3.5340 nh        1 PR1     -0.891800
     10 C13        -1.2080    2.1170    3.0320 c3        1 PR1      0.148300
     11 O44        -2.1070    0.4950    5.3780 oh        1 PR1     -0.497100
     12 C16         1.6950    0.6190   -3.8180 ca        1 PR1     -0.223400
     13 C17         2.8840    1.2600   -4.2320 ca        1 PR1     -0.063000
     14 C18         3.9500    0.4790   -4.6150 ca        1 PR1     -0.220300
     15 C19         3.8230   -0.9470   -4.5810 ca        1 PR1      0.396200
     16 N20         2.7320   -1.5950   -4.2010 nb        1 PR1     -0.612000
     17 C21         1.6670   -0.8190   -3.8210 ca        1 PR1      0.376100
     18 C25         0.3870   -1.2870   -3.3740 cc        1 PR1     -0.100800
     19 C26        -0.4700   -0.2400   -3.0570 cd        1 PR1     -0.469500
     20 S27         0.2570    1.2410   -3.3040 ss        1 PR1      0.313500
     21 N28        -2.0120    1.5560    1.9850 n         1 PR1     -0.474800
     22 C29        -1.5940    1.4640    0.6590 c         1 PR1      0.675500
     23 C30        -2.5820    0.5690   -0.1420 c3        1 PR1      0.169500
     24 C31        -3.5460    0.0160    0.9390 c3        1 PR1     -0.106400
     25 C32        -3.1170    0.6610    2.2690 c3        1 PR1      0.075000
     26 N37        -1.9190   -0.4260   -0.9230 n3        1 PR1     -0.894100
     27 S38        -2.0270   -0.5570   -2.5430 sy        1 PR1      1.545800
     28 O39        -2.3300   -1.8930   -2.8650 o         1 PR1     -0.649800
     29 O40        -2.9080    0.4280   -3.0310 o         1 PR1     -0.649800
     30 O41        -0.6160    2.0570    0.1840 o         1 PR1     -0.616500
     31 H11         2.0150   -1.2880    5.7450 ha        1 PR1      0.156000
     32 H21        -0.3640   -0.9930    6.4790 ha        1 PR1      0.157000
     33 H51         1.3530    1.5180    2.5110 ha        1 PR1      0.153000
     34 H111        3.6610    1.8410    3.6390 hn        1 PR1      0.395400
     35 H121        4.5760   -1.5110    3.1020 hn        1 PR1      0.397300
     36 H122        2.9860   -1.9990    3.1730 hn        1 PR1      0.397300
     37 H131       -1.8960    2.6530    3.7490 h1        1 PR1      0.070200
     38 H132       -0.5380    2.8950    2.5560 h1        1 PR1      0.070200
     39 H441       -2.5950    1.1570    4.8660 ho        1 PR1      0.422000
     40 H181        4.8980    0.9240   -4.9460 ha        1 PR1      0.150000
     41 H191        4.6790   -1.5760   -4.8880 h4        1 PR1      0.028100
     42 H251        0.1230   -2.3510   -3.3150 ha        1 PR1      0.191000
     43 H301       -3.1540    1.2560   -0.8390 h1        1 PR1      0.115700
     44 H311       -3.4990   -1.0970    1.0200 hc        1 PR1      0.070700
     45 H312       -4.5960    0.2990    0.6870 hc        1 PR1      0.070700
     46 H321       -2.8110   -0.1270    3.0140 h1        1 PR1      0.050200
     47 H322       -3.9630    1.2530    2.7160 h1        1 PR1      0.050200
     48 H371       -1.3720   -1.0570   -0.3880 hn        1 PR1      0.447800
     49 H171        2.9430    2.3590   -4.2420 ha        1 PR1      0.147000
@<TRIPOS>BOND
     1    1    2 ar  
     2    1    6 ar  
     3    1   31 1   
     4    2    3 ar  
     5    2   32 1   
     6    3    4 ar  
     7    3   11 1   
     8    4    5 ar  
     9    4   10 1   
    10    5    6 ar  
    11    5   33 1   
    12    6    7 1   
    13    7    8 2   
    14    7    9 1   
    15    8   34 1   
    16    9   35 1   
    17    9   36 1   
    18   10   21 1   
    19   10   37 1   
    20   10   38 1   
    21   11   39 1   
    22   12   13 ar  
    23   12   17 ar  
    24   12   20 1   
    25   13   14 ar  
    26   13   49 1   
    27   14   15 ar  
    28   14   40 1   
    29   15   16 ar  
    30   15   41 1   
    31   16   17 ar  
    32   17   18 1   
    33   18   19 2   
    34   18   42 1   
    35   19   20 1   
    36   19   27 1   
    37   21   22 1   
    38   21   25 1   
    39   22   23 1   
    40   22   30 2   
    41   23   24 1   
    42   23   26 1   
    43   23   43 1   
    44   24   25 1   
    45   24   44 1   
    46   24   45 1   
    47   25   46 1   
    48   25   47 1   
    49   26   27 1   
    50   26   48 1   
    51   27   28 2   
    52   27   29 2   
@<TRIPOS>SUBSTRUCTURE
     1 PR1         1 TEMP              0 ****  ****    0 ROOT
