@<TRIPOS>MOLECULE
PR1
   51    53     1     0     0
SMALL
bcc


@<TRIPOS>ATOM
      1 C1         -0.3370   -0.0870   -0.8490 ca        1 PR1     -0.048000
      2 C2          0.9080   -0.6950   -0.9440 ca        1 PR1     -0.204000
      3 C3          1.7630   -0.7080    0.1740 ca        1 PR1      0.200100
      4 C4          1.3700   -0.1130    1.3940 ca        1 PR1     -0.133300
      5 C5          0.1130    0.4810    1.4740 ca        1 PR1     -0.032000
      6 C6         -0.7350    0.5060    0.3570 ca        1 PR1     -0.309900
      7 C10        -2.0700    1.1190    0.4830 ce        1 PR1      0.595800
      8 N11        -3.0830    0.8070    1.1940 n2        1 PR1     -0.705100
      9 N12        -2.2180    2.3360   -0.3960 nz        1 PR1     -0.824600
     10 C13         2.3130   -0.0600    2.5660 c3        1 PR1      0.161300
     11 O44         2.9990   -1.2870    0.1410 oh        1 PR1     -0.481100
     12 C16        -0.0880   -4.7770   10.2250 ca        1 PR1     -0.173400
     13 C17        -0.8860   -4.4850   11.3620 ca        1 PR1     -0.095000
     14 C18        -1.9890   -5.2640   11.6030 ca        1 PR1     -0.146300
     15 C19        -2.3130   -6.3450   10.7010 ca        1 PR1      0.426200
     16 N20        -1.6090   -6.6570    9.6320 nb        1 PR1     -0.590000
     17 C21        -0.4900   -5.8850    9.3850 ca        1 PR1      0.370100
     18 C25         0.4150   -6.0520    8.3190 cc        1 PR1     -0.037800
     19 C26         1.4730   -5.0960    8.3420 cd        1 PR1     -0.736700
     20 S27         1.2710   -4.0700    9.6710 ss        1 PR1      0.398500
     21 N28         2.4690   -1.2960    3.2790 n         1 PR1     -0.459800
     22 C29         1.8060   -1.6110    4.4500 c         1 PR1      0.674500
     23 C30         2.5200   -2.8030    5.1470 c3        1 PR1      0.048500
     24 C31         3.5320   -3.3020    4.0940 c3        1 PR1     -0.104400
     25 C32         3.5940   -2.1860    3.0310 c3        1 PR1      0.086000
     26 N37         1.6010   -3.8010    5.6780 n8        1 PR1     -0.990800
     27 S38         2.6070   -5.1480    7.3050 s4        1 PR1      1.717100
     28 O39         2.6420   -6.2120    6.4600 o         1 PR1     -0.440400
     29 O40         3.6670   -4.3150    7.4760 o         1 PR1     -0.440400
     30 O41         0.7870   -1.0650    4.8990 o         1 PR1     -0.625500
     31 H11        -1.0100   -0.0990   -1.7210 ha        1 PR1      0.146000
     32 H21         1.2240   -1.1660   -1.8890 ha        1 PR1      0.171000
     33 H51        -0.2100    0.9330    2.4280 ha        1 PR1      0.162000
     34 H111       -3.0250    0.0010    1.7820 hn        1 PR1      0.488400
     35 H121       -3.1770    2.7090   -0.3820 hn        1 PR1      0.472467
     36 H122       -1.5690    3.0560   -0.0620 hn        1 PR1      0.472467
     37 H131        1.9420    0.7230    3.2920 h1        1 PR1      0.082700
     38 H132        3.3270    0.2550    2.1750 h1        1 PR1      0.082700
     39 H441        3.1810   -1.5990   -0.7620 ho        1 PR1      0.452000
     40 H191       -3.2080   -6.9700   10.9010 h4        1 PR1      0.065100
     41 H251        0.3260   -6.8480    7.5640 ha        1 PR1      0.208000
     42 H301        3.0830   -2.3680    6.0300 h1        1 PR1      0.122700
     43 H311        3.2160   -4.2650    3.6210 hc        1 PR1      0.084700
     44 H312        4.5370   -3.4540    4.5600 hc        1 PR1      0.084700
     45 H321        3.5120   -2.6080    1.9910 h1        1 PR1      0.076700
     46 H322        4.5640   -1.6200    3.1070 h1        1 PR1      0.076700
     47 H371        0.7890   -3.3310    6.0540 hn        1 PR1      0.410300
     48 H171       -0.6100   -3.6530   12.0300 ha        1 PR1      0.174000
     49 H123       -1.9660    2.0730   -1.3550 hn        1 PR1      0.472467
     50 H372        1.2980   -4.4260    4.9460 hn        1 PR1      0.410300
     51 H181       -2.6410   -5.0880   12.4750 ha        1 PR1      0.185000
@<TRIPOS>BOND
     1    1    2 ar  
     2    1    6 ar  
     3    1   31 1   
     4    2    3 ar  
     5    2   32 1   
     6    3    4 ar  
     7    3   11 1   
     8    4    5 ar  
     9    4   10 1   
    10    5    6 ar  
    11    5   33 1   
    12    6    7 1   
    13    7    8 2   
    14    7    9 1   
    15    8   34 1   
    16    9   35 1   
    17    9   36 1   
    18    9   49 1   
    19   10   21 1   
    20   10   37 1   
    21   10   38 1   
    22   11   39 1   
    23   12   13 ar  
    24   12   17 ar  
    25   12   20 1   
    26   13   14 ar  
    27   13   48 1   
    28   14   15 ar  
    29   14   51 1   
    30   15   16 ar  
    31   15   40 1   
    32   16   17 ar  
    33   17   18 1   
    34   18   19 2   
    35   18   41 1   
    36   19   20 1   
    37   19   27 1   
    38   21   22 1   
    39   21   25 1   
    40   22   23 1   
    41   22   30 2   
    42   23   24 1   
    43   23   26 1   
    44   23   42 1   
    45   24   25 1   
    46   24   43 1   
    47   24   44 1   
    48   25   45 1   
    49   25   46 1   
    50   26   47 1   
    51   26   50 1   
    52   27   28 1   
    53   27   29 1   
@<TRIPOS>SUBSTRUCTURE
     1 PR1         1 TEMP              0 ****  ****    0 ROOT
