@<TRIPOS>MOLECULE
PR2
   47    45     1     0     0
SMALL
bcc


@<TRIPOS>ATOM
      1 C16        -0.7660    0.8040    0.7160 c2        1 PR2     -0.387000
      2 C17         0.5180    0.4360    0.2060 c2        1 PR2     -0.195000
      3 C18         1.6990    0.7820    0.7430 c2        1 PR2     -0.050000
      4 C19         0.1400    4.1730    1.2630 c1        1 PR2      0.270000
      5 N20        -0.3350    3.1120    1.5080 n2        1 PR2     -0.377000
      6 C21        -0.9340    1.8830    1.7910 c3        1 PR2      0.086000
      7 C25        -2.4480    1.9560    2.0030 c2        1 PR2      0.095000
      8 C26        -3.1320    1.0540    1.2620 c2        1 PR2     -1.145000
      9 S27        -2.1180    0.1500    0.2700 ss        1 PR2      1.195000
     10 N28        -4.1950    3.4740   -1.9240 n4        1 PR2      0.001000
     11 C29        -3.3210    2.6690   -2.8510 c2        1 PR2      0.349000
     12 C30        -2.8770    3.3150   -4.1170 c3        1 PR2     -0.239000
     13 C31        -5.1650    5.6100   -2.7200 c2        1 PR2     -0.131000
     14 C32        -5.1600    4.2740   -2.6710 c2        1 PR2     -0.186000
     15 N37        -5.3560    1.6050    2.5560 n3        1 PR2     -0.960000
     16 S38        -4.8770    0.8720    1.2630 s6        1 PR2      2.899000
     17 O39        -5.0470   -0.5190    1.3680 o         1 PR2     -0.926500
     18 O40        -5.3180    1.4650    0.0720 o         1 PR2     -0.926500
     19 C5         -5.0600    5.1370    1.5220 c2        1 PR2      0.016000
     20 C2         -5.0110    6.5350    1.0970 c2        1 PR2     -0.513000
     21 C3         -8.5060    5.3290    6.8550 c1        1 PR2      0.297000
     22 C4         -8.6260    4.6000    5.7440 c2        1 PR2     -0.341000
     23 N5         -7.7080    4.1110    4.8620 n2        1 PR2     -0.210000
     24 C6         -6.9220    3.6840    4.0940 c1        1 PR2      0.052000
     25 C27        -4.1900    6.9520    0.1410 c1        1 PR2      0.237000
     26 C28        -3.3120    4.6050    0.1050 c2        1 PR2     -0.323000
     27 N29        -4.2850    4.2120    1.0540 n2        1 PR2     -0.249000
     28 H171        0.5020   -0.1950   -0.7070 ha        1 PR2      0.166000
     29 H181        2.6480    0.4580    0.2840 ha        1 PR2      0.148000
     30 H191        1.8040    1.3850    1.6570 ha        1 PR2      0.148000
     31 H251       -0.4840    1.4680    2.7570 h1        1 PR2      0.175000
     32 H301       -2.2360    2.6020   -4.6920 hc        1 PR2      0.138333
     33 H311       -3.7570    3.6100   -4.7410 hc        1 PR2      0.138333
     34 H312       -2.2870    4.2360   -3.8650 hc        1 PR2      0.138333
     35 H321       -4.4240    6.2470   -2.2050 ha        1 PR2      0.160000
     36 H322       -5.9420    6.1390   -3.2920 ha        1 PR2      0.160000
     37 H371       -5.5210    1.1450    3.4220 hn        1 PR2      0.280500
     38 H11        -5.9160    3.6490   -3.1840 hx        1 PR2      0.158000
     39 H12        -4.7350    2.8270   -1.3250 hn        1 PR2      0.233000
     40 H61        -5.8110    4.8630    2.2910 h4        1 PR2      0.155000
     41 H271       -2.4840    5.2300    0.5110 h4        1 PR2      0.164000
     42 H29        -2.8520    2.6860    2.7210 ha        1 PR2      0.217000
     43 O41        -3.0050    1.5430   -2.4610 o         1 PR2     -0.320000
     44 H31        -5.6960    7.2370    1.6060 ha        1 PR2      0.197000
     45 H372       -5.6170    2.5710    2.6110 hn        1 PR2      0.280500
     46 C1         -3.2000    4.2870   -1.2010 c1        1 PR2     -0.288000
     47 H41        -9.6940    4.3460    5.4950 h4        1 PR2      0.210000
@<TRIPOS>BOND
     1    1    2 1   
     2    1    6 1   
     3    1    9 1   
     4    2    3 1   
     5    2   28 1   
     6    3   29 1   
     7    3   30 1   
     8    4    5 1   
     9    5    6 1   
    10    6    7 1   
    11    6   31 1   
    12    7    8 1   
    13    7   42 1   
    14    8    9 1   
    15    8   16 1   
    16   10   11 1   
    17   10   14 1   
    18   10   39 1   
    19   10   46 1   
    20   11   12 1   
    21   11   43 1   
    22   12   32 1   
    23   12   33 1   
    24   12   34 1   
    25   13   14 1   
    26   13   35 1   
    27   13   36 1   
    28   14   38 1   
    29   15   16 1   
    30   15   37 1   
    31   15   45 1   
    32   16   17 1   
    33   16   18 1   
    34   19   20 1   
    35   19   27 1   
    36   19   40 1   
    37   20   25 1   
    38   20   44 1   
    39   21   22 1   
    40   22   23 1   
    41   22   47 1   
    42   23   24 1   
    43   26   27 1   
    44   26   41 1   
    45   26   46 1   
@<TRIPOS>SUBSTRUCTURE
     1 PR2         1 TEMP              0 ****  ****    0 ROOT
