@<TRIPOS>MOLECULE
PR2
   46    50     1     0     0
SMALL
bcc


@<TRIPOS>ATOM
      1 C16        -1.8840    0.5960    3.5160 ca        1 PR2     -0.221400
      2 C17        -3.1200    1.2170    3.8080 ca        1 PR2     -0.065000
      3 C18        -4.2040    0.4180    4.0860 ca        1 PR2     -0.219300
      4 C19        -4.0500   -1.0060    4.0700 ca        1 PR2      0.396200
      5 N20        -2.9140   -1.6350    3.8030 nb        1 PR2     -0.610000
      6 C21        -1.8310   -0.8410    3.5270 ca        1 PR2      0.377100
      7 C25        -0.5050   -1.2880    3.2120 cc        1 PR2     -0.097800
      8 C26         0.3610   -0.2260    2.9780 cd        1 PR2     -0.467500
      9 S27        -0.4120    1.2430    3.1460 ss        1 PR2      0.302500
     10 N28         2.3890    1.4790   -1.9390 n         1 PR2     -0.475800
     11 C29         1.8100    1.3900   -0.6820 c         1 PR2      0.679500
     12 C30         2.7270    0.5590    0.2600 c3        1 PR2      0.172500
     13 C31         3.8280    0.0090   -0.6840 c3        1 PR2     -0.110400
     14 C32         3.5650    0.6380   -2.0650 c3        1 PR2      0.087000
     15 N37         2.0170   -0.4330    1.0000 n3        1 PR2     -0.894100
     16 S38         1.9680   -0.5150    2.6270 sy        1 PR2      1.544800
     17 O39         2.2730   -1.8310    3.0180 o         1 PR2     -0.649300
     18 O40         2.7700    0.5110    3.1650 o         1 PR2     -0.649300
     19 C1          1.7720    2.0830   -3.0840 c3        1 PR2      0.165200
     20 C5         -1.4730    0.4410   -3.6960 ca        1 PR2     -0.169500
     21 C2         -0.8750    0.2550   -5.0040 ca        1 PR2     -0.074800
     22 C3         -1.6250   -0.3980   -5.9870 ca        1 PR2     -0.193300
     23 C4         -2.9070   -0.8290   -5.6390 ca        1 PR2      0.355200
     24 N5         -3.4780   -0.6600   -4.4150 nb        1 PR2     -0.654000
     25 C6         -2.7850   -0.0410   -3.4590 ca        1 PR2      0.397200
     26 C27         0.4400    0.8380   -4.9350 cc        1 PR2     -0.181200
     27 C28         0.5950    1.3460   -3.6420 cd        1 PR2     -0.092300
     28 N29        -0.5570    1.1010   -2.8850 na        1 PR2     -0.162400
     29 H171       -3.1980    2.3150    3.8090 ha        1 PR2      0.146000
     30 H181       -5.1880    0.8470    4.3190 ha        1 PR2      0.150000
     31 H191       -4.9210   -1.6500    4.2930 h4        1 PR2      0.029100
     32 H251       -0.2190   -2.3470    3.1840 ha        1 PR2      0.192000
     33 H301        3.1920    1.2930    0.9880 h1        1 PR2      0.115700
     34 H311        4.8350    0.3060   -0.3040 hc        1 PR2      0.071200
     35 H312        3.8020   -1.1050   -0.7600 hc        1 PR2      0.071200
     36 H321        4.4380    1.2680   -2.3900 h1        1 PR2      0.053200
     37 H322        3.3980   -0.1580   -2.8430 h1        1 PR2      0.053200
     38 H371        1.5500   -1.0990    0.4320 hn        1 PR2      0.449800
     39 H11         1.4350    3.1210   -2.7850 h1        1 PR2      0.076200
     40 H12         2.5460    2.1750   -3.9000 h1        1 PR2      0.076200
     41 H41        -3.5450   -1.3500   -6.3740 h4        1 PR2      0.019100
     42 H61        -3.2770    0.0800   -2.4800 h4        1 PR2      0.022100
     43 H271        1.1670    0.8770   -5.7400 ha        1 PR2      0.157000
     44 H29        -0.6970    1.3940   -1.9480 hn        1 PR2      0.326700
     45 O41         0.7380    1.9250   -0.3550 o         1 PR2     -0.643500
     46 H31        -1.2210   -0.5660   -6.9930 ha        1 PR2      0.143000
@<TRIPOS>BOND
     1    1    2 ar  
     2    1    6 ar  
     3    1    9 1   
     4    2    3 ar  
     5    2   29 1   
     6    3    4 ar  
     7    3   30 1   
     8    4    5 ar  
     9    4   31 1   
    10    5    6 ar  
    11    6    7 1   
    12    7    8 2   
    13    7   32 1   
    14    8    9 1   
    15    8   16 1   
    16   10   11 1   
    17   10   14 1   
    18   10   19 1   
    19   11   12 1   
    20   11   45 2   
    21   12   13 1   
    22   12   15 1   
    23   12   33 1   
    24   13   14 1   
    25   13   34 1   
    26   13   35 1   
    27   14   36 1   
    28   14   37 1   
    29   15   16 1   
    30   15   38 1   
    31   16   17 2   
    32   16   18 2   
    33   19   27 1   
    34   19   39 1   
    35   19   40 1   
    36   20   21 ar  
    37   20   25 ar  
    38   20   28 1   
    39   21   22 ar  
    40   21   26 1   
    41   22   23 ar  
    42   22   46 1   
    43   23   24 ar  
    44   23   41 1   
    45   24   25 ar  
    46   25   42 1   
    47   26   27 2   
    48   26   43 1   
    49   27   28 1   
    50   28   44 1   
@<TRIPOS>SUBSTRUCTURE
     1 PR2         1 TEMP              0 ****  ****    0 ROOT
