@<TRIPOS>MOLECULE
PR2
   47    47     1     0     0
SMALL
bcc


@<TRIPOS>ATOM
      1 C16         0.5330   -1.6600    0.6580 c2        1 PR2     -0.381000
      2 C17         1.3410   -2.7490    1.1070 c2        1 PR2     -0.197000
      3 C18         2.2970   -2.6680    2.0460 c2        1 PR2     -0.052000
      4 C19        -0.1380   -0.5050    3.9400 c1        1 PR2      0.223000
      5 N20         0.1400   -0.4530    2.7890 n2        1 PR2     -0.351000
      6 C21         0.4450   -0.3260    1.4300 c3        1 PR2      0.073000
      7 C25        -0.5180    0.5180    0.6430 c1        1 PR2     -0.070000
      8 C26        -0.9400   -0.1150   -0.5200 c2        1 PR2     -1.452000
      9 S27        -0.3250   -1.6630   -0.6540 ss        1 PR2      1.106000
     10 N28        -5.2120    4.5660   -0.8840 n2        1 PR2     -0.295000
     11 C29        -4.7950    3.2530   -0.6210 c2        1 PR2      0.273000
     12 C30        -3.2650    3.0790   -0.6700 c3        1 PR2     -0.141000
     13 C31        -7.5000    3.9610   -1.7250 c3        1 PR2     -0.262000
     14 C32        -6.3980    4.8830   -1.3160 c2        1 PR2      0.143000
     15 N37        -2.8180    1.7470   -0.2090 ny        1 PR2     -0.471000
     16 S38        -1.8730    0.7690   -1.4710 s6        1 PR2      2.887000
     17 O39        -2.8570    0.0230   -2.0960 o         1 PR2     -0.872500
     18 O40        -1.2120    1.7340   -2.2020 o         1 PR2     -0.872500
     19 C5         -5.2920    8.2040    1.3510 c2        1 PR2     -0.097000
     20 C2         -6.6600    8.4050    1.6360 c2        1 PR2     -0.045000
     21 C3         -7.1830    9.1260    2.7040 c1        1 PR2     -0.108000
     22 C4         -7.6400    9.7480    3.6210 c1        1 PR2     -0.196000
     23 N5         -3.9640    2.6590    2.4300 n1        1 PR2     -0.154000
     24 C6         -4.5770    2.9790    3.3610 c1        1 PR2     -0.105000
     25 C27        -7.4080    7.7280    0.6110 c2        1 PR2     -0.140000
     26 C28        -6.4760    7.1390   -0.2600 c2        1 PR2     -0.124000
     27 N29        -5.1890    7.4410    0.2020 na        1 PR2     -0.155000
     28 H171        1.1500   -3.7230    0.6130 ha        1 PR2      0.160000
     29 H181        2.8840   -3.5540    2.3380 ha        1 PR2      0.148000
     30 H191        2.5660   -1.7370    2.5670 ha        1 PR2      0.148000
     31 H251        1.4620    0.1910    1.3270 h1        1 PR2      0.184000
     32 H301       -2.7950    3.8740   -0.0200 hx        1 PR2      0.168000
     33 H311       -2.9150    3.2440   -1.7320 hx        1 PR2      0.168000
     34 H312       -7.9400    4.2980   -2.6970 hc        1 PR2      0.122333
     35 H321       -7.1620    2.9000   -1.8290 hc        1 PR2      0.122333
     36 H322       -8.3020    3.9940   -0.9420 hc        1 PR2      0.122333
     37 H371       -3.6520    1.2190    0.0900 hn        1 PR2      0.282000
     38 H11        -7.8480    6.4350   -1.7100 hc        1 PR2      0.127500
     39 H12        -6.1820    6.7580   -2.3580 hc        1 PR2      0.127500
     40 H61        -5.1480    3.2770    4.2200 ha        1 PR2      0.261000
     41 H271       -8.4900    7.6930    0.5250 ha        1 PR2      0.162000
     42 H29        -4.3530    7.1270   -0.2150 hn        1 PR2      0.252000
     43 O41        -5.5110    2.2910   -0.2910 o         1 PR2     -0.323000
     44 H31        -4.4120    8.5650    1.8850 h4        1 PR2      0.177000
     45 H372       -2.2320    1.8720    0.6340 hn        1 PR2      0.282000
     46 C1         -6.7510    6.3490   -1.4750 c3        1 PR2     -0.081000
     47 H41        -8.0450   10.3010    4.4290 ha        1 PR2      0.228000
@<TRIPOS>BOND
     1    1    2 1   
     2    1    6 1   
     3    1    9 1   
     4    2    3 1   
     5    2   28 1   
     6    3   29 1   
     7    3   30 1   
     8    4    5 1   
     9    5    6 1   
    10    6    7 1   
    11    6   31 1   
    12    7    8 1   
    13    8    9 1   
    14    8   16 1   
    15   10   11 1   
    16   10   14 1   
    17   11   12 1   
    18   11   43 1   
    19   12   15 1   
    20   12   32 1   
    21   12   33 1   
    22   13   14 1   
    23   13   34 1   
    24   13   35 1   
    25   13   36 1   
    26   14   46 1   
    27   15   16 1   
    28   15   37 1   
    29   15   45 1   
    30   16   17 1   
    31   16   18 1   
    32   19   20 1   
    33   19   27 1   
    34   19   44 1   
    35   20   21 1   
    36   20   25 1   
    37   21   22 1   
    38   22   47 1   
    39   23   24 1   
    40   24   40 1   
    41   25   26 1   
    42   25   41 1   
    43   26   27 1   
    44   26   46 1   
    45   27   42 1   
    46   38   46 1   
    47   39   46 1   
@<TRIPOS>SUBSTRUCTURE
     1 PR2         1 TEMP              0 ****  ****    0 ROOT
