@<TRIPOS>MOLECULE
PR3
   23    22     1     0     0
SMALL
bcc


@<TRIPOS>ATOM
      1 N          -1.8040    0.1390   -2.9490 n3        1 PR3     -0.896800
      2 CA         -0.5900    0.1850   -2.1630 c3        1 PR3      0.054500
      3 C           0.6530    0.1980   -3.0520 c         1 PR3      0.579900
      4 O           0.7870   -0.5540   -4.0150 o         1 PR3     -0.521100
      5 CB         -0.4210   -0.9460   -1.1420 c3        1 PR3     -0.068300
      6 SG          0.8790   -0.6880    0.0180 ss        1 PR3     -0.162100
      7 SD          0.3600    1.0170    1.1370 ss        1 PR3     -0.178100
      8 CE         -0.5290    0.4630    2.5580 c3        1 PR3     -0.014300
      9 CZ          0.2670   -0.4110    3.4900 c3        1 PR3     -0.083400
     10 CH         -0.5460   -0.8060    4.6970 c3        1 PR3     -0.093100
     11 H          -2.5970   -0.0390   -2.3650 hn        1 PR3      0.360300
     12 H2         -1.7450   -0.5640   -3.6600 hn        1 PR3      0.360300
     13 HA         -0.6220    1.1630   -1.5880 h1        1 PR3      0.087700
     14 HC          1.4310    0.9310   -2.7500 h4        1 PR3      0.020200
     15 HB2        -0.1210   -1.8960   -1.6600 h1        1 PR3      0.086200
     16 HB3        -1.3870   -1.1330   -0.6120 h1        1 PR3      0.086200
     17 HE2        -1.4750   -0.0510    2.2590 h1        1 PR3      0.078700
     18 HE3        -0.8050    1.4270    3.0630 h1        1 PR3      0.078700
     19 HZ2         1.1920    0.1340    3.8200 hc        1 PR3      0.057200
     20 HZ3         0.6030   -1.3330    2.9430 hc        1 PR3      0.057200
     21 HH1         0.0650   -1.4500    5.3760 hc        1 PR3      0.036700
     22 HH2        -0.8730    0.0970    5.2660 hc        1 PR3      0.036700
     23 HH3        -1.4550   -1.3780    4.3930 hc        1 PR3      0.036700
@<TRIPOS>BOND
     1    1    2 1   
     2    1   11 1   
     3    1   12 1   
     4    2    3 1   
     5    2    5 1   
     6    2   13 1   
     7    3    4 2   
     8    3   14 1   
     9    5    6 1   
    10    5   15 1   
    11    5   16 1   
    12    6    7 1   
    13    7    8 1   
    14    8    9 1   
    15    8   17 1   
    16    8   18 1   
    17    9   10 1   
    18    9   19 1   
    19    9   20 1   
    20   10   21 1   
    21   10   22 1   
    22   10   23 1   
@<TRIPOS>SUBSTRUCTURE
     1 PR3         1 TEMP              0 ****  ****    0 ROOT
