@<TRIPOS>MOLECULE
PR4
   25    25     1     0     0
SMALL
bcc


@<TRIPOS>ATOM
      1 C           2.8600   -1.0240    0.2770 c         1 PR4      0.928600
      2 N           0.5440    0.0380    0.3330 n3        1 PR4     -0.665600
      3 O           3.3820   -0.5190    1.3100 o         1 PR4     -0.859300
      4 CA          1.7400   -0.2550   -0.4920 c3        1 PR4      0.047500
      5 CB          2.3300    1.0940   -0.9810 c3        1 PR4     -0.087400
      6 CD          0.7870    1.3790    0.8730 c3        1 PR4      0.143800
      7 CG          1.6960    2.1620   -0.0970 c3        1 PR4     -0.096400
      8 CAC        -2.0030    0.1900    0.2850 c3        1 PR4      0.024100
      9 CAD        -3.1810   -0.3730   -0.5510 c         1 PR4      0.888600
     10 OAE        -3.4440   -1.6050   -0.5110 o         1 PR4     -0.853800
     11 OAF        -3.8510    0.4680   -1.2290 o         1 PR4     -0.853800
     12 OAG        -2.2020    1.5790    0.5140 oh        1 PR4     -0.649800
     13 O5          3.2520   -2.1120   -0.2400 o         1 PR4     -0.859300
     14 HA          1.4560   -0.8920   -1.3750 h1        1 PR4      0.043700
     15 HB          3.4410    1.0860   -0.8730 hc        1 PR4      0.021200
     16 HBA         2.0830    1.2660   -2.0570 hc        1 PR4      0.021200
     17 HD         -0.1650    1.9320    1.0740 h1        1 PR4      0.057200
     18 HDA         1.3410    1.2260    1.8410 h1        1 PR4      0.057200
     19 HG          2.4680    2.7360    0.4670 hc        1 PR4      0.011200
     20 HGA         1.1000    2.8860   -0.7030 hc        1 PR4      0.011200
     21 HAB        -0.6610    0.6200   -1.3560 h1        1 PR4      0.028700
     22 HABA       -0.7320   -1.1300   -0.8330 h1        1 PR4      0.028700
     23 HAC        -1.9880   -0.2830    1.3010 h1        1 PR4      0.060700
     24 HOAG       -2.7140    1.9130   -0.2390 ho        1 PR4      0.411000
     25 CAB        -0.6810   -0.0670   -0.4590 c3        1 PR4      0.139800
@<TRIPOS>BOND
     1    1    3 1   
     2    1    4 1   
     3    1   13 1   
     4    2    4 1   
     5    2    6 1   
     6    2   25 1   
     7    4    5 1   
     8    4   14 1   
     9    5    7 1   
    10    5   15 1   
    11    5   16 1   
    12    6    7 1   
    13    6   17 1   
    14    6   18 1   
    15    7   19 1   
    16    7   20 1   
    17    8    9 1   
    18    8   12 1   
    19    8   23 1   
    20    8   25 1   
    21    9   10 1   
    22    9   11 1   
    23   12   24 1   
    24   21   25 1   
    25   22   25 1   
@<TRIPOS>SUBSTRUCTURE
     1 PR4         1 TEMP              0 ****  ****    0 ROOT
