@<TRIPOS>MOLECULE
PR5
   33    35     1     0     0
SMALL
bcc


@<TRIPOS>ATOM
      1 P           6.0070    1.8000    0.3430 p5        1 PR5      1.329900
      2 OP1         7.2040    2.4390    0.9730 o         1 PR5     -0.929167
      3 OP2         6.1770    1.1030   -0.9770 o         1 PR5     -0.929167
      4 O5'         5.0040    3.1560   -0.1240 os        1 PR5     -0.550200
      5 C5'         3.8830    2.7910   -0.8110 c3        1 PR5      0.226400
      6 C4'         2.6330    2.8500    0.1010 c3        1 PR5      0.052100
      7 O4'         1.4780    3.2410   -0.6920 os        1 PR5     -0.427600
      8 C1'         0.4910    2.2330   -0.6970 c3        1 PR5      0.214800
      9 C3'         2.3110    1.5120    0.7940 c3        1 PR5      0.164100
     10 O3'         2.4520    1.6090    2.1870 oh        1 PR5     -0.639800
     11 C2'         0.8490    1.1850    0.4110 c3        1 PR5      0.094100
     12 O2'        -0.0240    1.3650    1.5050 oh        1 PR5     -0.553800
     13 N9          0.3870    1.6550   -2.0370 na        1 PR5     -0.263000
     14 C4         -0.7930    1.2550   -2.6720 ca        1 PR5      0.401800
     15 C8          1.4180    1.4900   -2.9860 cc        1 PR5      0.479700
     16 N7          0.9980    1.0080   -4.1730 nd        1 PR5     -0.588100
     17 C5         -0.3830    0.8390   -4.0310 ca        1 PR5     -0.144200
     18 C6         -1.4090    0.3760   -4.8770 ca        1 PR5      0.459200
     19 N1         -2.6840    0.3240   -4.4580 nb        1 PR5     -0.740000
     20 C2         -2.9430    0.7360   -3.1790 ca        1 PR5      0.602900
     21 N3         -2.0860    1.2020   -2.2410 nb        1 PR5     -0.688000
     22 OP3         5.0100    1.1270    1.2660 o         1 PR5     -0.929167
     23 H5'         3.6990    3.5180   -1.6590 h1        1 PR5     -0.006300
     24 H5''        3.9920    1.7520   -1.2410 h1        1 PR5     -0.006300
     25 H4'         2.7550    3.6680    0.8590 h1        1 PR5      0.085700
     26 H1'        -0.4970    2.7360   -0.4790 h2        1 PR5      0.076700
     27 H3'         2.9870    0.6950    0.4040 h1        1 PR5      0.119700
     28 HO3'        3.4180    1.4920    2.3480 ho        1 PR5      0.493000
     29 H2'         0.7750    0.1320    0.0320 h1        1 PR5      0.040700
     30 HO2'       -0.8790    1.0170    1.2220 ho        1 PR5      0.370000
     31 H8          2.4650    1.7490   -2.7210 h5        1 PR5      0.130800
     32 H6         -1.2000    0.0400   -5.9060 h4        1 PR5      0.022100
     33 H3         -4.0050    0.6800   -2.8650 h5        1 PR5      0.031100
@<TRIPOS>BOND
     1    1    2 1   
     2    1    3 1   
     3    1    4 1   
     4    1   22 1   
     5    4    5 1   
     6    5    6 1   
     7    5   23 1   
     8    5   24 1   
     9    6    7 1   
    10    6    9 1   
    11    6   25 1   
    12    7    8 1   
    13    8   11 1   
    14    8   13 1   
    15    8   26 1   
    16    9   10 1   
    17    9   11 1   
    18    9   27 1   
    19   10   28 1   
    20   11   12 1   
    21   11   29 1   
    22   12   30 1   
    23   13   14 1   
    24   13   15 1   
    25   14   17 ar  
    26   14   21 ar  
    27   15   16 2   
    28   15   31 1   
    29   16   17 1   
    30   17   18 ar  
    31   18   19 ar  
    32   18   32 1   
    33   19   20 ar  
    34   20   21 ar  
    35   20   33 1   
@<TRIPOS>SUBSTRUCTURE
     1 PR5         1 TEMP              0 ****  ****    0 ROOT
