@<TRIPOS>MOLECULE
PR6
    9     8     1     0     0
SMALL
bcc


@<TRIPOS>ATOM
      1 Cl          0.7500   -1.3270    0.1120 cl        1 PR6     -0.258600
      2 CAH         1.7300    0.1550    0.0310 c         1 PR6      0.659700
      3 OAI         1.6550    0.9440    0.9670 o         1 PR6     -0.538100
      4 CAJ         2.5100    0.2910   -1.2160 c3        1 PR6     -0.307400
      5 CAK         3.9610   -0.2830   -1.1210 c         1 PR6      0.939600
      6 OAL         4.3380   -0.8070   -0.0440 o         1 PR6     -0.814300
      7 OAM         4.6460   -0.1600   -2.1700 o         1 PR6     -0.814300
      8 HAJ         2.6070    1.3790   -1.4630 hc        1 PR6      0.067200
      9 HAJA        2.0090   -0.2340   -2.0660 hc        1 PR6      0.067200
@<TRIPOS>BOND
     1    1    2 1   
     2    2    3 2   
     3    2    4 1   
     4    4    5 1   
     5    4    8 1   
     6    4    9 1   
     7    5    6 1   
     8    5    7 1   
@<TRIPOS>SUBSTRUCTURE
     1 PR6         1 TEMP              0 ****  ****    0 ROOT
