@<TRIPOS>MOLECULE
PR6
    9     8     1     0     0
SMALL
bcc


@<TRIPOS>ATOM
      1 CL          0.7690    1.2410    0.2560 cl        1 PR6     -0.258600
      2 CAH         1.7030   -0.2460   -0.0250 c         1 PR6      0.659700
      3 OAI         1.5750   -1.1630    0.7780 o         1 PR6     -0.539100
      4 CAJ         2.5130   -0.2210   -1.2610 c3        1 PR6     -0.307400
      5 CAK         3.9810    0.2710   -1.0440 c         1 PR6      0.939600
      6 OAL         4.3400    0.6250    0.1060 o         1 PR6     -0.814800
      7 OAM         4.6960    0.2660   -2.0800 o         1 PR6     -0.814800
      8 HAJ         2.0560    0.4480   -2.0310 hc        1 PR6      0.067200
      9 HAJA        2.5760   -1.2620   -1.6700 hc        1 PR6      0.067200
@<TRIPOS>BOND
     1    1    2 1   
     2    2    3 2   
     3    2    4 1   
     4    4    5 1   
     5    4    8 1   
     6    4    9 1   
     7    5    6 1   
     8    5    7 1   
@<TRIPOS>SUBSTRUCTURE
     1 PR6         1 TEMP              0 ****  ****    0 ROOT
