@<TRIPOS>MOLECULE
PR6
    9     8     1     0     0
SMALL
bcc


@<TRIPOS>ATOM
      1 CL         -1.7440   -0.1400    1.2510 cl        1 PR6     -0.258600
      2 CAH        -0.7720   -0.1440   -0.2380 c         1 PR6      0.659700
      3 OAI        -1.1320   -0.8720   -1.1560 o         1 PR6     -0.539100
      4 CAJ         0.3670    0.7970   -0.2120 c3        1 PR6     -0.307400
      5 CAK         1.7090    0.1520    0.2660 c         1 PR6      0.939600
      6 OAL         1.7100   -1.0490    0.6300 o         1 PR6     -0.814800
      7 OAM         2.7030    0.9250    0.2400 o         1 PR6     -0.814800
      8 HAJ         0.5420    1.1790   -1.2510 hc        1 PR6      0.067200
      9 HAJA        0.1640    1.6620    0.4660 hc        1 PR6      0.067200
@<TRIPOS>BOND
     1    1    2 1   
     2    2    3 2   
     3    2    4 1   
     4    4    5 1   
     5    4    8 1   
     6    4    9 1   
     7    5    6 1   
     8    5    7 1   
@<TRIPOS>SUBSTRUCTURE
     1 PR6         1 TEMP              0 ****  ****    0 ROOT
