@<TRIPOS>MOLECULE
PR7
   25    25     1     0     0
SMALL
bcc


@<TRIPOS>ATOM
      1 C           2.8990    0.9930   -0.5390 c         1 PR7      0.929600
      2 N           0.6920   -0.2670   -0.4860 n3        1 PR7     -0.680600
      3 O           2.8800    2.2440   -0.3460 o         1 PR7     -0.859800
      4 CA          1.8860    0.1390    0.2860 c3        1 PR7      0.060500
      5 CB          2.5850   -1.1270    0.8300 c3        1 PR7     -0.089400
      6 CD          0.6740   -1.7310   -0.5440 c3        1 PR7      0.136800
      7 CG          1.7140   -2.3070    0.4290 c3        1 PR7     -0.091400
      8 CAB        -0.5330    0.3050    0.0620 c3        1 PR7      0.151800
      9 CAC        -1.8320   -0.1020   -0.6670 c3        1 PR7      0.023100
     10 CAD        -2.7200   -1.0120    0.2130 c         1 PR7      0.887600
     11 OAE        -3.6560   -0.4500    0.8620 o         1 PR7     -0.856800
     12 OAF        -2.5100   -2.2580    0.2330 o         1 PR7     -0.856800
     13 OAG        -2.5450    1.0810   -1.0120 oh        1 PR7     -0.640800
     14 O5          3.7420    0.4210   -1.2870 o         1 PR7     -0.859800
     15 HA          1.5820    0.7850    1.1610 h1        1 PR7      0.022700
     16 HB          3.6040   -1.2130    0.3740 hc        1 PR7      0.031200
     17 HBA         2.7000   -1.0660    1.9400 hc        1 PR7      0.031200
     18 HD         -0.3480   -2.1530   -0.3290 h1        1 PR7      0.056200
     19 HDA         0.9570   -2.0130   -1.5960 h1        1 PR7      0.056200
     20 HG          2.3130   -3.1100   -0.0630 hc        1 PR7      0.013200
     21 HGA         1.2080   -2.7570    1.3190 hc        1 PR7      0.013200
     22 HAB        -0.6620    0.0610    1.1570 h1        1 PR7      0.027200
     23 HABA       -0.4240    1.4240   -0.0270 h1        1 PR7      0.027200
     24 HAC        -1.6160   -0.6070   -1.6460 h1        1 PR7      0.058700
     25 HOAG       -3.1540    1.2570   -0.2790 ho        1 PR7      0.408000
@<TRIPOS>BOND
     1    1    3 1   
     2    1    4 1   
     3    1   14 1   
     4    2    4 1   
     5    2    6 1   
     6    2    8 1   
     7    4    5 1   
     8    4   15 1   
     9    5    7 1   
    10    5   16 1   
    11    5   17 1   
    12    6    7 1   
    13    6   18 1   
    14    6   19 1   
    15    7   20 1   
    16    7   21 1   
    17    8    9 1   
    18    8   22 1   
    19    8   23 1   
    20    9   10 1   
    21    9   13 1   
    22    9   24 1   
    23   10   11 1   
    24   10   12 1   
    25   13   25 1   
@<TRIPOS>SUBSTRUCTURE
     1 PR7         1 TEMP              0 ****  ****    0 ROOT
