@<TRIPOS>MOLECULE
PR8
   50    53     1     0     0
SMALL
bcc


@<TRIPOS>ATOM
      1 C           3.4830   -0.2690    0.1910 c         1 PR8      0.691100
      2 N           5.2090   -1.5240   -1.0300 n3        1 PR8     -0.790200
      3 O           3.6690    0.1020    1.3580 o         1 PR8     -0.580000
      4 P           2.2630    1.9680    0.2490 p5        1 PR8      1.455800
      5 N1         -4.6380   -3.2990   -0.4060 nb        1 PR8     -0.798000
      6 C2         -5.1320   -2.1400   -0.9220 ca        1 PR8      0.658900
      7 N3         -4.6330   -0.8840   -0.8860 nb        1 PR8     -0.721000
      8 C4         -3.4400   -0.8080   -0.2220 ca        1 PR8      0.449800
      9 C5         -2.7900   -1.9630    0.3920 ca        1 PR8     -0.212200
     10 C6         -3.4550   -3.2250    0.2860 ca        1 PR8      0.718200
     11 N6         -2.9340   -4.3380    0.9290 nh        1 PR8     -0.940500
     12 N7         -1.5810   -1.5690    0.9880 nc        1 PR8     -0.575100
     13 C8         -1.4850   -0.2510    0.7620 cd        1 PR8      0.438700
     14 N9         -2.5960    0.2810    0.0510 na        1 PR8     -0.280000
     15 CA          3.8580   -1.5860   -0.4620 c3        1 PR8      0.120500
     16 CB          3.8000   -2.7370    0.5690 c3        1 PR8     -0.095400
     17 CD          6.0160   -2.5840   -0.4390 c3        1 PR8      0.153800
     18 CG          5.1340   -3.4640    0.4610 c3        1 PR8     -0.098400
     19 C1'        -2.7900    1.6240   -0.4470 c3        1 PR8      0.214800
     20 O10         2.8120    0.5950   -0.5710 os        1 PR8     -0.542500
     21 O1P         1.1500    1.4970    1.1030 o         1 PR8     -0.809500
     22 C2'        -2.3740    2.7360    0.5750 c3        1 PR8      0.127100
     23 O2'        -3.4250    3.6630    0.7020 oh        1 PR8     -0.587800
     24 O2P         3.3440    2.9110    0.5380 o         1 PR8     -0.809500
     25 C3'        -1.0710    3.3170   -0.0050 c3        1 PR8      0.069100
     26 O3'        -1.2140    4.7230   -0.1030 oh        1 PR8     -0.616800
     27 C4'        -0.9040    2.6850   -1.4000 c3        1 PR8      0.075100
     28 O4'        -2.0480    1.8530   -1.6510 os        1 PR8     -0.420600
     29 C5'         0.3740    1.8410   -1.5340 c3        1 PR8      0.186400
     30 O5'         1.4760    2.5600   -1.0830 os        1 PR8     -0.570200
     31 HN          5.1660   -1.6080   -2.0270 hn        1 PR8      0.357800
     32 HN6        -3.2610   -5.2310    0.6470 hn        1 PR8      0.422800
     33 HN6A       -1.9790   -4.2740    1.1940 hn        1 PR8      0.422800
     34 HA          3.0910   -1.7640   -1.2720 h1        1 PR8      0.061700
     35 HB          3.6530   -2.3240    1.5990 hc        1 PR8      0.066200
     36 HBA         2.9440   -3.4150    0.3400 hc        1 PR8      0.066200
     37 HD          6.5260   -3.2050   -1.2240 h1        1 PR8      0.039200
     38 HDA         6.8150   -2.0850    0.1770 h1        1 PR8      0.039200
     39 HG          5.6050   -3.5940    1.4650 hc        1 PR8      0.039200
     40 HGA         5.0030   -4.4780    0.0110 hc        1 PR8      0.039200
     41 H1'        -3.8760    1.7340   -0.7430 h2        1 PR8      0.111700
     42 H2'        -2.2120    2.3310    1.6100 h1        1 PR8      0.105700
     43 HO2'       -3.3570    4.2940   -0.0280 ho        1 PR8      0.419000
     44 H3'        -0.1920    3.0420    0.6530 h1        1 PR8      0.128700
     45 HO3'       -0.3280    5.0700   -0.2650 ho        1 PR8      0.426000
     46 H4'        -0.9310    3.4750   -2.1990 h1        1 PR8      0.070700
     47 H5'         0.2560    0.8830   -0.9560 h1        1 PR8      0.036700
     48 H5'A        0.5220    1.6030   -2.6240 h1        1 PR8      0.036700
     49 H2         -6.0960   -2.2510   -1.4620 h5        1 PR8      0.037100
     50 H8         -0.6360    0.3950    1.0880 h5        1 PR8      0.157800
@<TRIPOS>BOND
     1    1    3 2   
     2    1   15 1   
     3    1   20 1   
     4    2   15 1   
     5    2   17 1   
     6    2   31 1   
     7    4   20 1   
     8    4   21 1   
     9    4   24 1   
    10    4   30 1   
    11    5    6 ar  
    12    5   10 ar  
    13    6    7 ar  
    14    6   49 1   
    15    7    8 ar  
    16    8    9 ar  
    17    8   14 1   
    18    9   10 ar  
    19    9   12 1   
    20   10   11 1   
    21   11   32 1   
    22   11   33 1   
    23   12   13 2   
    24   13   14 1   
    25   13   50 1   
    26   14   19 1   
    27   15   16 1   
    28   15   34 1   
    29   16   18 1   
    30   16   35 1   
    31   16   36 1   
    32   17   18 1   
    33   17   37 1   
    34   17   38 1   
    35   18   39 1   
    36   18   40 1   
    37   19   22 1   
    38   19   28 1   
    39   19   41 1   
    40   22   23 1   
    41   22   25 1   
    42   22   42 1   
    43   23   43 1   
    44   25   26 1   
    45   25   27 1   
    46   25   44 1   
    47   26   45 1   
    48   27   28 1   
    49   27   29 1   
    50   27   46 1   
    51   29   30 1   
    52   29   47 1   
    53   29   48 1   
@<TRIPOS>SUBSTRUCTURE
     1 PR8         1 TEMP              0 ****  ****    0 ROOT
