@<TRIPOS>MOLECULE
PR8
   51    54     1     0     0
SMALL
bcc


@<TRIPOS>ATOM
      1 C          -0.4690   -0.5780    1.8170 c         1 PR8      0.701100
      2 N          -0.5970    0.0170   -0.5400 n3        1 PR8     -0.802200
      3 O          -0.8790    0.0330    2.8080 o         1 PR8     -0.550000
      4 P          -1.6800   -2.3510    3.1640 p5        1 PR8      1.649500
      5 N1         -7.3990   -6.0570    4.6900 nb        1 PR8     -0.793000
      6 C2         -6.8160   -5.2840    3.7390 ca        1 PR8      0.694900
      7 N3         -5.9470   -5.6180    2.7530 nb        1 PR8     -0.760000
      8 C4         -5.6320   -6.9470    2.7550 ca        1 PR8      0.463800
      9 C5         -6.1720   -7.9020    3.7160 ca        1 PR8     -0.236200
     10 C6         -7.0910   -7.4000    4.6980 ca        1 PR8      0.766200
     11 N6         -7.6510   -8.2450    5.6160 nh        1 PR8     -0.959500
     12 N7         -5.6520   -9.1820    3.4660 nc        1 PR8     -0.540100
     13 C8         -4.8410   -9.0290    2.4130 cd        1 PR8      0.417700
     14 N9         -4.8030   -7.7000    1.9050 na        1 PR8     -0.285000
     15 CA          0.3110   -0.1370    0.5980 c3        1 PR8      0.138500
     16 CB          1.0190    1.2110    0.8690 c3        1 PR8     -0.097400
     17 CD         -0.5470    1.4010   -0.9980 c3        1 PR8      0.151800
     18 CG          0.5470    2.1580   -0.2270 c3        1 PR8     -0.099400
     19 C1'        -3.9150   -7.2420    0.8690 c3        1 PR8      0.220800
     20 O10        -0.7630   -1.9030    1.8920 os        1 PR8     -0.564500
     21 O1P        -0.6510   -2.2460    4.3690 oh        1 PR8     -0.743400
     22 C2'        -4.5000   -6.1160   -0.0400 c3        1 PR8      0.091100
     23 O2'        -4.3320   -6.4560   -1.3960 oh        1 PR8     -0.586800
     24 O2P        -3.0440   -1.8710    3.2480 o         1 PR8     -0.775300
     25 C3'        -3.7010   -4.8480    0.3400 c3        1 PR8      0.082100
     26 O3'        -3.0530   -4.3220   -0.8060 oh        1 PR8     -0.596800
     27 C4'        -2.5960   -5.3160    1.3070 c3        1 PR8      0.114100
     28 O4'        -2.6820   -6.7450    1.4090 os        1 PR8     -0.415600
     29 C5'        -2.7100   -4.6990    2.7060 c3        1 PR8      0.156400
     30 O5'        -1.5530   -3.9410    2.9820 os        1 PR8     -0.599200
     31 HN         -0.3620   -0.6290   -1.2670 hn        1 PR8      0.374800
     32 HN6        -0.1090   -3.0170    4.5320 ho        1 PR8      0.487000
     33 HN6A       -7.3830   -9.1970    5.6170 hn        1 PR8      0.450800
     34 HA          1.0740   -0.9490    0.4090 h1        1 PR8      0.074700
     35 HB          2.1270    1.0690    0.8350 hc        1 PR8      0.069200
     36 HBA         0.7480    1.6040    1.8810 hc        1 PR8      0.069200
     37 HD         -1.5540    1.8560   -0.7860 h1        1 PR8      0.053700
     38 HDA        -0.3670    1.4600   -2.1050 h1        1 PR8      0.053700
     39 HG          1.3900    2.4320   -0.9080 hc        1 PR8      0.055200
     40 HGA         0.1370    3.1020    0.2070 hc        1 PR8      0.055200
     41 H1'        -3.6210   -8.1460    0.2530 h2        1 PR8      0.100700
     42 H2'        -5.6070   -5.9780    0.0870 h1        1 PR8      0.121700
     43 HO2'       -3.3870   -6.3940   -1.6030 ho        1 PR8      0.419000
     44 H3'        -4.3710   -4.0770    0.8040 h1        1 PR8      0.092700
     45 HO3'       -3.7470   -3.9850   -1.3870 ho        1 PR8      0.420000
     46 H4'        -1.5740   -5.1160    0.8770 h1        1 PR8      0.109700
     47 H5'        -2.7440   -5.5310    3.4660 h1        1 PR8      0.081200
     48 H5'A       -3.6200   -4.0450    2.8090 h1        1 PR8      0.081200
     49 H8         -4.2550   -9.8270    1.9410 h5        1 PR8      0.075800
     50 H63        -8.2650   -7.9030    6.3120 hn        1 PR8      0.450800
     51 H2         -7.0930   -4.2070    3.7810 h5        1 PR8      0.059100
@<TRIPOS>BOND
     1    1    3 2   
     2    1   15 1   
     3    1   20 1   
     4    2   15 1   
     5    2   17 1   
     6    2   31 1   
     7    4   20 1   
     8    4   21 1   
     9    4   24 2   
    10    4   30 1   
    11    5    6 ar  
    12    5   10 ar  
    13    6    7 ar  
    14    6   51 1   
    15    7    8 ar  
    16    8    9 ar  
    17    8   14 1   
    18    9   10 ar  
    19    9   12 1   
    20   10   11 1   
    21   11   33 1   
    22   11   50 1   
    23   12   13 2   
    24   13   14 1   
    25   13   49 1   
    26   14   19 1   
    27   15   16 1   
    28   15   34 1   
    29   16   18 1   
    30   16   35 1   
    31   16   36 1   
    32   17   18 1   
    33   17   37 1   
    34   17   38 1   
    35   18   39 1   
    36   18   40 1   
    37   19   22 1   
    38   19   28 1   
    39   19   41 1   
    40   21   32 1   
    41   22   23 1   
    42   22   25 1   
    43   22   42 1   
    44   23   43 1   
    45   25   26 1   
    46   25   27 1   
    47   25   44 1   
    48   26   45 1   
    49   27   28 1   
    50   27   29 1   
    51   27   46 1   
    52   29   30 1   
    53   29   47 1   
    54   29   48 1   
@<TRIPOS>SUBSTRUCTURE
     1 PR8         1 TEMP              0 ****  ****    0 ROOT
