@<TRIPOS>MOLECULE
PR8
   50    44     1     0     0
SMALL
bcc


@<TRIPOS>ATOM
      1 C           2.8100    3.6430   -2.3480 c1        1 PR8      0.359000
      2 N           3.2660    4.1990   -4.4780 n3        1 PR8     -0.272000
      3 O           2.3540    4.6810   -2.0700 o         1 PR8     -0.394000
      4 P           1.1920    2.5760   -0.6930 p3        1 PR8      2.568000
      5 N1         -2.8020   -6.0890    4.7610 n1        1 PR8     -0.274000
      6 C2         -2.6670   -6.2310    3.4030 c1        1 PR8      0.004000
      7 N3         -2.5450   -5.1340    2.6100 n1        1 PR8     -0.191000
      8 C4         -2.5580   -3.8930    3.1600 c1        1 PR8      0.061000
      9 C5         -2.6910   -3.7470    4.4980 c1        1 PR8     -0.229000
     10 C6         -2.8150   -4.8680    5.3070 c1        1 PR8      0.211000
     11 N6         -3.2530   -5.1210    6.6630 n3        1 PR8     -0.344000
     12 N7         -2.6730   -2.4110    4.7780 n1        1 PR8     -0.161500
     13 C8         -2.5290   -1.7440    3.6100 c1        1 PR8     -0.025000
     14 N9         -2.4570   -2.6590    2.6100 n1        1 PR8     -0.161500
     15 CA          3.7190    3.5240   -3.4820 c3        1 PR8     -0.026000
     16 CB          5.1340    4.3250   -3.1590 c3        1 PR8     -0.173000
     17 CD          4.5440    4.8410   -5.2390 c3        1 PR8     -0.081000
     18 CG          5.3820    5.2200   -4.3180 c3        1 PR8     -0.175000
     19 C1'        -2.0000   -2.3990    1.2720 c2        1 PR8      0.123000
     20 O10         2.4590    2.5160   -1.6270 o         1 PR8     -0.982000
     21 O1P         1.5160    3.3900    0.5580 o         1 PR8     -0.982000
     22 C2'        -2.9620   -1.9600    0.5620 c3        1 PR8     -0.001000
     23 O2'        -3.6090   -3.0870   -0.1830 oh        1 PR8     -0.316000
     24 O2P         0.0650    3.2200   -1.4260 o         1 PR8     -0.982000
     25 C3'        -2.3180   -0.9780   -0.4120 c3        1 PR8      0.003000
     26 O3'        -2.2760   -1.5070   -1.6530 oh        1 PR8     -0.363000
     27 C4'        -0.8740   -0.7430    0.1240 c3        1 PR8     -0.048000
     28 O4'        -0.8840   -1.2510    1.2870 os        1 PR8     -0.276000
     29 C5'        -0.5570    0.7930    0.2100 c3        1 PR8      0.050000
     30 O5'         0.7620    1.0300   -0.2540 o         1 PR8     -0.724000
     31 HN          2.8290    3.6530   -5.0340 hn        1 PR8      0.157000
     32 H2         -2.6750   -7.1630    3.2540 ha        1 PR8      0.179000
     33 HN6        -3.8730   -4.5960    7.0370 hn        1 PR8      0.224000
     34 HN6A       -2.8460   -5.8080    7.1710 hn        1 PR8      0.224000
     35 H8         -2.4480   -0.7620    3.5060 DU        1 PR8      0.220000
     36 HA          3.7650    2.5990   -3.5770 h1        1 PR8      0.100000
     37 HB          5.8750    3.6770   -3.0650 hc        1 PR8      0.104500
     38 HBA         5.0460    4.8240   -2.3860 hc        1 PR8      0.104500
     39 HD          4.2560    5.6330   -5.7890 h1        1 PR8      0.077000
     40 HDA         4.9720    4.1520   -5.8280 h1        1 PR8      0.077000
     41 HG          6.3220    5.1150   -4.6410 hc        1 PR8      0.079000
     42 HGA         5.2150    6.1390   -4.0700 hc        1 PR8      0.079000
     43 H1'        -1.6280   -3.2290    0.8700 h4        1 PR8      0.152000
     44 H2'        -3.6000   -1.5140    1.1070 h1        1 PR8      0.125000
     45 HO2'       -4.4730   -2.9090   -0.2990 ho        1 PR8      0.227000
     46 H3'        -2.7960   -0.1700   -0.4210 h1        1 PR8      0.131000
     47 HO3'       -2.6650   -0.9290   -2.2430 ho        1 PR8      0.282000
     48 H4'        -0.1960   -1.2130   -0.4610 h1        1 PR8      0.136000
     49 H5'        -1.1820    1.2820   -0.3310 h1        1 PR8      0.063000
     50 H5'A       -0.6310    1.0850    1.1300 h1        1 PR8      0.063000
@<TRIPOS>BOND
     1    1    3 1   
     2    1   15 1   
     3    2   15 1   
     4    2   17 1   
     5    2   31 1   
     6    4   20 1   
     7    4   21 1   
     8    4   24 1   
     9    5    6 1   
    10    6   32 1   
    11    7    8 1   
    12    9   10 1   
    13   10   11 1   
    14   11   33 1   
    15   11   34 1   
    16   12   13 1   
    17   13   14 1   
    18   15   16 1   
    19   15   36 1   
    20   16   18 1   
    21   16   37 1   
    22   16   38 1   
    23   17   18 1   
    24   17   39 1   
    25   17   40 1   
    26   18   41 1   
    27   18   42 1   
    28   19   22 1   
    29   19   28 1   
    30   19   43 1   
    31   22   23 1   
    32   22   25 1   
    33   22   44 1   
    34   23   45 1   
    35   25   26 1   
    36   25   27 1   
    37   25   46 1   
    38   26   47 1   
    39   27   28 1   
    40   27   29 1   
    41   27   48 1   
    42   29   30 1   
    43   29   49 1   
    44   29   50 1   
@<TRIPOS>SUBSTRUCTURE
     1 PR8         1 TEMP              0 ****  ****    0 ROOT
