@<TRIPOS>MOLECULE
PR8
   50    53     1     0     0
SMALL
bcc


@<TRIPOS>ATOM
      1 C          -1.0790   -0.0700    0.6880 c         1 PR8      0.654100
      2 N           0.8150    0.8310   -0.6780 n3        1 PR8     -0.803200
      3 O          -1.3710    1.0210    1.2050 o         1 PR8     -0.597000
      4 P          -3.0180   -0.6940    2.2270 p5        1 PR8      1.436800
      5 N1         -6.5280   -8.8270    4.9280 nb        1 PR8     -0.802000
      6 C2         -6.1500   -9.0540    3.6410 ca        1 PR8      0.666900
      7 N3         -5.4730   -8.2650    2.7770 nb        1 PR8     -0.750000
      8 C4         -5.1260   -7.0610    3.3280 ca        1 PR8      0.429800
      9 C5         -5.4650   -6.6670    4.6910 ca        1 PR8     -0.210200
     10 C6         -6.2040   -7.6090    5.4770 ca        1 PR8      0.736200
     11 N6         -6.6230   -7.2680    6.7470 nh        1 PR8     -0.950500
     12 N7         -4.9670   -5.3820    4.9550 nc        1 PR8     -0.572100
     13 C8         -4.3560   -4.9970    3.8230 cd        1 PR8      0.459700
     14 N9         -4.4220   -5.9730    2.7960 na        1 PR8     -0.288000
     15 CA          0.0350   -0.3520   -0.3010 c3        1 PR8      0.112500
     16 CB          0.9930   -1.4210    0.2720 c3        1 PR8     -0.081400
     17 CD          2.1930    0.6450   -0.2340 c3        1 PR8      0.151800
     18 CG          2.3390   -0.7300    0.4370 c3        1 PR8     -0.096400
     19 C1'        -3.8150   -5.9450    1.4820 c3        1 PR8      0.225800
     20 O10        -1.8470   -1.0910    1.0500 os        1 PR8     -0.532500
     21 O1P        -2.3410   -0.4180    3.4960 o         1 PR8     -0.792000
     22 C2'        -4.8530   -5.8310    0.3140 c3        1 PR8      0.073100
     23 O2'        -4.7990   -6.9660   -0.5230 oh        1 PR8     -0.605800
     24 O2P        -4.1000   -0.0030    1.5130 o         1 PR8     -0.792000
     25 C3'        -4.4000   -4.5870   -0.4860 c3        1 PR8      0.123100
     26 O3'        -3.6590   -4.8990   -1.6480 oh        1 PR8     -0.587800
     27 C4'        -3.4640   -3.8420    0.4890 c3        1 PR8      0.102100
     28 O4'        -2.9200   -4.8450    1.3690 os        1 PR8     -0.376600
     29 C5'        -4.2530   -2.7760    1.2650 c3        1 PR8      0.167400
     30 O5'        -3.5100   -2.2790    2.3260 os        1 PR8     -0.560200
     31 HN          0.4130    1.6570   -0.2690 hn        1 PR8      0.379800
     32 HN6        -6.2090   -6.4650    7.1560 hn        1 PR8      0.433800
     33 HN6A       -6.9620   -7.9780    7.3490 hn        1 PR8      0.433800
     34 HA         -0.4580   -0.7380   -1.2410 h1        1 PR8      0.086700
     35 HB          0.6060   -1.8170    1.2440 hc        1 PR8      0.064200
     36 HBA         1.0670   -2.2780   -0.4410 hc        1 PR8      0.064200
     37 HD          2.8450    0.7010   -1.1490 h1        1 PR8      0.032200
     38 HDA         2.5240    1.4580    0.4670 h1        1 PR8      0.032200
     39 HG          2.5950   -0.6110    1.5180 hc        1 PR8      0.041700
     40 HGA         3.1570   -1.3180   -0.0450 hc        1 PR8      0.041700
     41 H1'        -3.1860   -6.8790    1.3660 h2        1 PR8      0.092700
     42 H2'        -5.8990   -5.6880    0.6960 h1        1 PR8      0.064700
     43 HO2'       -5.0460   -7.7250    0.0220 ho        1 PR8      0.429000
     44 H3'        -5.2880   -3.9610   -0.7710 h1        1 PR8      0.059700
     45 HO3'       -4.1140   -5.6260   -2.0940 ho        1 PR8      0.415000
     46 H4'        -2.5640   -3.4000   -0.0160 h1        1 PR8      0.122700
     47 H5'        -4.5450   -1.9490    0.5570 h1        1 PR8      0.041700
     48 H5'A       -5.1830   -3.2580    1.6860 h1        1 PR8      0.041700
     49 H2         -6.4470  -10.0480    3.2440 h5        1 PR8      0.038100
     50 H8         -3.8450   -4.0260    3.6390 h5        1 PR8      0.145800
@<TRIPOS>BOND
     1    1    3 2   
     2    1   15 1   
     3    1   20 1   
     4    2   15 1   
     5    2   17 1   
     6    2   31 1   
     7    4   20 1   
     8    4   21 1   
     9    4   24 1   
    10    4   30 1   
    11    5    6 ar  
    12    5   10 ar  
    13    6    7 ar  
    14    6   49 1   
    15    7    8 ar  
    16    8    9 ar  
    17    8   14 1   
    18    9   10 ar  
    19    9   12 1   
    20   10   11 1   
    21   11   32 1   
    22   11   33 1   
    23   12   13 2   
    24   13   14 1   
    25   13   50 1   
    26   14   19 1   
    27   15   16 1   
    28   15   34 1   
    29   16   18 1   
    30   16   35 1   
    31   16   36 1   
    32   17   18 1   
    33   17   37 1   
    34   17   38 1   
    35   18   39 1   
    36   18   40 1   
    37   19   22 1   
    38   19   28 1   
    39   19   41 1   
    40   22   23 1   
    41   22   25 1   
    42   22   42 1   
    43   23   43 1   
    44   25   26 1   
    45   25   27 1   
    46   25   44 1   
    47   26   45 1   
    48   27   28 1   
    49   27   29 1   
    50   27   46 1   
    51   29   30 1   
    52   29   47 1   
    53   29   48 1   
@<TRIPOS>SUBSTRUCTURE
     1 PR8         1 TEMP              0 ****  ****    0 ROOT
