@<TRIPOS>MOLECULE
PR8
   50    53     1     0     0
SMALL
bcc


@<TRIPOS>ATOM
      1 C          -1.1250   -1.1190    0.7410 c         1 PR8      0.692100
      2 N           1.3040   -0.7560    0.6050 n7        1 PR8     -0.789200
      3 O          -1.8830   -0.1710    0.9890 o         1 PR8     -0.580000
      4 P          -3.1930   -1.7070   -0.6280 p5        1 PR8      1.456800
      5 N1         -3.8170   -7.8960    5.5130 nb        1 PR8     -0.799000
      6 C2         -4.4960   -8.4660    4.4800 ca        1 PR8      0.658900
      7 N3         -4.9250   -7.9320    3.3140 nb        1 PR8     -0.722000
      8 C4         -4.6050   -6.6080    3.1900 ca        1 PR8      0.449800
      9 C5         -3.8780   -5.8610    4.2120 ca        1 PR8     -0.213200
     10 C6         -3.4770   -6.5720    5.3860 ca        1 PR8      0.719200
     11 N6         -2.7080   -5.9390    6.3510 nv        1 PR8     -0.941500
     12 N7         -3.7230   -4.5260    3.8070 nc        1 PR8     -0.575100
     13 C8         -4.3150   -4.4460    2.6060 cd        1 PR8      0.438700
     14 N9         -4.8900   -5.6750    2.1800 na        1 PR8     -0.279000
     15 CA          0.2320   -1.4380    1.3390 c3        1 PR8      0.119500
     16 CB          0.2830   -1.0030    2.8220 c3        1 PR8     -0.095400
     17 CD          2.0420    0.0900    1.5340 c3        1 PR8      0.153800
     18 CG          1.5360   -0.1490    2.9660 c3        1 PR8     -0.098400
     19 C1'        -5.5240   -5.9840    0.9190 c3        1 PR8      0.214800
     20 O10        -1.6030   -2.0020   -0.1370 os        1 PR8     -0.542500
     21 O1P        -4.0340   -2.0400    0.5430 o         1 PR8     -0.810500
     22 C2'        -6.5140   -4.8740    0.4270 c3        1 PR8      0.127100
     23 O2'        -7.7470   -5.4670    0.1000 oh        1 PR8     -0.587800
     24 O2P        -3.2860   -0.5940   -1.5730 o         1 PR8     -0.810500
     25 C3'        -5.7850   -4.2100   -0.7560 c3        1 PR8      0.069100
     26 O3'        -6.6540   -4.2180   -1.8760 oh        1 PR8     -0.616800
     27 C4'        -4.5360   -5.0700   -1.0260 c3        1 PR8      0.076100
     28 O4'        -4.5600   -6.1860   -0.1220 os        1 PR8     -0.419600
     29 C5'        -3.2190   -4.2990   -0.8430 c3        1 PR8      0.186400
     30 O5'        -3.2650   -3.0920   -1.5340 os        1 PR8     -0.571200
     31 HN          1.9020   -1.4300    0.1700 hn        1 PR8      0.356800
     32 HN6        -2.7030   -4.9470    6.3160 hn        1 PR8      0.423300
     33 HN6A       -2.6510   -6.3570    7.2480 hn        1 PR8      0.423300
     34 HA          0.3510   -2.5600    1.2690 h1        1 PR8      0.063700
     35 HB         -0.6330   -0.4140    3.0830 hc        1 PR8      0.066700
     36 HBA         0.3200   -1.9010    3.4840 hc        1 PR8      0.066700
     37 HD          1.8490    1.1570    1.2330 h1        1 PR8      0.039200
     38 HDA         3.1490   -0.0900    1.4700 h1        1 PR8      0.039200
     39 HG          1.3070    0.8210    3.4680 hc        1 PR8      0.039700
     40 HGA         2.3110   -0.6750    3.5740 hc        1 PR8      0.039700
     41 H1'        -6.0540   -6.9780    1.0280 h2        1 PR8      0.111700
     42 H2'        -6.7520   -4.1240    1.2290 h1        1 PR8      0.105700
     43 HO2'       -7.6820   -5.8190   -0.7980 ho        1 PR8      0.419000
     44 H3'        -5.4790   -3.1550   -0.4860 h1        1 PR8      0.129700
     45 HO3'       -6.2570   -3.6220   -2.5230 ho        1 PR8      0.426000
     46 H4'        -4.5800   -5.5210   -2.0550 h1        1 PR8      0.069700
     47 H5'        -2.3860   -4.9250   -1.2690 h1        1 PR8      0.037200
     48 H5'A       -3.0310   -4.1270    0.2530 h1        1 PR8      0.037200
     49 H2         -4.7370   -9.5410    4.6240 h5        1 PR8      0.037100
     50 H8         -4.3740   -3.5240    1.9810 h5        1 PR8      0.157800
@<TRIPOS>BOND
     1    1    3 2   
     2    1   15 1   
     3    1   20 1   
     4    2   15 1   
     5    2   17 1   
     6    2   31 1   
     7    4   20 1   
     8    4   21 1   
     9    4   24 1   
    10    4   30 1   
    11    5    6 ar  
    12    5   10 ar  
    13    6    7 ar  
    14    6   49 1   
    15    7    8 ar  
    16    8    9 ar  
    17    8   14 1   
    18    9   10 ar  
    19    9   12 1   
    20   10   11 1   
    21   11   32 1   
    22   11   33 1   
    23   12   13 2   
    24   13   14 1   
    25   13   50 1   
    26   14   19 1   
    27   15   16 1   
    28   15   34 1   
    29   16   18 1   
    30   16   35 1   
    31   16   36 1   
    32   17   18 1   
    33   17   37 1   
    34   17   38 1   
    35   18   39 1   
    36   18   40 1   
    37   19   22 1   
    38   19   28 1   
    39   19   41 1   
    40   22   23 1   
    41   22   25 1   
    42   22   42 1   
    43   23   43 1   
    44   25   26 1   
    45   25   27 1   
    46   25   44 1   
    47   26   45 1   
    48   27   28 1   
    49   27   29 1   
    50   27   46 1   
    51   29   30 1   
    52   29   47 1   
    53   29   48 1   
@<TRIPOS>SUBSTRUCTURE
     1 PR8         1 TEMP              0 ****  ****    0 ROOT
