@<TRIPOS>MOLECULE
PR9
   18    18     1     0     0
SMALL
bcc


@<TRIPOS>ATOM
      1 O           1.5850   -1.2820   -0.5650 o         1 PR9     -0.616100
      2 C           1.3860   -0.2030    0.0300 c         1 PR9      0.641100
      3 CA          0.0250    0.1610    0.6440 c3        1 PR9      0.096500
      4 NXT         2.3970    0.7160    0.1500 n         1 PR9     -0.674000
      5 N          -0.9030   -0.9670    0.7470 n3        1 PR9     -0.792200
      6 CD         -2.1490   -0.6100    0.0760 c3        1 PR9      0.148800
      7 CG         -2.0190    0.7840   -0.5570 c3        1 PR9     -0.096400
      8 CB         -0.6340    1.2920   -0.1780 c3        1 PR9     -0.092400
      9 H          -0.4990   -1.7960    0.3450 hn        1 PR9      0.382800
     10 HA          0.2020    0.5120    1.7040 h1        1 PR9      0.076700
     11 HD1C       -2.4360   -1.3690   -0.7010 h1        1 PR9      0.047200
     12 HD2C       -2.9550   -0.6040    0.8610 h1        1 PR9      0.047200
     13 HB1C       -0.7020    2.2200    0.4410 hc        1 PR9      0.051700
     14 HB2C       -0.0350    1.5310   -1.0900 hc        1 PR9      0.051700
     15 HG1C       -2.1300    0.7220   -1.6670 hc        1 PR9      0.050700
     16 HG2C       -2.8160    1.4640   -0.1720 hc        1 PR9      0.050700
     17 HXT1        3.2920    0.5120   -0.2200 hn        1 PR9      0.312500
     18 HXT2        2.2600    1.5640    0.6330 hn        1 PR9      0.312500
@<TRIPOS>BOND
     1    1    2 2   
     2    2    3 1   
     3    2    4 1   
     4    3    5 1   
     5    3    8 1   
     6    3   10 1   
     7    4   17 1   
     8    4   18 1   
     9    5    6 1   
    10    5    9 1   
    11    6    7 1   
    12    6   11 1   
    13    6   12 1   
    14    7    8 1   
    15    7   15 1   
    16    7   16 1   
    17    8   13 1   
    18    8   14 1   
@<TRIPOS>SUBSTRUCTURE
     1 PR9         1 TEMP              0 ****  ****    0 ROOT
