@<TRIPOS>MOLECULE
PRA
   24    24     1     0     0
SMALL
bcc


@<TRIPOS>ATOM
      1 C1         -3.1720    0.0010   -0.3300 c3        1 PRA      0.098800
      2 C2         -1.7510   -0.0010    0.2180 c3        1 PRA     -0.111400
      3 C3         -0.7660    0.0020   -0.9430 c3        1 PRA     -0.022100
      4 C1'         0.6320    0.0010   -0.4340 ca        1 PRA     -0.118300
      5 C2'         1.2960   -1.2090   -0.2040 ca        1 PRA     -0.121000
      6 C3'         2.6120   -1.2090    0.2580 ca        1 PRA     -0.119000
      7 C4'         3.2710   -0.0010    0.4920 ca        1 PRA     -0.107000
      8 C5'         2.6130    1.2070    0.2610 ca        1 PRA     -0.119000
      9 C6'         1.2980    1.2100   -0.2010 ca        1 PRA     -0.121000
     10 N          -4.2010   -0.0020    0.7540 n4        1 PRA     -0.839600
     11 H11        -3.3440   -0.9150   -0.9670 hx        1 PRA      0.112700
     12 H12        -3.3440    0.9200   -0.9630 hx        1 PRA      0.112700
     13 H21        -1.5720    0.9060    0.8550 hc        1 PRA      0.073700
     14 H22        -1.5710   -0.9100    0.8510 hc        1 PRA      0.073700
     15 H31        -0.9400   -0.9020   -1.5850 hc        1 PRA      0.060700
     16 H32        -0.9400    0.9100   -1.5810 hc        1 PRA      0.060700
     17 H2'         0.7860   -2.1640   -0.3990 ha        1 PRA      0.129000
     18 H3'         3.1320   -2.1630    0.4320 ha        1 PRA      0.147000
     19 H4'         4.3110   -0.0020    0.8530 ha        1 PRA      0.149000
     20 H5'         3.1340    2.1600    0.4370 ha        1 PRA      0.147000
     21 H6'         0.7880    2.1650   -0.3940 ha        1 PRA      0.129000
     22 HN1        -5.1420   -0.0010    0.3480 hn        1 PRA      0.461467
     23 HN2        -4.0900    0.8290    1.3450 hn        1 PRA      0.461467
     24 HN3        -4.0900   -0.8350    1.3410 hn        1 PRA      0.461467
@<TRIPOS>BOND
     1    1    2 1   
     2    1   10 1   
     3    1   11 1   
     4    1   12 1   
     5    2    3 1   
     6    2   13 1   
     7    2   14 1   
     8    3    4 1   
     9    3   15 1   
    10    3   16 1   
    11    4    5 ar  
    12    4    9 ar  
    13    5    6 ar  
    14    5   17 1   
    15    6    7 ar  
    16    6   18 1   
    17    7    8 ar  
    18    7   19 1   
    19    8    9 ar  
    20    8   20 1   
    21    9   21 1   
    22   10   22 1   
    23   10   23 1   
    24   10   24 1   
@<TRIPOS>SUBSTRUCTURE
     1 PRA         1 TEMP              0 ****  ****    0 ROOT
