@<TRIPOS>MOLECULE
PRA
   24    24     1     0     0
SMALL
bcc


@<TRIPOS>ATOM
      1 C1          0.0210    0.0010   -0.0090 c3        1 PRA      0.098800
      2 C2          1.5440    0.0000   -0.0250 c3        1 PRA     -0.111400
      3 C3          2.0600    0.0010    1.4070 c3        1 PRA     -0.022100
      4 C1'         3.5480    0.0010    1.4200 ca        1 PRA     -0.118300
      5 C2'         4.2520    1.2100    1.4380 ca        1 PRA     -0.121000
      6 C3'         5.6460    1.2080    1.4660 ca        1 PRA     -0.119000
      7 C4'         6.3440    0.0000    1.4770 ca        1 PRA     -0.107000
      8 C5'         5.6450   -1.2080    1.4630 ca        1 PRA     -0.119000
      9 C6'         4.2520   -1.2090    1.4350 ca        1 PRA     -0.121000
     10 N          -0.5640   -0.0000   -1.3840 n4        1 PRA     -0.839600
     11 H11        -0.3610    0.9190    0.5250 hx        1 PRA      0.112700
     12 H12        -0.3620   -0.9160    0.5260 hx        1 PRA      0.112700
     13 H21         1.9340   -0.9080   -0.5560 hc        1 PRA      0.073700
     14 H22         1.9350    0.9080   -0.5570 hc        1 PRA      0.073700
     15 H31         1.6730   -0.9050    1.9470 hc        1 PRA      0.060700
     16 H32         1.6730    0.9070    1.9460 hc        1 PRA      0.060700
     17 H2'         3.7060    2.1650    1.4420 ha        1 PRA      0.129000
     18 H3'         6.1950    2.1620    1.4850 ha        1 PRA      0.147000
     19 H4'         7.4450    0.0000    1.5030 ha        1 PRA      0.149000
     20 H5'         6.1940   -2.1620    1.4800 ha        1 PRA      0.147000
     21 H6'         3.7060   -2.1640    1.4370 ha        1 PRA      0.129000
     22 HN1        -0.2530    0.8310   -1.8980 hn        1 PRA      0.461467
     23 HN2        -1.5870    0.0010   -1.3330 hn        1 PRA      0.461467
     24 HN3        -0.2540   -0.8330   -1.8970 hn        1 PRA      0.461467
@<TRIPOS>BOND
     1    1    2 1   
     2    1   10 1   
     3    1   11 1   
     4    1   12 1   
     5    2    3 1   
     6    2   13 1   
     7    2   14 1   
     8    3    4 1   
     9    3   15 1   
    10    3   16 1   
    11    4    5 ar  
    12    4    9 ar  
    13    5    6 ar  
    14    5   17 1   
    15    6    7 ar  
    16    6   18 1   
    17    7    8 ar  
    18    7   19 1   
    19    8    9 ar  
    20    8   20 1   
    21    9   21 1   
    22   10   22 1   
    23   10   23 1   
    24   10   24 1   
@<TRIPOS>SUBSTRUCTURE
     1 PRA         1 TEMP              0 ****  ****    0 ROOT
