@<TRIPOS>MOLECULE
PRB
   59    62     1     0     0
SMALL
bcc


@<TRIPOS>ATOM
      1 C1          0.1120    0.0150   -0.0750 c2        1 PRB     -0.073200
      2 C2          1.4660    0.0250   -0.0660 ce        1 PRB     -0.217400
      3 C3          1.9680    0.0040    1.3290 c         1 PRB      0.544300
      4 O3          3.1270    0.0760    1.7270 o         1 PRB     -0.518100
      5 C4          0.7340   -0.1730    2.2560 c3        1 PRB      0.060800
      6 O4          0.7220   -1.5260    2.6950 oh        1 PRB     -0.581800
      7 C5          0.7570    0.7790    3.4530 c3        1 PRB     -0.061200
      8 C6         -0.5590    1.3660    3.8330 c2        1 PRB     -0.133400
      9 C7         -1.7590    0.7810    3.6920 c2        1 PRB     -0.138200
     10 C8         -1.9910   -0.5870    3.1510 c3        1 PRB     -0.053500
     11 C9         -1.7590   -0.6820    1.6130 c3        1 PRB      0.200800
     12 O9         -2.8030   -0.0520    0.8700 oh        1 PRB     -0.595800
     13 C10        -0.4670    0.0920    1.3070 c3        1 PRB     -0.060500
     14 C11        -1.7700   -2.1690    1.2170 c3        1 PRB     -0.044700
     15 C12        -3.1220   -2.8500    1.5300 c3        1 PRB      0.183100
     16 O12        -2.7930   -4.2090    1.7820 oh        1 PRB     -0.609800
     17 C13        -3.9160   -2.2370    2.6690 cx        1 PRB      0.070800
     18 C14        -3.3670   -1.0860    3.4840 cx        1 PRB     -0.092700
     19 C15        -3.6000   -2.4320    4.1470 cx        1 PRB     -0.080000
     20 C16        -4.7430   -2.5050    5.1140 c3        1 PRB     -0.072600
     21 C17        -2.4590   -3.3080    4.5510 c3        1 PRB     -0.072600
     22 C18        -1.4680   -2.4050   -0.2490 c3        1 PRB     -0.091100
     23 C19         2.3800    0.0300   -1.2130 c3        1 PRB     -0.040900
     24 C20        -0.4180    2.7310    4.4380 c3        1 PRB      0.167600
     25 O20        -1.6920    3.2220    4.8290 oh        1 PRB     -0.601800
     26 OA1        -5.2760   -2.0050    2.3240 os        1 PRB     -0.408900
     27 CA1        -6.0990   -3.0590    2.0430 c         1 PRB      0.644100
     28 OA2        -5.6570   -4.2100    2.0790 o         1 PRB     -0.556000
     29 CA2        -7.4850   -2.6220    1.7130 c3        1 PRB     -0.151100
     30 H1         -0.5460    0.0230   -0.9480 ha        1 PRB      0.163000
     31 HO4         1.5700   -1.6810    3.1340 ho        1 PRB      0.415000
     32 H51         1.4840    1.6070    3.2260 hc        1 PRB      0.065200
     33 H52         1.1630    0.2230    4.3440 hc        1 PRB      0.065200
     34 H7         -2.6620    1.3250    4.0270 ha        1 PRB      0.148000
     35 H8         -1.2320   -1.2760    3.6340 hc        1 PRB      0.104700
     36 HO9        -3.1090    0.7010    1.3890 ho        1 PRB      0.406000
     37 H10        -0.7450    1.1870    1.4300 hc        1 PRB      0.080700
     38 H11        -0.9720   -2.6820    1.8300 hc        1 PRB      0.095700
     39 H12        -3.7800   -2.7940    0.6110 h1        1 PRB      0.052700
     40 HO12       -3.6110   -4.6660    2.0210 ho        1 PRB      0.430000
     41 H14        -4.0840   -0.2810    3.7530 hc        1 PRB      0.093700
     42 H161       -4.4000   -2.1860    6.1290 hc        1 PRB      0.046867
     43 H162       -5.1230   -3.5540    5.1780 hc        1 PRB      0.046867
     44 H163       -5.5840   -1.8420    4.7950 hc        1 PRB      0.046867
     45 H171       -1.9750   -2.9000    5.4720 hc        1 PRB      0.046867
     46 H172       -1.6930   -3.3860    3.7400 hc        1 PRB      0.046867
     47 H173       -2.8330   -4.3390    4.7670 hc        1 PRB      0.046867
     48 H181       -2.0600   -1.7090   -0.8910 hc        1 PRB      0.043367
     49 H182       -1.7330   -3.4580   -0.5190 hc        1 PRB      0.043367
     50 H183       -0.3800   -2.2660   -0.4550 hc        1 PRB      0.043367
     51 H191        1.8710    0.4110   -2.1330 hc        1 PRB      0.050700
     52 H192        2.7480   -1.0080   -1.4180 hc        1 PRB      0.050700
     53 H193        3.2690    0.6750   -0.9970 hc        1 PRB      0.050700
     54 H201        0.0360    3.4330    3.6840 h1        1 PRB      0.031700
     55 H202        0.2610    2.6720    5.3340 h1        1 PRB      0.031700
     56 HO20       -1.5310    4.0620    5.2740 ho        1 PRB      0.405000
     57 HA21       -7.7380   -2.9770    0.6840 hc        1 PRB      0.077367
     58 HA22       -8.1930   -3.0840    2.4440 hc        1 PRB      0.077367
     59 HA23       -7.5770   -1.5100    1.7560 hc        1 PRB      0.077367
@<TRIPOS>BOND
     1    1    2 2   
     2    1   13 1   
     3    1   30 1   
     4    2    3 1   
     5    2   23 1   
     6    3    4 2   
     7    3    5 1   
     8    5    6 1   
     9    5    7 1   
    10    5   13 1   
    11    6   31 1   
    12    7    8 1   
    13    7   32 1   
    14    7   33 1   
    15    8    9 2   
    16    8   24 1   
    17    9   10 1   
    18    9   34 1   
    19   10   11 1   
    20   10   18 1   
    21   10   35 1   
    22   11   12 1   
    23   11   13 1   
    24   11   14 1   
    25   12   36 1   
    26   13   37 1   
    27   14   15 1   
    28   14   22 1   
    29   14   38 1   
    30   15   16 1   
    31   15   17 1   
    32   15   39 1   
    33   16   40 1   
    34   17   18 1   
    35   17   19 1   
    36   17   26 1   
    37   18   19 1   
    38   18   41 1   
    39   19   20 1   
    40   19   21 1   
    41   20   42 1   
    42   20   43 1   
    43   20   44 1   
    44   21   45 1   
    45   21   46 1   
    46   21   47 1   
    47   22   48 1   
    48   22   49 1   
    49   22   50 1   
    50   23   51 1   
    51   23   52 1   
    52   23   53 1   
    53   24   25 1   
    54   24   54 1   
    55   24   55 1   
    56   25   56 1   
    57   26   27 1   
    58   27   28 2   
    59   27   29 1   
    60   29   57 1   
    61   29   58 1   
    62   29   59 1   
@<TRIPOS>SUBSTRUCTURE
     1 PRB         1 TEMP              0 ****  ****    0 ROOT
