@<TRIPOS>MOLECULE
PRB
   59    62     1     0     0
SMALL
bcc


@<TRIPOS>ATOM
      1 C1          0.1110    0.0060   -0.0720 c2        1 PRB     -0.091200
      2 C2          1.4640    0.0120   -0.0650 ce        1 PRB     -0.207400
      3 C3          1.9660   -0.0100    1.3310 c         1 PRB      0.542300
      4 O3          3.1270    0.0570    1.7240 o         1 PRB     -0.515100
      5 C4          0.7320   -0.1810    2.2580 c3        1 PRB      0.064800
      6 O4          0.7170   -1.5340    2.6960 oh        1 PRB     -0.583800
      7 C5          0.7600    0.7750    3.4510 c3        1 PRB     -0.056200
      8 C6         -0.5540    1.3560    3.8460 c2        1 PRB     -0.153400
      9 C7         -1.7580    0.7790    3.7060 c2        1 PRB     -0.104200
     10 C8         -2.0010   -0.5840    3.1590 c3        1 PRB     -0.011500
     11 C9         -1.7620   -0.6820    1.6210 c3        1 PRB      0.198800
     12 O9         -2.8240    0.0320    0.9870 oh        1 PRB     -0.589800
     13 C10        -0.4680    0.0860    1.3080 c3        1 PRB     -0.067500
     14 C11        -1.7700   -2.1720    1.2420 c3        1 PRB     -0.089700
     15 C12        -3.1330   -2.8420    1.5300 c3        1 PRB      0.182100
     16 O12        -2.8250   -4.2080    1.7650 oh        1 PRB     -0.609800
     17 C13        -3.9310   -2.2260    2.6630 cx        1 PRB      0.060800
     18 C14        -3.3830   -1.0750    3.4800 cx        1 PRB     -0.069700
     19 C15        -3.6280   -2.4170    4.1460 cx        1 PRB     -0.085000
     20 C16        -4.7820   -2.4860    5.0980 c3        1 PRB     -0.073100
     21 C17        -2.4960   -3.2990    4.5640 c3        1 PRB     -0.073100
     22 C18        -1.4110   -2.4580   -0.2020 c3        1 PRB     -0.095100
     23 C19         2.3780    0.0170   -1.2130 c3        1 PRB     -0.042900
     24 C20        -0.4090    2.7190    4.4570 c3        1 PRB      0.171600
     25 O20        -1.6310    3.1070    5.0660 oh        1 PRB     -0.598800
     26 OA1        -5.2880   -1.9990    2.3040 os        1 PRB     -0.403900
     27 CA1        -6.1200   -3.0600    2.0840 c         1 PRB      0.641100
     28 OA2        -5.6810   -4.2100    2.1530 o         1 PRB     -0.558000
     29 CA2        -7.5130   -2.6310    1.7690 c3        1 PRB     -0.152100
     30 H1         -0.5400    0.0180   -0.9510 ha        1 PRB      0.149000
     31 HO4         1.5470   -1.6790    3.1720 ho        1 PRB      0.415000
     32 H51         1.1840    0.2270    4.3390 hc        1 PRB      0.062700
     33 H52         1.4760    1.6090    3.2100 hc        1 PRB      0.062700
     34 H7         -2.6570    1.3300    4.0370 ha        1 PRB      0.152000
     35 H8         -1.2470   -1.2800    3.6400 hc        1 PRB      0.094700
     36 HO9        -2.8710   -0.2800    0.0760 ho        1 PRB      0.400000
     37 H10        -0.7530    1.1790    1.4360 hc        1 PRB      0.099700
     38 H11        -0.9950   -2.6830    1.8870 hc        1 PRB      0.106700
     39 H12        -3.7780   -2.7710    0.6030 h1        1 PRB      0.040700
     40 HO12       -3.6320   -4.6400    2.0760 ho        1 PRB      0.433000
     41 H14        -4.0980   -0.2620    3.7280 hc        1 PRB      0.102700
     42 H161       -5.6020   -1.7920    4.7890 hc        1 PRB      0.046700
     43 H162       -5.1910   -3.5260    5.1280 hc        1 PRB      0.046700
     44 H163       -4.4430   -2.2050    6.1250 hc        1 PRB      0.046700
     45 H171       -1.7360   -3.4090    3.7510 hc        1 PRB      0.046700
     46 H172       -2.8820   -4.3190    4.8100 hc        1 PRB      0.046700
     47 H173       -2.0000   -2.8740    5.4710 hc        1 PRB      0.046700
     48 H181       -1.9920   -1.8200   -0.9100 hc        1 PRB      0.041367
     49 H182       -0.3200   -2.2940   -0.3750 hc        1 PRB      0.041367
     50 H183       -1.6360   -3.5300   -0.4300 hc        1 PRB      0.041367
     51 H191        3.2670    0.6620   -0.9960 hc        1 PRB      0.051367
     52 H192        2.7470   -1.0220   -1.4150 hc        1 PRB      0.051367
     53 H193        1.8700    0.3970   -2.1320 hc        1 PRB      0.051367
     54 H201        0.4080    2.7000    5.2310 h1        1 PRB      0.028200
     55 H202       -0.1320    3.4600    3.6560 h1        1 PRB      0.028200
     56 HO20       -1.4860    3.9930    5.4180 ho        1 PRB      0.403000
     57 HA21       -8.1860   -2.9610    2.5980 hc        1 PRB      0.077367
     58 HA22       -7.8360   -3.1210    0.8180 hc        1 PRB      0.077367
     59 HA23       -7.5750   -1.5210    1.6590 hc        1 PRB      0.077367
@<TRIPOS>BOND
     1    1    2 2   
     2    1   13 1   
     3    1   30 1   
     4    2    3 1   
     5    2   23 1   
     6    3    4 2   
     7    3    5 1   
     8    5    6 1   
     9    5    7 1   
    10    5   13 1   
    11    6   31 1   
    12    7    8 1   
    13    7   32 1   
    14    7   33 1   
    15    8    9 2   
    16    8   24 1   
    17    9   10 1   
    18    9   34 1   
    19   10   11 1   
    20   10   18 1   
    21   10   35 1   
    22   11   12 1   
    23   11   13 1   
    24   11   14 1   
    25   12   36 1   
    26   13   37 1   
    27   14   15 1   
    28   14   22 1   
    29   14   38 1   
    30   15   16 1   
    31   15   17 1   
    32   15   39 1   
    33   16   40 1   
    34   17   18 1   
    35   17   19 1   
    36   17   26 1   
    37   18   19 1   
    38   18   41 1   
    39   19   20 1   
    40   19   21 1   
    41   20   42 1   
    42   20   43 1   
    43   20   44 1   
    44   21   45 1   
    45   21   46 1   
    46   21   47 1   
    47   22   48 1   
    48   22   49 1   
    49   22   50 1   
    50   23   51 1   
    51   23   52 1   
    52   23   53 1   
    53   24   25 1   
    54   24   54 1   
    55   24   55 1   
    56   25   56 1   
    57   26   27 1   
    58   27   28 2   
    59   27   29 1   
    60   29   57 1   
    61   29   58 1   
    62   29   59 1   
@<TRIPOS>SUBSTRUCTURE
     1 PRB         1 TEMP              0 ****  ****    0 ROOT
