@<TRIPOS>MOLECULE
PRB
   59    62     1     0     0
SMALL
bcc


@<TRIPOS>ATOM
      1 C1          1.7450    1.2330    2.4460 c2        1 PRB     -0.091200
      2 C2          2.0310    0.6350    3.6250 ce        1 PRB     -0.207400
      3 C3          1.0440   -0.4380    3.9050 c         1 PRB      0.542300
      4 O3          0.9470   -1.1420    4.9060 o         1 PRB     -0.515100
      5 C4          0.1360   -0.5610    2.6510 c3        1 PRB      0.064800
      6 O4          0.5520   -1.7210    1.9410 oh        1 PRB     -0.583800
      7 C5         -1.3480   -0.6490    3.0120 c3        1 PRB     -0.056200
      8 C6         -2.2780    0.0830    2.1060 c2        1 PRB     -0.153400
      9 C7         -2.1020    0.3130    0.7960 c2        1 PRB     -0.104200
     10 C8         -0.9470   -0.1620   -0.0150 c3        1 PRB     -0.011500
     11 C9          0.3810    0.5870    0.3070 c3        1 PRB      0.198800
     12 O9          0.2490    1.9130   -0.2070 oh        1 PRB     -0.589800
     13 C10         0.4770    0.7150    1.8350 c3        1 PRB     -0.067500
     14 C11         1.5260   -0.1780   -0.3780 c3        1 PRB     -0.089700
     15 C12         1.3800   -0.1950   -1.9170 c3        1 PRB      0.182100
     16 O12         2.0350   -1.3850   -2.3310 oh        1 PRB     -0.609800
     17 C13        -0.0440   -0.1090   -2.4330 cx        1 PRB      0.060800
     18 C14        -1.2250   -0.0720   -1.4880 cx        1 PRB     -0.069700
     19 C15        -1.0460   -1.2580   -2.4170 cx        1 PRB     -0.085000
     20 C16        -2.0160   -1.3650   -3.5550 c3        1 PRB     -0.073100
     21 C17        -0.6310   -2.5980   -1.9010 c3        1 PRB     -0.073100
     22 C18         2.9130    0.3360   -0.0510 c3        1 PRB     -0.095100
     23 C19         3.1390    0.9200    4.5430 c3        1 PRB     -0.042900
     24 C20        -3.5040    0.5630    2.8250 c3        1 PRB      0.171600
     25 O20        -4.4750    0.9980    1.8850 oh        1 PRB     -0.598800
     26 OA1        -0.1830    0.8580   -3.4660 os        1 PRB     -0.403900
     27 CA1         0.4110    0.6470   -4.6790 c         1 PRB      0.641100
     28 OA2         1.1050   -0.3560   -4.8580 o         1 PRB     -0.558000
     29 CA2         0.1150    1.7390   -5.6500 c3        1 PRB     -0.152100
     30 H1          2.2930    2.0540    1.9780 ha        1 PRB      0.149000
     31 HO4         0.4380   -2.4700    2.5430 ho        1 PRB      0.415000
     32 H51        -1.4730   -0.2650    4.0610 hc        1 PRB      0.062700
     33 H52        -1.6490   -1.7340    3.0230 hc        1 PRB      0.062700
     34 H7         -2.8740    0.8810    0.2430 ha        1 PRB      0.152000
     35 H8         -0.7700   -1.2480    0.2550 hc        1 PRB      0.094700
     36 HO9         1.1390    2.2710   -0.3020 ho        1 PRB      0.400000
     37 H10        -0.3070    1.4960    2.1010 hc        1 PRB      0.099700
     38 H11         1.4730   -1.2480   -0.0180 hc        1 PRB      0.106700
     39 H12         1.9350    0.6920   -2.3470 h1        1 PRB      0.040700
     40 HO12        1.8570   -1.5030   -3.2740 ho        1 PRB      0.433000
     41 H14        -2.0400    0.6390   -1.7440 hc        1 PRB      0.102700
     42 H161       -2.9170   -1.9410   -3.2320 hc        1 PRB      0.046700
     43 H162       -2.3430   -0.3530   -3.9010 hc        1 PRB      0.046700
     44 H163       -1.5380   -1.8960   -4.4150 hc        1 PRB      0.046700
     45 H171       -1.4840   -3.0760   -1.3600 hc        1 PRB      0.046700
     46 H172       -0.3320   -3.2570   -2.7540 hc        1 PRB      0.046700
     47 H173        0.2420   -2.5210   -1.2070 hc        1 PRB      0.046700
     48 H181        3.6540   -0.1440   -0.7400 hc        1 PRB      0.041367
     49 H182        2.9870    1.4430   -0.1750 hc        1 PRB      0.041367
     50 H183        3.1960    0.0670    0.9950 hc        1 PRB      0.041367
     51 H191        2.7950    0.8290    5.6040 hc        1 PRB      0.051367
     52 H192        3.9690    0.1850    4.3850 hc        1 PRB      0.051367
     53 H193        3.5430    1.9490    4.3800 hc        1 PRB      0.051367
     54 H201       -3.9300   -0.2740    3.4450 h1        1 PRB      0.028200
     55 H202       -3.2290    1.4150    3.5070 h1        1 PRB      0.028200
     56 HO20       -5.2260    1.3140    2.4000 ho        1 PRB      0.403000
     57 HA21        1.0770    2.1200   -6.0720 hc        1 PRB      0.077367
     58 HA22       -0.5080    1.3210   -6.4790 hc        1 PRB      0.077367
     59 HA23       -0.4370    2.5750   -5.1580 hc        1 PRB      0.077367
@<TRIPOS>BOND
     1    1    2 2   
     2    1   13 1   
     3    1   30 1   
     4    2    3 1   
     5    2   23 1   
     6    3    4 2   
     7    3    5 1   
     8    5    6 1   
     9    5    7 1   
    10    5   13 1   
    11    6   31 1   
    12    7    8 1   
    13    7   32 1   
    14    7   33 1   
    15    8    9 2   
    16    8   24 1   
    17    9   10 1   
    18    9   34 1   
    19   10   11 1   
    20   10   18 1   
    21   10   35 1   
    22   11   12 1   
    23   11   13 1   
    24   11   14 1   
    25   12   36 1   
    26   13   37 1   
    27   14   15 1   
    28   14   22 1   
    29   14   38 1   
    30   15   16 1   
    31   15   17 1   
    32   15   39 1   
    33   16   40 1   
    34   17   18 1   
    35   17   19 1   
    36   17   26 1   
    37   18   19 1   
    38   18   41 1   
    39   19   20 1   
    40   19   21 1   
    41   20   42 1   
    42   20   43 1   
    43   20   44 1   
    44   21   45 1   
    45   21   46 1   
    46   21   47 1   
    47   22   48 1   
    48   22   49 1   
    49   22   50 1   
    50   23   51 1   
    51   23   52 1   
    52   23   53 1   
    53   24   25 1   
    54   24   54 1   
    55   24   55 1   
    56   25   56 1   
    57   26   27 1   
    58   27   28 2   
    59   27   29 1   
    60   29   57 1   
    61   29   58 1   
    62   29   59 1   
@<TRIPOS>SUBSTRUCTURE
     1 PRB         1 TEMP              0 ****  ****    0 ROOT
