@<TRIPOS>MOLECULE
PRC
   47    50     1     0     0
SMALL
bcc


@<TRIPOS>ATOM
      1 C1          0.2610   -0.2940   -7.6860 ca        1 PRC     -0.254300
      2 C2         -1.0290   -0.4250   -8.2300 ca        1 PRC      0.406200
      3 N3         -2.1550   -0.3670   -7.4900 nb        1 PRC     -0.667000
      4 C4         -2.0190   -0.1680   -6.1680 ca        1 PRC      0.416200
      5 C5         -0.7680   -0.0160   -5.5260 cp        1 PRC     -0.274800
      6 C6          0.3910   -0.0900   -6.3120 ca        1 PRC     -0.051000
      7 C7         -0.7110    0.2120   -4.0750 cp        1 PRC      0.537800
      8 N8          0.2990   -0.3460   -3.3670 nb        1 PRC     -0.749000
      9 C9          0.3050   -0.1170   -1.9960 ca        1 PRC      0.870900
     10 N10        -0.6260    0.6650   -1.3220 nb        1 PRC     -0.731000
     11 C11        -1.5960    1.2040   -2.0750 ca        1 PRC      0.461200
     12 C12        -1.7020    1.0140   -3.4630 ca        1 PRC     -0.407600
     13 N13         1.3020   -0.7960   -1.2640 nh        1 PRC     -0.705300
     14 C14         1.7090   -0.3560    0.0220 ca        1 PRC      0.149600
     15 C15         0.8000   -0.3810    1.0910 ca        1 PRC     -0.154000
     16 C16         1.2050   -0.0070    2.3940 ca        1 PRC      0.071600
     17 C17         2.5450    0.3680    2.6110 ca        1 PRC     -0.154000
     18 C18         3.4410    0.3710    1.5480 ca        1 PRC     -0.095000
     19 C19         3.0560    0.0250    0.2530 ca        1 PRC     -0.131300
     20 C20         4.0530    0.0520   -0.8430 c3        1 PRC     -0.054800
     21 N21         0.2360   -0.0150    3.4120 n         1 PRC     -0.466100
     22 C22         0.4590    0.0700    4.7790 c         1 PRC      0.685700
     23 C23        -0.7560    0.0230    5.6410 ca        1 PRC     -0.267900
     24 C25        -0.6890   -0.6540    6.8670 ca        1 PRC     -0.040000
     25 C26        -1.8200   -0.6830    7.6810 ca        1 PRC     -0.253300
     26 C27        -2.9820   -0.0210    7.2410 ca        1 PRC      0.415200
     27 N28        -3.0580    0.6480    6.0740 nb        1 PRC     -0.667000
     28 C29        -1.9610    0.6670    5.2940 ca        1 PRC      0.420200
     29 O29         1.5940    0.1660    5.2820 o         1 PRC     -0.583100
     30 HC1         1.1460   -0.3540   -8.3330 ha        1 PRC      0.147000
     31 HC2        -1.1750   -0.5870   -9.3130 h4        1 PRC      0.025100
     32 HC4        -2.9590   -0.1380   -5.5870 h4        1 PRC      0.027100
     33 HC6         1.3860    0.0110   -5.8530 ha        1 PRC      0.155000
     34 H11C       -2.3280    1.8270   -1.5280 h4        1 PRC      0.029100
     35 H12C       -2.5050    1.4780   -4.0440 ha        1 PRC      0.158000
     36 H13N        2.0500   -1.1600   -1.8230 hn        1 PRC      0.439800
     37 H15C       -0.2420   -0.6930    0.9100 ha        1 PRC      0.152000
     38 H17C        2.8970    0.6570    3.6150 ha        1 PRC      0.173000
     39 H18C        4.4860    0.6640    1.7370 ha        1 PRC      0.137000
     40 H201        4.2470   -0.9820   -1.2260 hc        1 PRC      0.045033
     41 H202        3.6930    0.6830   -1.6940 hc        1 PRC      0.045033
     42 H203        5.0250    0.4740   -0.4880 hc        1 PRC      0.045033
     43 H21N       -0.7010   -0.1740    3.1110 hn        1 PRC      0.322500
     44 H25C        0.2510   -1.1430    7.1720 ha        1 PRC      0.162000
     45 H26C       -1.8090   -1.2040    8.6470 ha        1 PRC      0.152000
     46 H27C       -3.9010   -0.0200    7.8540 h4        1 PRC      0.028100
     47 H29C       -2.0590    1.2450    4.3560 h4        1 PRC      0.028100
@<TRIPOS>BOND
     1    1    2 ar  
     2    1    6 ar  
     3    1   30 1   
     4    2    3 ar  
     5    2   31 1   
     6    3    4 ar  
     7    4    5 ar  
     8    4   32 1   
     9    5    6 ar  
    10    5    7 1   
    11    6   33 1   
    12    7    8 ar  
    13    7   12 ar  
    14    8    9 ar  
    15    9   10 ar  
    16    9   13 1   
    17   10   11 ar  
    18   11   12 ar  
    19   11   34 1   
    20   12   35 1   
    21   13   14 1   
    22   13   36 1   
    23   14   15 ar  
    24   14   19 ar  
    25   15   16 ar  
    26   15   37 1   
    27   16   17 ar  
    28   16   21 1   
    29   17   18 ar  
    30   17   38 1   
    31   18   19 ar  
    32   18   39 1   
    33   19   20 1   
    34   20   40 1   
    35   20   41 1   
    36   20   42 1   
    37   21   22 1   
    38   21   43 1   
    39   22   23 1   
    40   22   29 2   
    41   23   24 ar  
    42   23   28 ar  
    43   24   25 ar  
    44   24   44 1   
    45   25   26 ar  
    46   25   45 1   
    47   26   27 ar  
    48   26   46 1   
    49   27   28 ar  
    50   28   47 1   
@<TRIPOS>SUBSTRUCTURE
     1 PRC         1 TEMP              0 ****  ****    0 ROOT
