@<TRIPOS>MOLECULE
PRC
   49    52     1     0     0
SMALL
bcc


@<TRIPOS>ATOM
      1 C1         -1.8790   -0.3540   -0.0930 ca        1 PRC     -0.245300
      2 C2         -0.6790   -0.7420   -0.7250 ca        1 PRC      0.459200
      3 N3          0.5020   -0.8180   -0.0780 nb        1 PRC     -0.641000
      4 C4          0.5220   -0.5150    1.2290 ca        1 PRC      0.449200
      5 C5         -0.6310   -0.1260    1.9570 cp        1 PRC     -0.345800
      6 C6         -1.8510   -0.0390    1.2620 ca        1 PRC     -0.035000
      7 C7         -0.5200    0.1760    3.3800 cp        1 PRC      0.579800
      8 N8         -1.3400    1.1200    3.9320 nb        1 PRC     -0.687000
      9 C9         -1.1510    1.3640    5.2620 ca        1 PRC      0.703900
     10 N10        -0.2650    0.7660    6.1190 nb        1 PRC     -0.699000
     11 C11         0.5240   -0.1690    5.5430 ca        1 PRC      0.461200
     12 C12         0.4390   -0.5020    4.1830 ca        1 PRC     -0.300600
     13 N13        -2.0150    2.4490    5.8480 n4        1 PRC     -0.614100
     14 C14        -2.9350    1.9340    6.8680 ca        1 PRC     -0.032400
     15 C15        -2.4490    1.7320    8.1720 ca        1 PRC     -0.037000
     16 C16        -3.3290    1.2720    9.1630 ca        1 PRC     -0.038400
     17 C17        -4.6790    1.0100    8.8510 ca        1 PRC     -0.053000
     18 C18        -5.1310    1.2040    7.5530 ca        1 PRC     -0.099000
     19 C19        -4.2820    1.6650    6.5350 ca        1 PRC      0.028700
     20 C20        -4.8160    1.8660    5.1700 c3        1 PRC     -0.112800
     21 N21        -2.8460    1.0630   10.5280 n4        1 PRC     -0.559200
     22 C22        -2.4480    2.3680   11.2530 c         1 PRC      0.601700
     23 C23        -2.7400    2.4080   12.6730 ca        1 PRC     -0.350900
     24 C25        -2.8090    3.6790   13.2910 ca        1 PRC      0.002000
     25 C26        -3.0660    3.7480   14.6560 ca        1 PRC     -0.233300
     26 C27        -3.2430    2.5470   15.3750 ca        1 PRC      0.494200
     27 N28        -3.1630    1.3260   14.8010 nb        1 PRC     -0.631000
     28 C29        -2.9130    1.2600   13.4870 ca        1 PRC      0.452200
     29 O29        -1.9320    3.2130   10.5390 o         1 PRC     -0.431100
     30 HC1        -2.8160   -0.3040   -0.6690 ha        1 PRC      0.171000
     31 HC2        -0.6560   -1.0030   -1.8010 h4        1 PRC      0.058100
     32 HC4         1.5160   -0.5720    1.7120 h4        1 PRC      0.033100
     33 HC6        -2.7740    0.2630    1.7780 ha        1 PRC      0.143000
     34 H11C        1.2540   -0.6590    6.2200 h4        1 PRC      0.073100
     35 H12C        1.0910   -1.2770    3.7490 ha        1 PRC      0.204000
     36 H13N       -1.3930    3.1550    6.2710 hn        1 PRC      0.487300
     37 H15C       -1.3900    1.9450    8.4180 ha        1 PRC      0.192000
     38 H17C       -5.3900    0.6500    9.6180 ha        1 PRC      0.182000
     39 H18C       -6.1910    0.9910    7.3130 ha        1 PRC      0.199000
     40 H201       -4.2140    1.3030    4.4100 hc        1 PRC      0.092033
     41 H202       -5.8750    1.5040    5.0930 hc        1 PRC      0.092033
     42 H203       -4.8180    2.9550    4.9010 hc        1 PRC      0.092033
     43 H21N       -3.5790    0.5910   11.0740 hn        1 PRC      0.469800
     44 H25C       -2.6580    4.5950   12.6940 ha        1 PRC      0.178000
     45 H26C       -3.1280    4.7200   15.1720 ha        1 PRC      0.194000
     46 H27C       -3.4530    2.5520   16.4660 h4        1 PRC      0.076100
     47 H29C       -2.8220    0.2300   13.0970 h4        1 PRC      0.020100
     48 H132       -2.5580    2.8930    5.0870 hn        1 PRC      0.487300
     49 H212       -2.0180    0.4530   10.4950 hn        1 PRC      0.469800
@<TRIPOS>BOND
     1    1    2 ar  
     2    1    6 ar  
     3    1   30 1   
     4    2    3 ar  
     5    2   31 1   
     6    3    4 ar  
     7    4    5 ar  
     8    4   32 1   
     9    5    6 ar  
    10    5    7 1   
    11    6   33 1   
    12    7    8 ar  
    13    7   12 ar  
    14    8    9 ar  
    15    9   10 ar  
    16    9   13 1   
    17   10   11 ar  
    18   11   12 ar  
    19   11   34 1   
    20   12   35 1   
    21   13   14 1   
    22   13   36 1   
    23   13   48 1   
    24   14   15 ar  
    25   14   19 ar  
    26   15   16 ar  
    27   15   37 1   
    28   16   17 ar  
    29   16   21 1   
    30   17   18 ar  
    31   17   38 1   
    32   18   19 ar  
    33   18   39 1   
    34   19   20 1   
    35   20   40 1   
    36   20   41 1   
    37   20   42 1   
    38   21   22 1   
    39   21   43 1   
    40   21   49 1   
    41   22   23 1   
    42   22   29 2   
    43   23   24 ar  
    44   23   28 ar  
    45   24   25 ar  
    46   24   44 1   
    47   25   26 ar  
    48   25   45 1   
    49   26   27 ar  
    50   26   46 1   
    51   27   28 ar  
    52   28   47 1   
@<TRIPOS>SUBSTRUCTURE
     1 PRC         1 TEMP              0 ****  ****    0 ROOT
