@<TRIPOS>MOLECULE
PRC
   47    39     1     0     0
SMALL
bcc


@<TRIPOS>ATOM
      1 C1          3.4880   -1.5030   -6.4390 c1        1 PRC     -0.128333
      2 C2          4.7160   -1.5970   -5.8290 c1        1 PRC     -0.054500
      3 N3          4.7990   -1.6930   -4.4780 n1        1 PRC     -0.141000
      4 C4          3.6780   -1.6980   -3.7260 c1        1 PRC     -0.049000
      5 C5          2.4610   -1.6060   -4.3170 c1        1 PRC     -0.102000
      6 C6          2.3690   -1.5070   -5.6920 c1        1 PRC     -0.128333
      7 C7          1.3270   -1.6730   -3.5500 c1        1 PRC      0.102000
      8 N8          0.7570   -0.5450   -3.0810 n1        1 PRC     -0.223000
      9 C9         -0.3600   -0.6190   -2.3230 c1        1 PRC      0.152000
     10 N10        -0.9100   -1.8420   -2.0340 n1        1 PRC     -0.205000
     11 C11        -0.3290   -2.9790   -2.5110 c1        1 PRC     -0.128333
     12 C12         0.7710   -2.9020   -3.2570 c1        1 PRC     -0.128333
     13 N13        -1.0000    0.5630   -1.8780 n3        1 PRC     -0.226000
     14 C14        -1.7040    0.5710   -0.5640 c2        1 PRC      0.068000
     15 C15        -0.9860    0.5090    0.5780 c2        1 PRC     -0.154000
     16 C16        -1.6280    0.6680    1.8220 c1        1 PRC      0.079000
     17 C17        -2.9880    0.8880    1.8720 c1        1 PRC     -0.128333
     18 C18        -3.7100    0.9500    0.7240 c1        1 PRC     -0.128333
     19 C19        -3.0730    0.7920   -0.5110 c1        1 PRC     -0.124000
     20 C20        -3.8640    0.9250   -1.8080 c3        1 PRC     -0.180000
     21 N21        -0.8790    0.5600    3.0330 n         1 PRC     -0.320000
     22 C22        -1.0090    1.6050    4.0830 c2        1 PRC      0.359000
     23 C23        -0.0700    1.5880    5.2790 c2        1 PRC     -0.182000
     24 C25        -0.0650    2.6480    6.1690 c2        1 PRC     -0.040000
     25 C26         0.6580    2.5630    7.3270 c1        1 PRC     -0.188000
     26 C27         1.3710    1.4380    7.6030 c1        1 PRC     -0.054500
     27 N28         1.3640    0.3730    6.7050 n1        1 PRC     -0.141000
     28 C29         0.6460    0.4580    5.5570 c1        1 PRC     -0.045000
     29 O29        -1.7370    2.5260    3.9120 o         1 PRC     -0.344000
     30 HC1         3.4330   -1.4370   -7.3640 ha        1 PRC      0.156000
     31 HC2         5.5410   -1.5930   -6.3700 ha        1 PRC      0.163500
     32 HC4         3.7460   -1.7690   -2.7260 ha        1 PRC      0.164000
     33 HC6         1.5210   -1.4430   -6.1080 ha        1 PRC      0.156000
     34 H11C       -0.7050   -3.8210   -2.3140 ha        1 PRC      0.156000
     35 H12C        1.2120   -3.7640   -3.6160 ha        1 PRC      0.156000
     36 H13N       -0.8810    1.3810   -2.3620 hn        1 PRC      0.235000
     37 H15C       -0.0550    0.3550    0.5400 ha        1 PRC      0.152000
     38 H17C       -3.4160    0.9950    2.7020 ha        1 PRC      0.156000
     39 H18C       -4.6990    1.1090    0.7630 ha        1 PRC      0.156000
     40 H201       -3.5850    0.1300   -2.4810 hc        1 PRC      0.084333
     41 H202       -4.8060    0.8710   -1.6230 hc        1 PRC      0.084333
     42 H203       -3.6550    1.8220   -2.2370 hc        1 PRC      0.084333
     43 H21N       -0.3540   -0.2080    3.1990 hn        1 PRC      0.236000
     44 H25C       -0.5590    3.4270    5.9790 ha        1 PRC      0.162000
     45 H26C        0.6630    3.3240    7.9690 ha        1 PRC      0.152000
     46 H27C        1.8660    1.3800    8.4000 ha        1 PRC      0.163500
     47 H29C        0.6420   -0.2190    4.9830 ha        1 PRC      0.165000
@<TRIPOS>BOND
     1    1    6 1   
     2    1   30 1   
     3    2    3 1   
     4    2   31 1   
     5    4    5 1   
     6    4   32 1   
     7    6   33 1   
     8    7    8 1   
     9    9   10 1   
    10    9   13 1   
    11   11   12 1   
    12   11   34 1   
    13   12   35 1   
    14   13   14 1   
    15   13   36 1   
    16   14   15 1   
    17   14   19 1   
    18   15   16 1   
    19   15   37 1   
    20   16   21 1   
    21   17   18 1   
    22   17   38 1   
    23   18   39 1   
    24   19   20 1   
    25   20   40 1   
    26   20   41 1   
    27   20   42 1   
    28   21   22 1   
    29   21   43 1   
    30   22   23 1   
    31   22   29 1   
    32   23   24 1   
    33   23   28 1   
    34   24   25 1   
    35   24   44 1   
    36   25   45 1   
    37   26   27 1   
    38   26   46 1   
    39   28   47 1   
@<TRIPOS>SUBSTRUCTURE
     1 PRC         1 TEMP              0 ****  ****    0 ROOT
