@<TRIPOS>MOLECULE
PRC
   47    50     1     0     0
SMALL
bcc


@<TRIPOS>ATOM
      1 C1         -0.4190   -0.0900   -0.2260 ca        1 PRC     -0.254300
      2 C2          0.9590   -0.3170   -0.3930 ca        1 PRC      0.406200
      3 N3          1.8230   -0.4210    0.6370 nb        1 PRC     -0.667000
      4 C4          1.3250   -0.3060    1.8800 ca        1 PRC      0.416200
      5 C5         -0.0450   -0.0860    2.1540 cp        1 PRC     -0.274800
      6 C6         -0.9250    0.0300    1.0690 ca        1 PRC     -0.051000
      7 C7         -0.5090    0.0130    3.5460 cp        1 PRC      0.537800
      8 N8         -1.5020    0.8850    3.8400 nb        1 PRC     -0.749000
      9 C9         -1.8970    0.9580    5.1710 ca        1 PRC      0.870900
     10 N10        -1.3690    0.1800    6.1950 nb        1 PRC     -0.731000
     11 C11        -0.3980   -0.6750    5.8430 ca        1 PRC      0.461200
     12 C12         0.0860   -0.8070    4.5310 ca        1 PRC     -0.407600
     13 N13        -2.8560    1.9480    5.4750 nh        1 PRC     -0.705300
     14 C14        -3.6550    1.8740    6.6430 ca        1 PRC      0.149600
     15 C15        -3.0550    1.9600    7.9100 ca        1 PRC     -0.154000
     16 C16        -3.8430    1.9530    9.0840 ca        1 PRC      0.071600
     17 C17        -5.2450    1.8850    8.9670 ca        1 PRC     -0.154000
     18 C18        -5.8280    1.8200    7.7070 ca        1 PRC     -0.095000
     19 C19        -5.0680    1.8060    6.5370 ca        1 PRC     -0.131300
     20 C20        -5.7440    1.7290    5.2220 c3        1 PRC     -0.054800
     21 N21        -3.1780    2.0000   10.3220 n         1 PRC     -0.466100
     22 C22        -3.7420    2.2520   11.5650 c         1 PRC      0.685700
     23 C23        -2.7990    2.2570   12.7190 ca        1 PRC     -0.267900
     24 C25        -3.0020    3.1830   13.7530 ca        1 PRC     -0.040000
     25 C26        -2.1300    3.1760   14.8410 ca        1 PRC     -0.253300
     26 C27        -1.0860    2.2320   14.8580 ca        1 PRC      0.415200
     27 N28        -0.8860    1.3260   13.8810 nb        1 PRC     -0.667000
     28 C29        -1.7320    1.3430   12.8340 ca        1 PRC      0.420200
     29 O29        -4.9550    2.4760   11.7320 o         1 PRC     -0.583100
     30 HC1        -1.0790   -0.0080   -1.0990 ha        1 PRC      0.147000
     31 HC2         1.4000   -0.4180   -1.4010 h4        1 PRC      0.025100
     32 HC4         2.0600   -0.3840    2.7020 h4        1 PRC      0.027100
     33 HC6        -1.9980    0.2130    1.2340 ha        1 PRC      0.155000
     34 H11C        0.0110   -1.2920    6.6660 h4        1 PRC      0.029100
     35 H12C        0.8760   -1.5240    4.2820 ha        1 PRC      0.158000
     36 H13N       -3.3370    2.3150    4.6760 hn        1 PRC      0.439800
     37 H15C       -1.9580    2.0290    7.9860 ha        1 PRC      0.152000
     38 H17C       -5.8890    1.8870    9.8610 ha        1 PRC      0.173000
     39 H18C       -6.9270    1.7710    7.6340 ha        1 PRC      0.137000
     40 H201       -6.8450    1.5780    5.3460 hc        1 PRC      0.045033
     41 H202       -5.5920    2.6750    4.6430 hc        1 PRC      0.045033
     42 H203       -5.3460    0.8760    4.6170 hc        1 PRC      0.045033
     43 H21N       -2.1860    1.9160   10.2790 hn        1 PRC      0.322500
     44 H25C       -3.8450    3.8890   13.6980 ha        1 PRC      0.162000
     45 H26C       -2.2540    3.8850   15.6690 ha        1 PRC      0.152000
     46 H27C       -0.3710    2.1930   15.7010 h4        1 PRC      0.028100
     47 H29C       -1.5470    0.5700   12.0660 h4        1 PRC      0.028100
@<TRIPOS>BOND
     1    1    2 ar  
     2    1    6 ar  
     3    1   30 1   
     4    2    3 ar  
     5    2   31 1   
     6    3    4 ar  
     7    4    5 ar  
     8    4   32 1   
     9    5    6 ar  
    10    5    7 1   
    11    6   33 1   
    12    7    8 ar  
    13    7   12 ar  
    14    8    9 ar  
    15    9   10 ar  
    16    9   13 1   
    17   10   11 ar  
    18   11   12 ar  
    19   11   34 1   
    20   12   35 1   
    21   13   14 1   
    22   13   36 1   
    23   14   15 ar  
    24   14   19 ar  
    25   15   16 ar  
    26   15   37 1   
    27   16   17 ar  
    28   16   21 1   
    29   17   18 ar  
    30   17   38 1   
    31   18   19 ar  
    32   18   39 1   
    33   19   20 1   
    34   20   40 1   
    35   20   41 1   
    36   20   42 1   
    37   21   22 1   
    38   21   43 1   
    39   22   23 1   
    40   22   29 2   
    41   23   24 ar  
    42   23   28 ar  
    43   24   25 ar  
    44   24   44 1   
    45   25   26 ar  
    46   25   45 1   
    47   26   27 ar  
    48   26   46 1   
    49   27   28 ar  
    50   28   47 1   
@<TRIPOS>SUBSTRUCTURE
     1 PRC         1 TEMP              0 ****  ****    0 ROOT
