@<TRIPOS>MOLECULE
PRC
   47    50     1     0     0
SMALL
bcc


@<TRIPOS>ATOM
      1 C1         -0.4240   -0.0900   -0.2270 ca        1 PRC     -0.254300
      2 C2          0.9540   -0.3130   -0.3950 ca        1 PRC      0.406200
      3 N3          1.8200   -0.4150    0.6330 nb        1 PRC     -0.667000
      4 C4          1.3230   -0.3000    1.8770 ca        1 PRC      0.416200
      5 C5         -0.0470   -0.0830    2.1520 cp        1 PRC     -0.274800
      6 C6         -0.9290    0.0300    1.0680 ca        1 PRC     -0.051000
      7 C7         -0.5090    0.0160    3.5450 cp        1 PRC      0.537800
      8 N8         -1.5040    0.8850    3.8400 nb        1 PRC     -0.749000
      9 C9         -1.8970    0.9580    5.1710 ca        1 PRC      0.870900
     10 N10        -1.3660    0.1820    6.1950 nb        1 PRC     -0.731000
     11 C11        -0.3940   -0.6700    5.8420 ca        1 PRC      0.461200
     12 C12         0.0890   -0.8020    4.5300 ca        1 PRC     -0.407600
     13 N13        -2.8580    1.9470    5.4750 nu        1 PRC     -0.705300
     14 C14        -3.6560    1.8720    6.6440 ca        1 PRC      0.149600
     15 C15        -3.0560    1.9590    7.9100 ca        1 PRC     -0.154000
     16 C16        -3.8430    1.9510    9.0850 ca        1 PRC      0.071600
     17 C17        -5.2440    1.8790    8.9690 ca        1 PRC     -0.154000
     18 C18        -5.8290    1.8120    7.7100 ca        1 PRC     -0.095000
     19 C19        -5.0690    1.8000    6.5400 ca        1 PRC     -0.131300
     20 C20        -5.7470    1.7210    5.2240 c3        1 PRC     -0.054800
     21 N21        -3.1770    1.9990   10.3230 ns        1 PRC     -0.466100
     22 C22        -3.7400    2.2500   11.5660 c         1 PRC      0.685700
     23 C23        -2.7960    2.2580   12.7190 ca        1 PRC     -0.267900
     24 C25        -3.0010    3.1820   13.7530 ca        1 PRC     -0.040000
     25 C26        -2.1280    3.1780   14.8410 ca        1 PRC     -0.253300
     26 C27        -1.0810    2.2370   14.8570 ca        1 PRC      0.415200
     27 N28        -0.8800    1.3320   13.8800 nb        1 PRC     -0.667000
     28 C29        -1.7270    1.3470   12.8340 ca        1 PRC      0.420200
     29 O29        -4.9540    2.4710   11.7340 o         1 PRC     -0.583100
     30 HC1        -1.0850   -0.0100   -1.1000 ha        1 PRC      0.147000
     31 HC2         1.3950   -0.4140   -1.4040 h4        1 PRC      0.025100
     32 HC4         2.0590   -0.3760    2.6980 h4        1 PRC      0.027100
     33 HC6        -2.0020    0.2110    1.2350 ha        1 PRC      0.155000
     34 H11C        0.0170   -1.2860    6.6650 h4        1 PRC      0.029100
     35 H12C        0.8800   -1.5170    4.2800 ha        1 PRC      0.158000
     36 H13N       -3.3410    2.3130    4.6760 hn        1 PRC      0.439800
     37 H15C       -1.9580    2.0300    7.9850 ha        1 PRC      0.152000
     38 H17C       -5.8880    1.8790    9.8640 ha        1 PRC      0.173000
     39 H18C       -6.9270    1.7610    7.6380 ha        1 PRC      0.137000
     40 H201       -5.5960    2.6680    4.6460 hc        1 PRC      0.045033
     41 H202       -6.8470    1.5680    5.3500 hc        1 PRC      0.045033
     42 H203       -5.3470    0.8690    4.6200 hc        1 PRC      0.045033
     43 H21N       -2.1840    1.9180   10.2790 hn        1 PRC      0.322500
     44 H25C       -3.8470    3.8870   13.6990 ha        1 PRC      0.162000
     45 H26C       -2.2530    3.8870   15.6690 ha        1 PRC      0.152000
     46 H27C       -0.3660    2.2000   15.6990 h4        1 PRC      0.028100
     47 H29C       -1.5400    0.5740   12.0650 h4        1 PRC      0.028100
@<TRIPOS>BOND
     1    1    2 ar  
     2    1    6 ar  
     3    1   30 1   
     4    2    3 ar  
     5    2   31 1   
     6    3    4 ar  
     7    4    5 ar  
     8    4   32 1   
     9    5    6 ar  
    10    5    7 1   
    11    6   33 1   
    12    7    8 ar  
    13    7   12 ar  
    14    8    9 ar  
    15    9   10 ar  
    16    9   13 1   
    17   10   11 ar  
    18   11   12 ar  
    19   11   34 1   
    20   12   35 1   
    21   13   14 1   
    22   13   36 1   
    23   14   15 ar  
    24   14   19 ar  
    25   15   16 ar  
    26   15   37 1   
    27   16   17 ar  
    28   16   21 1   
    29   17   18 ar  
    30   17   38 1   
    31   18   19 ar  
    32   18   39 1   
    33   19   20 1   
    34   20   40 1   
    35   20   41 1   
    36   20   42 1   
    37   21   22 1   
    38   21   43 1   
    39   22   23 1   
    40   22   29 2   
    41   23   24 ar  
    42   23   28 ar  
    43   24   25 ar  
    44   24   44 1   
    45   25   26 ar  
    46   25   45 1   
    47   26   27 ar  
    48   26   46 1   
    49   27   28 ar  
    50   28   47 1   
@<TRIPOS>SUBSTRUCTURE
     1 PRC         1 TEMP              0 ****  ****    0 ROOT
