@<TRIPOS>MOLECULE
PRD
   45    47     1     0     0
SMALL
bcc


@<TRIPOS>ATOM
      1 C4A        -0.0960   -0.3620   -2.6970 ca        1 PRD     -0.357600
      2 C8A        -0.8370    0.7990   -3.1140 ca        1 PRD      0.700300
      3 N1'        -0.5720    1.4520   -4.2980 nb        1 PRD     -0.758000
      4 N8'        -1.8610    1.3050   -2.3100 nb        1 PRD     -0.643000
      5 C7B        -2.1270    0.6950   -1.1780 ca        1 PRD      0.447200
      6 C6B        -1.4340   -0.4730   -0.6720 ca        1 PRD     -0.028700
      7 N6'        -1.8970   -1.0770    0.5230 nh        1 PRD     -0.626000
      8 C61        -1.4660   -2.4340    0.7580 c3        1 PRD      0.167100
      9 C5B        -0.4060   -0.9740   -1.4610 ca        1 PRD     -0.104000
     10 C4B         0.9590   -0.8160   -3.5950 ca        1 PRD      0.730200
     11 N4'         1.7810   -1.8720   -3.2250 nh        1 PRD     -0.945500
     12 N3'         1.2090   -0.1940   -4.7660 nb        1 PRD     -0.823000
     13 C2B         0.4170    0.9200   -5.0770 ca        1 PRD      0.905900
     14 N2'         0.6290    1.4930   -6.3380 nh        1 PRD     -0.925500
     15 C7'        -1.9170   -0.2380    1.7060 c3        1 PRD      0.235100
     16 C1'        -0.6430   -0.0510    2.4820 ca        1 PRD     -0.105300
     17 C2'        -0.7300    0.2310    3.8680 ca        1 PRD      0.094100
     18 C3'         0.4200    0.4410    4.6320 ca        1 PRD     -0.167000
     19 C4'         1.6780    0.3720    4.0320 ca        1 PRD     -0.170000
     20 C5'         1.7700    0.0980    2.6670 ca        1 PRD      0.096100
     21 C6'         0.6130   -0.1070    1.8910 ca        1 PRD     -0.126000
     22 O2'        -2.0160    0.2870    4.3780 os        1 PRD     -0.331900
     23 C21        -2.1280    0.5090    5.7790 c3        1 PRD      0.114700
     24 O5'         2.9580   -0.0090    1.9650 os        1 PRD     -0.326900
     25 C51         4.1390    0.3200    2.6850 c3        1 PRD      0.113700
     26 H7'        -2.9620    1.1330   -0.5950 h4        1 PRD      0.032100
     27 HC61       -2.0790   -2.8550    1.5990 h1        1 PRD      0.040033
     28 HC62       -1.6500   -3.0440   -0.1650 h1        1 PRD      0.040033
     29 HC63       -0.3790   -2.5110    1.0370 h1        1 PRD      0.040033
     30 H5'         0.1690   -1.8490   -1.1190 ha        1 PRD      0.132000
     31 HN41        2.4050   -2.2380   -3.9070 hn        1 PRD      0.424800
     32 HN42        1.4060   -2.5230   -2.5790 hn        1 PRD      0.424800
     33 HN21        1.5040    1.3080   -6.7690 hn        1 PRD      0.426300
     34 HN22        0.2550    2.4040   -6.4760 hn        1 PRD      0.426300
     35 HC71       -2.6880   -0.6940    2.3980 h1        1 PRD      0.075200
     36 HC72       -2.2860    0.7890    1.4160 h1        1 PRD      0.075200
     37 HC3'        0.3530    0.6610    5.7070 ha        1 PRD      0.139000
     38 HC4'        2.5760    0.5370    4.6420 ha        1 PRD      0.139000
     39 HC6'        0.7260   -0.3040    0.8130 ha        1 PRD      0.157000
     40 HC21       -3.2330    0.4830    5.9580 h1        1 PRD      0.044367
     41 HC22       -1.6170   -0.3020    6.3520 h1        1 PRD      0.044367
     42 HC23       -1.7080    1.5080    6.0540 h1        1 PRD      0.044367
     43 HC51        4.9480    0.2280    1.9160 h1        1 PRD      0.043700
     44 HC52        4.0880    1.3640    3.0800 h1        1 PRD      0.043700
     45 HC53        4.3060   -0.4050    3.5190 h1        1 PRD      0.043700
@<TRIPOS>BOND
     1    1    2 ar  
     2    1    9 ar  
     3    1   10 ar  
     4    2    3 ar  
     5    2    4 ar  
     6    3   13 ar  
     7    4    5 ar  
     8    5    6 ar  
     9    5   26 1   
    10    6    7 1   
    11    6    9 ar  
    12    7    8 1   
    13    7   15 1   
    14    8   27 1   
    15    8   28 1   
    16    8   29 1   
    17    9   30 1   
    18   10   11 1   
    19   10   12 ar  
    20   11   31 1   
    21   11   32 1   
    22   12   13 ar  
    23   13   14 1   
    24   14   33 1   
    25   14   34 1   
    26   15   16 1   
    27   15   35 1   
    28   15   36 1   
    29   16   17 ar  
    30   16   21 ar  
    31   17   18 ar  
    32   17   22 1   
    33   18   19 ar  
    34   18   37 1   
    35   19   20 ar  
    36   19   38 1   
    37   20   21 ar  
    38   20   24 1   
    39   21   39 1   
    40   22   23 1   
    41   23   40 1   
    42   23   41 1   
    43   23   42 1   
    44   24   25 1   
    45   25   43 1   
    46   25   44 1   
    47   25   45 1   
@<TRIPOS>SUBSTRUCTURE
     1 PRD         1 TEMP              0 ****  ****    0 ROOT
