@<TRIPOS>MOLECULE
PRE
   24    24     1     0     0
SMALL
bcc


@<TRIPOS>ATOM
      1 C1         -0.0860    0.2390   -0.1860 c3        1 PRE     -0.119600
      2 C2          1.1900   -0.5290   -0.0830 c2        1 PRE     -0.065700
      3 C3          1.8260   -0.7740    1.0650 c2        1 PRE     -0.261700
      4 C4          1.3190   -0.3280    2.4000 c3        1 PRE      0.243500
      5 O4          1.0380   -1.4390    3.2440 oh        1 PRE     -0.654800
      6 C5          0.1340    0.5770    2.2800 c2        1 PRE     -0.261700
      7 C6         -0.4890    0.8270    1.1240 c2        1 PRE     -0.065700
      8 C7          0.1000    1.3990   -1.2380 c         1 PRE      0.928600
      9 O71         0.9640    1.2510   -2.1480 o         1 PRE     -0.846300
     10 O72        -0.6390    2.4180   -1.1370 o         1 PRE     -0.846300
     11 C8         -1.2060   -0.6600   -0.7310 c3        1 PRE     -0.149400
     12 C1'        -1.8980   -1.5380    0.2820 c         1 PRE      0.477100
     13 O1'        -2.9290   -1.1520    0.8560 o         1 PRE     -0.608100
     14 C2'        -1.3680   -2.9640    0.4760 c         1 PRE      0.853600
     15 O'L        -0.7760   -3.2570    1.5530 o         1 PRE     -0.838800
     16 O'M        -1.5790   -3.7870   -0.4610 o         1 PRE     -0.838800
     17 H2          1.5940   -0.8590   -1.0540 ha        1 PRE      0.133500
     18 H3          2.7560   -1.3590    1.0970 ha        1 PRE      0.096000
     19 H4          2.1450    0.2170    2.9500 h1        1 PRE      0.019700
     20 HO4         0.3980   -2.0010    2.7710 ho        1 PRE      0.457000
     21 H5         -0.2130    1.0120    3.2270 ha        1 PRE      0.096000
     22 H6         -1.3530    1.5090    1.0590 ha        1 PRE      0.133500
     23 H81        -1.9770    0.0120   -1.1990 hc        1 PRE      0.059700
     24 H82        -0.7800   -1.3200   -1.5310 hc        1 PRE      0.059700
@<TRIPOS>BOND
     1    1    2 1   
     2    1    7 1   
     3    1    8 1   
     4    1   11 1   
     5    2    3 2   
     6    2   17 1   
     7    3    4 1   
     8    3   18 1   
     9    4    5 1   
    10    4    6 1   
    11    4   19 1   
    12    5   20 1   
    13    6    7 2   
    14    6   21 1   
    15    7   22 1   
    16    8    9 1   
    17    8   10 1   
    18   11   12 1   
    19   11   23 1   
    20   11   24 1   
    21   12   13 2   
    22   12   14 1   
    23   14   15 1   
    24   14   16 1   
@<TRIPOS>SUBSTRUCTURE
     1 PRE         1 TEMP              0 ****  ****    0 ROOT
