@<TRIPOS>MOLECULE
PRE
   24    24     1     0     0
SMALL
bcc


@<TRIPOS>ATOM
      1 C1         -0.6980    0.2470    0.6920 c3        1 PRE     -0.137600
      2 C2          0.0540    1.2240    1.5300 c2        1 PRE     -0.049200
      3 C3          0.8850    0.8810    2.5190 c2        1 PRE     -0.276200
      4 C4          1.1960   -0.5390    2.8720 c3        1 PRE      0.247500
      5 O4          2.5680   -0.8350    2.6100 oh        1 PRE     -0.650800
      6 C5          0.3020   -1.5080    2.1650 c2        1 PRE     -0.276200
      7 C6         -0.5260   -1.1520    1.1780 c2        1 PRE     -0.049200
      8 C7         -2.2350    0.6130    0.7570 c         1 PRE      0.931600
      9 O71        -2.5500    1.8230    0.9330 o         1 PRE     -0.842300
     10 O72        -3.0730   -0.3200    0.6150 o         1 PRE     -0.842300
     11 C8         -0.3000    0.3680   -0.7810 c3        1 PRE     -0.154400
     12 C1'         1.1160    0.0840   -1.1980 c         1 PRE      0.479100
     13 O1'         2.0260   -0.2530   -0.4280 o         1 PRE     -0.612100
     14 C2'         1.3630    0.2470   -2.7070 c         1 PRE      0.844600
     15 O'L         1.7180    1.3840   -3.1270 o         1 PRE     -0.837300
     16 O'M         1.1940   -0.7630   -3.4460 o         1 PRE     -0.837300
     17 H2         -0.1650    2.2790    1.2930 ha        1 PRE      0.132000
     18 H3          1.4190    1.6340    3.1150 ha        1 PRE      0.093000
     19 H4          1.1070   -0.6830    3.9900 h1        1 PRE      0.023700
     20 HO4         2.6900   -0.7240    1.6550 ho        1 PRE      0.435000
     21 H5          0.3970   -2.5510    2.4940 ha        1 PRE      0.093000
     22 H6         -1.1810   -1.8840    0.6760 ha        1 PRE      0.132000
     23 H81        -0.9580   -0.3270   -1.3730 hc        1 PRE      0.076700
     24 H82        -0.5320    1.4180   -1.1150 hc        1 PRE      0.076700
@<TRIPOS>BOND
     1    1    2 1   
     2    1    7 1   
     3    1    8 1   
     4    1   11 1   
     5    2    3 2   
     6    2   17 1   
     7    3    4 1   
     8    3   18 1   
     9    4    5 1   
    10    4    6 1   
    11    4   19 1   
    12    5   20 1   
    13    6    7 2   
    14    6   21 1   
    15    7   22 1   
    16    8    9 1   
    17    8   10 1   
    18   11   12 1   
    19   11   23 1   
    20   11   24 1   
    21   12   13 2   
    22   12   14 1   
    23   14   15 1   
    24   14   16 1   
@<TRIPOS>SUBSTRUCTURE
     1 PRE         1 TEMP              0 ****  ****    0 ROOT
