@<TRIPOS>MOLECULE
PRF
   24    25     1     0     0
SMALL
bcc


@<TRIPOS>ATOM
      1 N1         -0.0790   -0.5620    0.3870 n         1 PRF     -0.473400
      2 C2          1.2770   -0.2550    0.2100 cc        1 PRF      0.535800
      3 N3          2.1250    0.1910    1.1370 nd        1 PRF     -0.517100
      4 C4          1.5610    0.3860    2.3930 cd        1 PRF      0.147100
      5 C5          0.1780    0.1370    2.6950 cc        1 PRF     -0.203600
      6 C6         -0.6840   -0.3960    1.6610 c         1 PRF      0.758100
      7 O6         -1.8710   -0.7360    1.7970 o         1 PRF     -0.610500
      8 C7         -0.0250    0.4970    4.0620 cc        1 PRF     -0.190300
      9 C10        -1.2890    0.5760    4.8170 c3        1 PRF      0.195100
     10 N11        -2.1180   -0.6640    4.7330 n4        1 PRF     -0.847600
     11 C8          1.2310    0.9270    4.5540 cd        1 PRF     -0.019300
     12 N9          2.1820    0.8600    3.5500 na        1 PRF     -0.103100
     13 N2          1.8530   -0.4450   -1.1610 n4        1 PRF     -0.797600
     14 H91        -0.6540   -0.8980   -0.3610 hn        1 PRF      0.373500
     15 H101       -1.9210    1.4260    4.4130 hx        1 PRF      0.126700
     16 H102       -1.0770    0.7770    5.9110 hx        1 PRF      0.126700
     17 H111       -2.9560   -0.5560    5.3150 hn        1 PRF      0.473800
     18 H112       -2.4110   -0.8340    3.7560 hn        1 PRF      0.473800
     19 H81         1.4960    1.2870    5.5580 h4        1 PRF      0.225000
     20 HN91        3.1420    1.1190    3.6280 hn        1 PRF      0.360700
     21 HN21        1.3620    0.1640   -1.8300 hn        1 PRF      0.497133
     22 HN22        1.7580   -1.4300   -1.4460 hn        1 PRF      0.497133
     23 H113       -1.5870   -1.4770    5.0620 hn        1 PRF      0.473800
     24 H23         2.8590   -0.1940   -1.1560 hn        1 PRF      0.497133
@<TRIPOS>BOND
     1    1    2 1   
     2    1    6 1   
     3    1   14 1   
     4    2    3 2   
     5    2   13 1   
     6    3    4 1   
     7    4    5 2   
     8    4   12 1   
     9    5    6 1   
    10    5    8 1   
    11    6    7 2   
    12    8    9 1   
    13    8   11 2   
    14    9   10 1   
    15    9   15 1   
    16    9   16 1   
    17   10   17 1   
    18   10   18 1   
    19   10   23 1   
    20   11   12 1   
    21   11   19 1   
    22   12   20 1   
    23   13   21 1   
    24   13   22 1   
    25   13   24 1   
@<TRIPOS>SUBSTRUCTURE
     1 PRF         1 TEMP              0 ****  ****    0 ROOT
