@<TRIPOS>MOLECULE
PRF
   24    25     1     0     0
SMALL
bcc


@<TRIPOS>ATOM
      1 N1         -0.0760   -0.5120    0.3740 n         1 PRF     -0.473400
      2 C2          1.2920   -0.2530    0.2170 cc        1 PRF      0.535800
      3 N3          2.1460    0.1440    1.1600 nd        1 PRF     -0.517100
      4 C4          1.5750    0.3370    2.4140 cd        1 PRF      0.147100
      5 C5          0.1810    0.1330    2.6980 cc        1 PRF     -0.203600
      6 C6         -0.6880   -0.3490    1.6450 c         1 PRF      0.758100
      7 O6         -1.8890   -0.6470    1.7630 o         1 PRF     -0.610500
      8 C7         -0.0240    0.4750    4.0700 cc        1 PRF     -0.190300
      9 C10        -1.2920    0.5860    4.8130 c3        1 PRF      0.195100
     10 N11        -2.1650   -0.6220    4.6970 n4        1 PRF     -0.847600
     11 C8          1.2410    0.8490    4.5820 cd        1 PRF     -0.019300
     12 N9          2.2000    0.7660    3.5870 na        1 PRF     -0.103100
     13 N2          1.8760   -0.4380   -1.1510 n4        1 PRF     -0.797600
     14 H91        -0.6560   -0.8130   -0.3860 hn        1 PRF      0.373500
     15 H101       -1.8890    1.4660    4.4180 hx        1 PRF      0.126700
     16 H102       -1.0850    0.7590    5.9120 hx        1 PRF      0.126700
     17 H111       -1.6670   -1.4590    5.0160 hn        1 PRF      0.473800
     18 H112       -2.4530   -0.7620    3.7140 hn        1 PRF      0.473800
     19 H81         1.5090    1.1810    5.5950 h4        1 PRF      0.225000
     20 HN91        3.1680    0.9880    3.6790 hn        1 PRF      0.360700
     21 HN21        1.4150    0.2020   -1.8140 hn        1 PRF      0.497133
     22 HN22        2.8890   -0.2250   -1.1310 hn        1 PRF      0.497133
     23 H113       -3.0050   -0.4930    5.2730 hn        1 PRF      0.473800
     24 H23         1.7470   -1.4130   -1.4560 hn        1 PRF      0.497133
@<TRIPOS>BOND
     1    1    2 1   
     2    1    6 1   
     3    1   14 1   
     4    2    3 2   
     5    2   13 1   
     6    3    4 1   
     7    4    5 2   
     8    4   12 1   
     9    5    6 1   
    10    5    8 1   
    11    6    7 2   
    12    8    9 1   
    13    8   11 2   
    14    9   10 1   
    15    9   15 1   
    16    9   16 1   
    17   10   17 1   
    18   10   18 1   
    19   10   23 1   
    20   11   12 1   
    21   11   19 1   
    22   12   20 1   
    23   13   21 1   
    24   13   22 1   
    25   13   24 1   
@<TRIPOS>SUBSTRUCTURE
     1 PRF         1 TEMP              0 ****  ****    0 ROOT
