@<TRIPOS>MOLECULE
PRF
   22    23     1     0     0
SMALL
bcc


@<TRIPOS>ATOM
      1 N1          1.1500    0.1440   -1.8520 n         1 PRF     -0.505400
      2 C2         -0.1260    0.1340   -2.4550 cc        1 PRF      0.668800
      3 N3         -1.2880   -0.0130   -1.7820 nd        1 PRF     -0.676100
      4 C4         -1.1530   -0.0920   -0.4020 cd        1 PRF      0.188100
      5 C5          0.0980   -0.0730    0.3030 cc        1 PRF     -0.273600
      6 C6          1.3200    0.0650   -0.4450 c         1 PRF      0.752100
      7 O6          2.4840    0.1170   -0.0060 o         1 PRF     -0.635500
      8 C7         -0.2000   -0.1870    1.7020 cc        1 PRF     -0.077300
      9 C10         0.7940   -0.2420    2.7980 c3        1 PRF      0.214100
     10 N11         0.3860    0.4780    3.9860 n3        1 PRF     -0.915800
     11 C8         -1.5930   -0.2690    1.8120 cd        1 PRF     -0.140300
     12 N9         -2.1740   -0.2110    0.5380 na        1 PRF     -0.168100
     13 N2         -0.1770    0.3520   -3.8560 nh        1 PRF     -0.886800
     14 H91         1.9630    0.3040   -2.4050 hn        1 PRF      0.333500
     15 H101        1.7850    0.1180    2.3810 h1        1 PRF      0.052200
     16 H102        0.9360   -1.3230    3.0980 h1        1 PRF      0.052200
     17 H111        1.1460    0.5120    4.6370 hn        1 PRF      0.348300
     18 H112        0.1120    1.4140    3.7590 hn        1 PRF      0.348300
     19 H81        -2.2110   -0.3620    2.7060 h4        1 PRF      0.184000
     20 HN91       -3.1390   -0.2480    0.3360 hn        1 PRF      0.309700
     21 HN21       -1.0880    0.2450   -4.2510 hn        1 PRF      0.414300
     22 HN22        0.5360   -0.1120   -4.3750 hn        1 PRF      0.414300
@<TRIPOS>BOND
     1    1    2 1   
     2    1    6 1   
     3    1   14 1   
     4    2    3 2   
     5    2   13 1   
     6    3    4 1   
     7    4    5 2   
     8    4   12 1   
     9    5    6 1   
    10    5    8 1   
    11    6    7 2   
    12    8    9 1   
    13    8   11 2   
    14    9   10 1   
    15    9   15 1   
    16    9   16 1   
    17   10   17 1   
    18   10   18 1   
    19   11   12 1   
    20   11   19 1   
    21   12   20 1   
    22   13   21 1   
    23   13   22 1   
@<TRIPOS>SUBSTRUCTURE
     1 PRF         1 TEMP              0 ****  ****    0 ROOT
