@<TRIPOS>MOLECULE
PRF
   24    25     1     0     0
SMALL
bcc


@<TRIPOS>ATOM
      1 N1         -0.1240    0.5190    0.3840 ns        1 PRF     -0.473400
      2 C2          1.2400    0.2590    0.1940 cc        1 PRF      0.535800
      3 N3          2.1150   -0.1450    1.1150 nd        1 PRF     -0.517100
      4 C4          1.5730   -0.3460    2.3800 cd        1 PRF      0.147100
      5 C5          0.1850   -0.1420    2.6970 cc        1 PRF     -0.203600
      6 C6         -0.7070    0.3470    1.6680 c         1 PRF      0.758100
      7 O6         -1.9040    0.6460    1.8150 o         1 PRF     -0.610500
      8 C7          0.0120   -0.4940    4.0710 cc        1 PRF     -0.190300
      9 C10        -1.2400   -0.6080    4.8420 c3        1 PRF      0.195100
     10 N11        -2.1130    0.6000    4.7540 nz        1 PRF     -0.847600
     11 C8          1.2880   -0.8730    4.5510 cd        1 PRF     -0.019300
     12 N9          2.2240   -0.7840    3.5350 na        1 PRF     -0.103100
     13 N2          1.7930    0.4530   -1.1860 nz        1 PRF     -0.797600
     14 H91        -0.7200    0.8250   -0.3600 hn        1 PRF      0.373500
     15 H101       -1.0070   -0.7900    5.9350 hx        1 PRF      0.126700
     16 H102       -1.8460   -1.4860    4.4550 hx        1 PRF      0.126700
     17 H111       -2.9400    0.4690    5.3480 hn        1 PRF      0.473800
     18 H112       -1.6080    1.4350    5.0670 hn        1 PRF      0.473800
     19 H81         1.5780   -1.2110    5.5560 h4        1 PRF      0.225000
     20 HN91        3.1940   -1.0070    3.6040 hn        1 PRF      0.360700
     21 HN21        1.6590    1.4300   -1.4810 hn        1 PRF      0.497133
     22 HN22        1.3160   -0.1810   -1.8430 hn        1 PRF      0.497133
     23 H113       -2.4240    0.7480    3.7780 hn        1 PRF      0.473800
     24 H23         2.8060    0.2380   -1.1910 hn        1 PRF      0.497133
@<TRIPOS>BOND
     1    1    2 1   
     2    1    6 1   
     3    1   14 1   
     4    2    3 2   
     5    2   13 1   
     6    3    4 1   
     7    4    5 2   
     8    4   12 1   
     9    5    6 1   
    10    5    8 1   
    11    6    7 2   
    12    8    9 1   
    13    8   11 2   
    14    9   10 1   
    15    9   15 1   
    16    9   16 1   
    17   10   17 1   
    18   10   18 1   
    19   10   23 1   
    20   11   12 1   
    21   11   19 1   
    22   12   20 1   
    23   13   21 1   
    24   13   22 1   
    25   13   24 1   
@<TRIPOS>SUBSTRUCTURE
     1 PRF         1 TEMP              0 ****  ****    0 ROOT
