@<TRIPOS>MOLECULE
PRH
   34    36     1     0     0
SMALL
bcc


@<TRIPOS>ATOM
      1 N1         -4.0130   -0.6190   -0.5430 nh        1 PRH     -0.867200
      2 C2         -3.1400   -1.6270   -0.2010 c2        1 PRH      0.698100
      3 N3         -1.8350   -1.5370    0.0360 ne        1 PRH     -0.618100
      4 C4         -1.3560   -0.2320    0.0370 cc        1 PRH      0.188100
      5 C5         -2.1550    0.9140   -0.2450 cd        1 PRH     -0.209600
      6 C6         -3.6110    0.7920   -0.5850 c3        1 PRH      0.510600
      7 O6         -4.3120    1.5890    0.3610 oh        1 PRH     -0.601800
      8 N7         -1.3560    2.0440   -0.0760 na        1 PRH     -0.095100
      9 C8         -0.0980    1.6240    0.2800 cc        1 PRH      0.002400
     10 N9         -0.0620    0.2440    0.3420 na        1 PRH     -0.049100
     11 C1'         1.0710   -0.5780    0.7880 c3        1 PRH      0.206800
     12 C2'         1.5500   -1.6310   -0.2660 c3        1 PRH      0.095100
     13 O2'         1.6240   -2.8980    0.3250 oh        1 PRH     -0.556800
     14 C3'         2.9370   -1.1170   -0.7270 c3        1 PRH      0.087100
     15 O3'         3.9410   -2.0460   -0.3700 oh        1 PRH     -0.581800
     16 C4'         3.2020    0.1630    0.0840 c3        1 PRH      0.081100
     17 O4'         2.1710    0.2680    1.0870 os        1 PRH     -0.397600
     18 C5'         3.2050    1.4180   -0.7880 c3        1 PRH      0.110400
     19 O5'         2.7830    2.5500   -0.0560 oh        1 PRH     -0.614800
     20 HN1        -4.9920   -0.7960   -0.4930 hn        1 PRH      0.463800
     21 H2         -3.5670   -2.6590   -0.1640 h5        1 PRH      0.086800
     22 H6         -3.8150    1.1700   -1.6360 h2        1 PRH      0.082700
     23 HO6        -5.2090    1.7430    0.0320 ho        1 PRH      0.434000
     24 HN7        -1.6610    2.9890   -0.1480 hn        1 PRH      0.359700
     25 H8          0.7850    2.2760    0.4710 h5        1 PRH      0.292000
     26 H1'         0.7600   -1.0710    1.7600 h2        1 PRH      0.141700
     27 H2'         0.8300   -1.7510   -1.1200 h1        1 PRH      0.117700
     28 HO2'        2.3700   -2.9060    0.9470 ho        1 PRH      0.431000
     29 H3'         2.9490   -0.9220   -1.8320 h1        1 PRH      0.077700
     30 HO3'        3.8460   -2.8120   -0.9550 ho        1 PRH      0.435000
     31 H4'         4.1570    0.0790    0.6770 h1        1 PRH      0.124700
     32 H5'1        2.4670    1.3400   -1.6310 h1        1 PRH      0.068200
     33 H5'2        4.2350    1.5750   -1.2070 h1        1 PRH      0.068200
     34 HO5'        3.4140    2.6890    0.6630 ho        1 PRH      0.428000
@<TRIPOS>BOND
     1    1    2 1   
     2    1    6 1   
     3    1   20 1   
     4    2    3 2   
     5    2   21 1   
     6    3    4 1   
     7    4    5 2   
     8    4   10 1   
     9    5    6 1   
    10    5    8 1   
    11    6    7 1   
    12    6   22 1   
    13    7   23 1   
    14    8    9 2   
    15    8   24 1   
    16    9   10 1   
    17    9   25 1   
    18   10   11 1   
    19   11   12 1   
    20   11   17 1   
    21   11   26 1   
    22   12   13 1   
    23   12   14 1   
    24   12   27 1   
    25   13   28 1   
    26   14   15 1   
    27   14   16 1   
    28   14   29 1   
    29   15   30 1   
    30   16   17 1   
    31   16   18 1   
    32   16   31 1   
    33   18   19 1   
    34   18   32 1   
    35   18   33 1   
    36   19   34 1   
@<TRIPOS>SUBSTRUCTURE
     1 PRH         1 TEMP              0 ****  ****    0 ROOT
