@<TRIPOS>MOLECULE
PRH
   34    36     1     0     0
SMALL
bcc


@<TRIPOS>ATOM
      1 N1         -0.3190    0.1040    0.3810 nh        1 PRH     -0.867200
      2 C2          0.9570    0.6040    0.2480 c2        1 PRH      0.698100
      3 N3          1.8870    0.7390    1.1870 ne        1 PRH     -0.618100
      4 C4          1.5260    0.1950    2.4150 cc        1 PRH      0.188100
      5 C5          0.2610   -0.4040    2.6830 cd        1 PRH     -0.209600
      6 C6         -0.8090   -0.4820    1.6340 c3        1 PRH      0.510600
      7 O6         -1.1390   -1.8590    1.5000 oh        1 PRH     -0.601800
      8 N7          0.2910   -0.9000    3.9860 na        1 PRH     -0.095100
      9 C8          1.5200   -0.6080    4.5220 cc        1 PRH      0.002400
     10 N9          2.2890    0.0710    3.5960 na        1 PRH     -0.049100
     11 C1'         3.6960    0.4650    3.7540 c3        1 PRH      0.206800
     12 C2'         3.9530    1.9980    3.5760 c3        1 PRH      0.094100
     13 O2'         4.9860    2.2050    2.6530 oh        1 PRH     -0.556800
     14 C3'         4.3260    2.4970    4.9950 c3        1 PRH      0.087100
     15 O3'         5.6540    2.9810    5.0050 oh        1 PRH     -0.581800
     16 C4'         4.2960    1.2530    5.8990 c3        1 PRH      0.081100
     17 O4'         4.1390    0.0980    5.0510 os        1 PRH     -0.397600
     18 C5'         3.1610    1.3010    6.9220 c3        1 PRH      0.110400
     19 O5'         2.7170    0.0010    7.2550 oh        1 PRH     -0.614800
     20 HN1        -0.8320   -0.1240   -0.4420 hn        1 PRH      0.463800
     21 H2          1.2330    0.9900   -0.7640 h5        1 PRH      0.086800
     22 H6         -1.7280    0.1070    1.9460 h2        1 PRH      0.082700
     23 HO6        -1.9840   -1.9310    1.0340 ho        1 PRH      0.434000
     24 HN7        -0.4330   -1.4220    4.4270 hn        1 PRH      0.359700
     25 H8          1.8630   -0.8490    5.5540 h5        1 PRH      0.292000
     26 H1'         4.2960   -0.1480    3.0130 h2        1 PRH      0.141700
     27 H2'         3.0690    2.5420    3.1470 h1        1 PRH      0.117700
     28 HO2'        5.8230    1.9220    3.0580 ho        1 PRH      0.431000
     29 H3'         3.6110    3.2870    5.3460 h1        1 PRH      0.077700
     30 HO3'        5.6580    3.8240    4.5280 ho        1 PRH      0.435000
     31 H4'         5.2900    1.0930    6.4050 h1        1 PRH      0.124700
     32 H5'1        2.2490    1.8090    6.5070 h1        1 PRH      0.068200
     33 H5'2        3.5090    1.8510    7.8370 h1        1 PRH      0.068200
     34 HO5'        3.4590   -0.4690    7.6590 ho        1 PRH      0.428000
@<TRIPOS>BOND
     1    1    2 1   
     2    1    6 1   
     3    1   20 1   
     4    2    3 2   
     5    2   21 1   
     6    3    4 1   
     7    4    5 2   
     8    4   10 1   
     9    5    6 1   
    10    5    8 1   
    11    6    7 1   
    12    6   22 1   
    13    7   23 1   
    14    8    9 2   
    15    8   24 1   
    16    9   10 1   
    17    9   25 1   
    18   10   11 1   
    19   11   12 1   
    20   11   17 1   
    21   11   26 1   
    22   12   13 1   
    23   12   14 1   
    24   12   27 1   
    25   13   28 1   
    26   14   15 1   
    27   14   16 1   
    28   14   29 1   
    29   15   30 1   
    30   16   17 1   
    31   16   18 1   
    32   16   31 1   
    33   18   19 1   
    34   18   32 1   
    35   18   33 1   
    36   19   34 1   
@<TRIPOS>SUBSTRUCTURE
     1 PRH         1 TEMP              0 ****  ****    0 ROOT
