@<TRIPOS>MOLECULE
PRH
   34    36     1     0     0
SMALL
bcc


@<TRIPOS>ATOM
      1 N1         -0.3120    0.0720    0.3800 nh        1 PRH     -0.867200
      2 C2          0.9620    0.5790    0.2460 c2        1 PRH      0.698100
      3 N3          1.8900    0.7240    1.1860 ne        1 PRH     -0.618100
      4 C4          1.5300    0.1840    2.4160 cc        1 PRH      0.188100
      5 C5          0.2680   -0.4210    2.6860 cd        1 PRH     -0.209600
      6 C6         -0.8000   -0.5110    1.6360 c3        1 PRH      0.510600
      7 O6         -1.1220   -1.8900    1.5090 oh        1 PRH     -0.601800
      8 N7          0.2990   -0.9100    3.9910 na        1 PRH     -0.095100
      9 C8          1.5260   -0.6090    4.5270 cc        1 PRH      0.002400
     10 N9          2.2920    0.0710    3.5990 na        1 PRH     -0.049100
     11 C1'         3.6970    0.4730    3.7570 c3        1 PRH      0.206800
     12 C2'         3.9460    2.0070    3.5710 c3        1 PRH      0.095100
     13 O2'         4.9790    2.2150    2.6480 oh        1 PRH     -0.556800
     14 C3'         4.3140    2.5150    4.9880 c3        1 PRH      0.087100
     15 O3'         5.6380    3.0070    4.9970 oh        1 PRH     -0.581800
     16 C4'         4.2890    1.2760    5.8980 c3        1 PRH      0.081100
     17 O4'         4.1410    0.1150    5.0560 os        1 PRH     -0.397600
     18 C5'         3.1520    1.3230    6.9190 c3        1 PRH      0.110400
     19 O5'         2.7160    0.0220    7.2580 oh        1 PRH     -0.614800
     20 HN1        -0.8230   -0.1630   -0.4420 hn        1 PRH      0.463800
     21 H2          1.2370    0.9610   -0.7670 h5        1 PRH      0.086800
     22 H6         -1.7220    0.0750    1.9440 h2        1 PRH      0.082700
     23 HO6        -1.9650   -1.9700    1.0410 ho        1 PRH      0.434000
     24 HN7        -0.4220   -1.4350    4.4340 hn        1 PRH      0.359700
     25 H8          1.8700   -0.8430    5.5610 h5        1 PRH      0.292000
     26 H1'         4.3010   -0.1400    3.0190 h2        1 PRH      0.141700
     27 H2'         3.0590    2.5430    3.1380 h1        1 PRH      0.117700
     28 HO2'        5.8160    1.9380    3.0560 ho        1 PRH      0.431000
     29 H3'         3.5940    3.3030    5.3340 h1        1 PRH      0.077700
     30 HO3'        5.6380    3.8470    4.5160 ho        1 PRH      0.435000
     31 H4'         5.2840    1.1240    6.4070 h1        1 PRH      0.124700
     32 H5'1        2.2380    1.8230    6.5000 h1        1 PRH      0.068200
     33 H5'2        3.4960    1.8790    7.8310 h1        1 PRH      0.068200
     34 HO5'        3.4600   -0.4420    7.6660 ho        1 PRH      0.428000
@<TRIPOS>BOND
     1    1    2 1   
     2    1    6 1   
     3    1   20 1   
     4    2    3 2   
     5    2   21 1   
     6    3    4 1   
     7    4    5 2   
     8    4   10 1   
     9    5    6 1   
    10    5    8 1   
    11    6    7 1   
    12    6   22 1   
    13    7   23 1   
    14    8    9 2   
    15    8   24 1   
    16    9   10 1   
    17    9   25 1   
    18   10   11 1   
    19   11   12 1   
    20   11   17 1   
    21   11   26 1   
    22   12   13 1   
    23   12   14 1   
    24   12   27 1   
    25   13   28 1   
    26   14   15 1   
    27   14   16 1   
    28   14   29 1   
    29   15   30 1   
    30   16   17 1   
    31   16   18 1   
    32   16   31 1   
    33   18   19 1   
    34   18   32 1   
    35   18   33 1   
    36   19   34 1   
@<TRIPOS>SUBSTRUCTURE
     1 PRH         1 TEMP              0 ****  ****    0 ROOT
