@<TRIPOS>MOLECULE
PRH
   34    36     1     0     0
SMALL
bcc


@<TRIPOS>ATOM
      1 N1         -0.3550    0.1070    0.4110 nu        1 PRH     -0.867200
      2 C2          0.9220    0.5980    0.2620 c2        1 PRH      0.698100
      3 N3          1.8630    0.7310    1.1910 ne        1 PRH     -0.618100
      4 C4          1.5110    0.1950    2.4250 cc        1 PRH      0.188100
      5 C5          0.2440   -0.3940    2.7090 cd        1 PRH     -0.209600
      6 C6         -0.8370   -0.4700    1.6710 c3        1 PRH      0.510600
      7 O6         -1.1780   -1.8440    1.5480 oh        1 PRH     -0.601800
      8 N7          0.2840   -0.8850    4.0130 na        1 PRH     -0.095100
      9 C8          1.5210   -0.5990    4.5360 cc        1 PRH      0.002400
     10 N9          2.2850    0.0710    3.5990 na        1 PRH     -0.049100
     11 C1'         3.6960    0.4560    3.7400 c3        1 PRH      0.206800
     12 C2'         3.9620    1.9870    3.5530 c3        1 PRH      0.094100
     13 O2'         4.9870    2.1820    2.6190 oh        1 PRH     -0.556800
     14 C3'         4.3530    2.4890    4.9660 c3        1 PRH      0.087100
     15 O3'         5.6840    2.9640    4.9600 oh        1 PRH     -0.581800
     16 C4'         4.3240    1.2490    5.8750 c3        1 PRH      0.081100
     17 O4'         4.1510    0.0910    5.0340 os        1 PRH     -0.397600
     18 C5'         3.2000    1.3090    6.9100 c3        1 PRH      0.110400
     19 O5'         2.7510    0.0140    7.2530 oh        1 PRH     -0.614800
     20 HN1        -0.8790   -0.1210   -0.4060 hn        1 PRH      0.463800
     21 H2          1.1910    0.9770   -0.7540 h5        1 PRH      0.086800
     22 H6         -1.7480    0.1280    1.9910 h2        1 PRH      0.082700
     23 HO6        -2.0280   -1.9130    1.0900 ho        1 PRH      0.434000
     24 HN7        -0.4390   -1.4000    4.4640 hn        1 PRH      0.359700
     25 H8          1.8730   -0.8380    5.5650 h5        1 PRH      0.292000
     26 H1'         4.2840   -0.1650    2.9960 h2        1 PRH      0.141700
     27 H2'         3.0770    2.5340    3.1310 h1        1 PRH      0.117700
     28 HO2'        5.8260    1.8950    3.0160 ho        1 PRH      0.431000
     29 H3'         3.6480    3.2850    5.3210 h1        1 PRH      0.077700
     30 HO3'        5.6890    3.8040    4.4790 ho        1 PRH      0.435000
     31 H4'         5.3230    1.0840    6.3720 h1        1 PRH      0.124700
     32 H5'1        2.2870    1.8220    6.5020 h1        1 PRH      0.068200
     33 H5'2        3.5620    1.8600    7.8190 h1        1 PRH      0.068200
     34 HO5'        3.4940   -0.4600    7.6510 ho        1 PRH      0.428000
@<TRIPOS>BOND
     1    1    2 1   
     2    1    6 1   
     3    1   20 1   
     4    2    3 2   
     5    2   21 1   
     6    3    4 1   
     7    4    5 2   
     8    4   10 1   
     9    5    6 1   
    10    5    8 1   
    11    6    7 1   
    12    6   22 1   
    13    7   23 1   
    14    8    9 2   
    15    8   24 1   
    16    9   10 1   
    17    9   25 1   
    18   10   11 1   
    19   11   12 1   
    20   11   17 1   
    21   11   26 1   
    22   12   13 1   
    23   12   14 1   
    24   12   27 1   
    25   13   28 1   
    26   14   15 1   
    27   14   16 1   
    28   14   29 1   
    29   15   30 1   
    30   16   17 1   
    31   16   18 1   
    32   16   31 1   
    33   18   19 1   
    34   18   32 1   
    35   18   33 1   
    36   19   34 1   
@<TRIPOS>SUBSTRUCTURE
     1 PRH         1 TEMP              0 ****  ****    0 ROOT
