@<TRIPOS>MOLECULE
PRI
   16    16     1     0     0
SMALL
bcc


@<TRIPOS>ATOM
      1 CB         -0.1630    0.4360    0.2610 c3        1 PRI     -0.089400
      2 CG          1.3180    0.2550   -0.0450 c3        1 PRI     -0.103400
      3 C          -1.3450   -1.1850    1.7470 c         1 PRI      0.579900
      4 OT1        -2.5300   -1.0070    2.0270 o         1 PRI     -0.532100
      5 N           0.9420   -0.4330    2.2750 n3        1 PRI     -0.799200
      6 CD          1.9290   -0.4070    1.2000 c3        1 PRI      0.146800
      7 CA         -0.3560   -0.0280    1.7260 c3        1 PRI      0.041500
      8 HCB1       -0.4720    1.5040    0.1560 hc        1 PRI      0.055200
      9 HCB2       -0.7940   -0.1700   -0.4340 hc        1 PRI      0.055200
     10 HCG1        1.4700   -0.3880   -0.9450 hc        1 PRI      0.051200
     11 HCG2        1.8060    1.2400   -0.2460 hc        1 PRI      0.051200
     12 HO'T       -0.9410   -2.1850    1.4820 h4        1 PRI      0.013200
     13 HN          1.2060    0.1870    3.0170 hn        1 PRI      0.361800
     14 HCD1        2.8660    0.1250    1.5160 h1        1 PRI      0.049200
     15 HCD2        2.2020   -1.4740    0.9730 h1        1 PRI      0.049200
     16 HCA        -0.8010    0.8140    2.3320 h1        1 PRI      0.068700
@<TRIPOS>BOND
     1    1    2 1   
     2    1    7 1   
     3    1    8 1   
     4    1    9 1   
     5    2    6 1   
     6    2   10 1   
     7    2   11 1   
     8    3    4 2   
     9    3    7 1   
    10    3   12 1   
    11    5    6 1   
    12    5    7 1   
    13    5   13 1   
    14    6   14 1   
    15    6   15 1   
    16    7   16 1   
@<TRIPOS>SUBSTRUCTURE
     1 PRI         1 TEMP              0 ****  ****    0 ROOT
