@<TRIPOS>MOLECULE
PRI
   16    16     1     0     0
SMALL
bcc


@<TRIPOS>ATOM
      1 CB          1.2830    0.2840    0.6120 c3        1 PRI     -0.089400
      2 CG          0.6140   -0.2520    1.8710 c3        1 PRI     -0.103400
      3 C           0.2590   -0.1290   -1.6280 c         1 PRI      0.579900
      4 OT1         0.7830    0.3440   -2.6350 o         1 PRI     -0.532100
      5 N          -1.1510    0.4300    0.3160 n3        1 PRI     -0.799200
      6 CD         -0.8950   -0.2560    1.5780 c3        1 PRI      0.146800
      7 CA          0.1340    0.6830   -0.3460 c3        1 PRI      0.041500
      8 HCB1        1.9390   -0.4900    0.1440 hc        1 PRI      0.055700
      9 HCB2        1.9170    1.1750    0.8380 hc        1 PRI      0.055700
     10 HCG1        0.9690   -1.2830    2.1100 hc        1 PRI      0.051200
     11 HCG2        0.8420    0.3990    2.7510 hc        1 PRI      0.051200
     12 HO'T       -0.1320   -1.1690   -1.5930 h4        1 PRI      0.013200
     13 HN         -1.6300    1.2970    0.4710 hn        1 PRI      0.361800
     14 HCD1       -1.2610   -1.3130    1.4630 h1        1 PRI      0.049200
     15 HCD2       -1.4660    0.2130    2.4240 h1        1 PRI      0.049200
     16 HCA         0.2330    1.7740   -0.6210 h1        1 PRI      0.068700
@<TRIPOS>BOND
     1    1    2 1   
     2    1    7 1   
     3    1    8 1   
     4    1    9 1   
     5    2    6 1   
     6    2   10 1   
     7    2   11 1   
     8    3    4 2   
     9    3    7 1   
    10    3   12 1   
    11    5    6 1   
    12    5    7 1   
    13    5   13 1   
    14    6   14 1   
    15    6   15 1   
    16    7   16 1   
@<TRIPOS>SUBSTRUCTURE
     1 PRI         1 TEMP              0 ****  ****    0 ROOT
