@<TRIPOS>MOLECULE
PRI
   16    16     1     0     0
SMALL
bcc


@<TRIPOS>ATOM
      1 CB         -0.1250    0.2740    0.1440 c3        1 PRI     -0.089400
      2 CG          1.3860    0.1530   -0.0060 c3        1 PRI     -0.103400
      3 C          -1.3520   -1.2020    1.7420 c         1 PRI      0.579900
      4 OT1        -2.5660   -1.0670    1.8870 o         1 PRI     -0.532100
      5 N           0.8310   -0.2290    2.3490 n3        1 PRI     -0.799200
      6 CD          1.9120   -0.2860    1.3700 c3        1 PRI      0.146800
      7 CA         -0.4300    0.0060    1.6380 c3        1 PRI      0.041500
      8 HCB1       -0.4800    1.2940   -0.1410 hc        1 PRI      0.055700
      9 HCB2       -0.6540   -0.4640   -0.5080 hc        1 PRI      0.055700
     10 HCG1        1.6560   -0.5980   -0.7870 hc        1 PRI      0.051200
     11 HCG2        1.8360    1.1320   -0.3040 hc        1 PRI      0.051200
     12 HO'T       -0.8690   -2.1990    1.6630 h4        1 PRI      0.013200
     13 HN          0.9890    0.5040    3.0140 hn        1 PRI      0.361800
     14 HCD1        2.2630   -1.3540    1.3240 h1        1 PRI      0.049200
     15 HCD2        2.7850    0.3460    1.6840 h1        1 PRI      0.049200
     16 HCA        -0.9760    0.8920    2.0760 h1        1 PRI      0.068700
@<TRIPOS>BOND
     1    1    2 1   
     2    1    7 1   
     3    1    8 1   
     4    1    9 1   
     5    2    6 1   
     6    2   10 1   
     7    2   11 1   
     8    3    4 2   
     9    3    7 1   
    10    3   12 1   
    11    5    6 1   
    12    5    7 1   
    13    5   13 1   
    14    6   14 1   
    15    6   15 1   
    16    7   16 1   
@<TRIPOS>SUBSTRUCTURE
     1 PRI         1 TEMP              0 ****  ****    0 ROOT
