@<TRIPOS>MOLECULE
PRI
   16    16     1     0     0
SMALL
bcc


@<TRIPOS>ATOM
      1 CB         -0.1680    0.4360    0.2650 c3        1 PRI     -0.089400
      2 CG          1.3180    0.2830   -0.0350 c3        1 PRI     -0.103400
      3 C          -1.3330   -1.2200    1.7250 c         1 PRI      0.579900
      4 OT1        -2.5230   -1.0640    1.9970 o         1 PRI     -0.532100
      5 N           0.9390   -0.4380    2.2760 n7        1 PRI     -0.799200
      6 CD          1.9320   -0.3850    1.2070 c3        1 PRI      0.146800
      7 CA         -0.3620   -0.0470    1.7220 c3        1 PRI      0.041500
      8 HCB1       -0.4920    1.5010    0.1700 hc        1 PRI      0.055200
      9 HCB2       -0.7850   -0.1710   -0.4410 hc        1 PRI      0.055200
     10 HCG1        1.4850   -0.3480   -0.9410 hc        1 PRI      0.051200
     11 HCG2        1.7920    1.2770   -0.2210 hc        1 PRI      0.051200
     12 HO'T       -0.9110   -2.2110    1.4520 h4        1 PRI      0.013200
     13 HN          1.1880    0.1770    3.0260 hn        1 PRI      0.361800
     14 HCD1        2.2230   -1.4450    0.9690 h1        1 PRI      0.049200
     15 HCD2        2.8580    0.1580    1.5340 h1        1 PRI      0.049200
     16 HCA        -0.8240    0.7810    2.3360 h1        1 PRI      0.068700
@<TRIPOS>BOND
     1    1    2 1   
     2    1    7 1   
     3    1    8 1   
     4    1    9 1   
     5    2    6 1   
     6    2   10 1   
     7    2   11 1   
     8    3    4 2   
     9    3    7 1   
    10    3   12 1   
    11    5    6 1   
    12    5    7 1   
    13    5   13 1   
    14    6   14 1   
    15    6   15 1   
    16    7   16 1   
@<TRIPOS>SUBSTRUCTURE
     1 PRI         1 TEMP              0 ****  ****    0 ROOT
