@<TRIPOS>MOLECULE
PRJ
   27    28     1     0     0
SMALL
bcc


@<TRIPOS>ATOM
      1 O           2.0420    1.1580   -1.1310 o         1 PRJ     -0.839300
      2 N           0.4950   -0.1230    1.3800 n3        1 PRJ     -0.779200
      3 C           2.4080    0.7310   -0.0020 c         1 PRJ      0.934600
      4 CA          1.6820   -0.5160    0.6040 c3        1 PRJ      0.037500
      5 CB          1.2300   -1.4990   -0.4970 c3        1 PRJ     -0.080400
      6 CG         -0.3040   -1.4260   -0.4910 c3        1 PRJ     -0.053700
      7 C11        -0.7550   -0.4250   -1.5380 c3        1 PRJ     -0.091400
      8 C12        -2.1600    0.0800   -1.3130 c3        1 PRJ     -0.096400
      9 C13        -2.2640    0.7040    0.0740 c3        1 PRJ      0.137100
     10 C14        -1.9920   -0.3450    1.1400 c3        1 PRJ     -0.053400
     11 CD         -0.6180   -0.9860    0.9650 c3        1 PRJ      0.171500
     12 O2         -3.5860    1.1960    0.3070 oh        1 PRJ     -0.623800
     13 HA          2.4330   -1.0320    1.2690 h1        1 PRJ      0.016700
     14 HB2         1.6530   -1.1900   -1.4840 hc        1 PRJ      0.040700
     15 HB3         1.5720   -2.5370   -0.2660 hc        1 PRJ      0.040700
     16 HG2        -0.7700   -2.4240   -0.6850 hc        1 PRJ      0.020700
     17 H11        -0.0310    0.4460   -1.5240 hc        1 PRJ      0.074700
     18 H11A       -0.6890   -0.9030   -2.5500 hc        1 PRJ      0.074700
     19 H12        -2.4150    0.8470   -2.0900 hc        1 PRJ      0.023700
     20 H12A       -2.9040   -0.7520   -1.4050 hc        1 PRJ      0.023700
     21 H13        -1.5270    1.5500    0.1710 h1        1 PRJ      0.075700
     22 H14        -2.0780    0.1280    2.1520 hc        1 PRJ      0.036200
     23 H14A       -2.7720   -1.1470    1.0720 hc        1 PRJ      0.036200
     24 HD2        -0.6430   -1.9340    1.5920 h1        1 PRJ     -0.011300
     25 HO2        -3.7330    1.8840   -0.3500 ho        1 PRJ      0.387000
     26 OXT         3.3580    1.2080    0.6770 o         1 PRJ     -0.839300
     27 H           0.6680   -0.2260    2.3600 hn        1 PRJ      0.336800
@<TRIPOS>BOND
     1    1    3 1   
     2    2    4 1   
     3    2   11 1   
     4    2   27 1   
     5    3    4 1   
     6    3   26 1   
     7    4    5 1   
     8    4   13 1   
     9    5    6 1   
    10    5   14 1   
    11    5   15 1   
    12    6    7 1   
    13    6   11 1   
    14    6   16 1   
    15    7    8 1   
    16    7   17 1   
    17    7   18 1   
    18    8    9 1   
    19    8   19 1   
    20    8   20 1   
    21    9   10 1   
    22    9   12 1   
    23    9   21 1   
    24   10   11 1   
    25   10   22 1   
    26   10   23 1   
    27   11   24 1   
    28   12   25 1   
@<TRIPOS>SUBSTRUCTURE
     1 PRJ         1 TEMP              0 ****  ****    0 ROOT
