@<TRIPOS>MOLECULE
PRK
   31    30     1     0     0
SMALL
bcc


@<TRIPOS>ATOM
      1 C          -4.3270   -0.6700   -0.2520 c         1 PRK      0.887600
      2 N          -3.4860    1.6630    0.3100 n3        1 PRK     -0.891800
      3 O          -5.4040   -0.3400    0.3220 o         1 PRK     -0.844300
      4 CA         -3.1820    0.3940   -0.3400 c3        1 PRK      0.018500
      5 CB         -1.8930   -0.2530    0.1680 c3        1 PRK     -0.064400
      6 CD          0.5980   -0.1880    0.2120 c3        1 PRK     -0.099400
      7 CE          1.8350    0.6220   -0.1740 c3        1 PRK      0.084000
      8 CG         -0.6630    0.5610   -0.1700 c3        1 PRK     -0.073400
      9 NZ          3.0720   -0.0860    0.0330 n         1 PRK     -0.564900
     10 CAA         5.9080   -1.0590   -0.4250 c3        1 PRK     -0.090100
     11 OAD         4.2540    1.7210    0.8150 o         1 PRK     -0.623100
     12 CAF         5.3960   -0.3990    0.8280 c3        1 PRK     -0.158400
     13 CAL         4.1970    0.4980    0.5640 c         1 PRK      0.652100
     14 OXT        -4.1160   -1.7970   -0.7800 o         1 PRK     -0.844300
     15 H          -4.4440    1.8850    0.0920 hn        1 PRK      0.330800
     16 H2         -3.4510    1.5270    1.3050 hn        1 PRK      0.330800
     17 HA         -3.0510    0.6250   -1.4380 h1        1 PRK      0.040700
     18 HB2        -1.9500   -0.4070    1.2760 hc        1 PRK      0.046700
     19 HB3        -1.8270   -1.2680   -0.3100 hc        1 PRK      0.046700
     20 HD2         0.6070   -1.1830   -0.3060 hc        1 PRK      0.038700
     21 HD3         0.5980   -0.3850    1.3150 hc        1 PRK      0.038700
     22 HE2         1.7640    0.8980   -1.2670 h1        1 PRK      0.055700
     23 HE3         1.8590    1.5820    0.4180 h1        1 PRK      0.055700
     24 HG2        -0.6510    0.7810   -1.2700 hc        1 PRK      0.040700
     25 HG3        -0.6950    1.5460    0.3640 hc        1 PRK      0.040700
     26 HZ          3.0550   -1.0700   -0.0860 hn        1 PRK      0.304500
     27 HAA         5.1680   -1.7930   -0.8290 hc        1 PRK      0.038033
     28 HAAA        6.1140   -0.2980   -1.2160 hc        1 PRK      0.038033
     29 HAAB        6.8570   -1.6070   -0.2050 hc        1 PRK      0.038033
     30 HAF         5.1140   -1.1730    1.5890 hc        1 PRK      0.064200
     31 HAFA        6.1990    0.2440    1.2760 hc        1 PRK      0.064200
@<TRIPOS>BOND
     1    1    3 1   
     2    1    4 1   
     3    1   14 1   
     4    2    4 1   
     5    2   15 1   
     6    2   16 1   
     7    4    5 1   
     8    4   17 1   
     9    5    8 1   
    10    5   18 1   
    11    5   19 1   
    12    6    7 1   
    13    6    8 1   
    14    6   20 1   
    15    6   21 1   
    16    7    9 1   
    17    7   22 1   
    18    7   23 1   
    19    8   24 1   
    20    8   25 1   
    21    9   13 1   
    22    9   26 1   
    23   10   12 1   
    24   10   27 1   
    25   10   28 1   
    26   10   29 1   
    27   11   13 2   
    28   12   13 1   
    29   12   30 1   
    30   12   31 1   
@<TRIPOS>SUBSTRUCTURE
     1 PRK         1 TEMP              0 ****  ****    0 ROOT
