@<TRIPOS>MOLECULE
PRL
   27    29     1     0     0
SMALL
bcc


@<TRIPOS>ATOM
      1 C1          0.0310    0.0700   -0.0110 ca        1 PRL     -0.077000
      2 C2          1.3890    0.0250   -0.0440 ca        1 PRL     -0.167000
      3 C3          2.1520   -0.0540    1.1820 ca        1 PRL      0.154600
      4 C4          1.4890   -0.0700    2.3970 ca        1 PRL     -0.272300
      5 C5         -2.5820   -0.0370    4.9900 ca        1 PRL     -0.272300
      6 C6         -3.9620    0.0130    5.0780 ca        1 PRL      0.154600
      7 C7         -4.7510    0.0760    3.8670 ca        1 PRL     -0.167000
      8 C8         -4.1460    0.1010    2.6500 ca        1 PRL     -0.077000
      9 C9         -2.0800    0.0870    1.2840 ca        1 PRL     -0.039000
     10 N10        -0.5600   -0.0520    3.6720 nb        1 PRL     -0.687000
     11 C11         0.0520   -0.0280    2.4620 ca        1 PRL      0.469600
     12 C12        -2.7240    0.0610    2.5240 ca        1 PRL     -0.195300
     13 C13        -0.6840    0.0440    1.2250 ca        1 PRL     -0.195300
     14 C14        -1.9150   -0.0080    3.7160 ca        1 PRL      0.469600
     15 N15         3.5410   -0.1900    1.1060 nv        1 PRL     -0.821200
     16 N16        -4.6130    0.0820    6.3130 nv        1 PRL     -0.821200
     17 H1         -0.5520    0.1280   -0.9440 ha        1 PRL      0.132000
     18 H2          1.9250    0.0400   -1.0060 ha        1 PRL      0.134000
     19 H4          2.0460   -0.1250    3.3450 ha        1 PRL      0.150000
     20 H5         -1.9580   -0.0890    5.8960 ha        1 PRL      0.150000
     21 H7         -5.8480    0.1130    3.9470 ha        1 PRL      0.134000
     22 H8         -4.7450    0.1510    1.7260 ha        1 PRL      0.132000
     23 H9         -2.6710    0.1410    0.3560 ha        1 PRL      0.134000
     24 HNF1        3.9530    0.2070    0.2930 hn        1 PRL      0.393300
     25 HNF2        4.0270    0.0270    1.9480 hn        1 PRL      0.393300
     26 HNG1       -5.5450   -0.2680    6.3110 hn        1 PRL      0.393300
     27 HNG2       -4.0710   -0.2300    7.0870 hn        1 PRL      0.393300
@<TRIPOS>BOND
     1    1    2 ar  
     2    1   13 ar  
     3    1   17 1   
     4    2    3 ar  
     5    2   18 1   
     6    3    4 ar  
     7    3   15 1   
     8    4   11 ar  
     9    4   19 1   
    10    5    6 ar  
    11    5   14 ar  
    12    5   20 1   
    13    6    7 ar  
    14    6   16 1   
    15    7    8 ar  
    16    7   21 1   
    17    8   12 ar  
    18    8   22 1   
    19    9   12 ar  
    20    9   13 ar  
    21    9   23 1   
    22   10   11 ar  
    23   10   14 ar  
    24   11   13 ar  
    25   12   14 ar  
    26   15   24 1   
    27   15   25 1   
    28   16   26 1   
    29   16   27 1   
@<TRIPOS>SUBSTRUCTURE
     1 PRL         1 TEMP              0 ****  ****    0 ROOT
