@<TRIPOS>MOLECULE
PRL
   29    31     1     0     0
SMALL
bcc


@<TRIPOS>ATOM
      1 C1          0.0240   -0.0040   -0.0270 ca        1 PRL     -0.040000
      2 C2          1.3870   -0.0000   -0.0570 ca        1 PRL     -0.141000
      3 C3          2.1180    0.0110    1.1800 ca        1 PRL     -0.026400
      4 C4          1.4870    0.0170    2.4010 ca        1 PRL     -0.109300
      5 C5         -2.5870    0.0230    4.9870 ca        1 PRL     -0.109300
      6 C6         -3.9590    0.0190    5.0380 ca        1 PRL     -0.026400
      7 C7         -4.7680    0.0080    3.8500 ca        1 PRL     -0.141000
      8 C8         -4.1600    0.0010    2.6290 ca        1 PRL     -0.040000
      9 C9         -2.0900   -0.0020    1.2660 ca        1 PRL     -0.020000
     10 N10        -0.5690    0.0200    3.6630 nb        1 PRL     -0.620000
     11 C11         0.0410    0.0130    2.4530 ca        1 PRL      0.424600
     12 C12        -2.7350    0.0050    2.5110 ca        1 PRL     -0.133300
     13 C13        -0.6900    0.0020    1.2120 ca        1 PRL     -0.133300
     14 C14        -1.9230    0.0160    3.7000 ca        1 PRL      0.424600
     15 N15         3.5820    0.0150    1.1000 n4        1 PRL     -0.710000
     16 N16        -4.6550    0.0250    6.3280 n4        1 PRL     -0.710000
     17 H1         -0.5560   -0.0120   -0.9680 ha        1 PRL      0.184000
     18 H2          1.9230   -0.0050   -1.0210 ha        1 PRL      0.175000
     19 H4          2.0380    0.0260    3.3600 ha        1 PRL      0.184000
     20 H5         -1.9530    0.0310    5.8930 ha        1 PRL      0.184000
     21 H7         -5.8690    0.0050    3.9250 ha        1 PRL      0.175000
     22 H8         -4.7650   -0.0070    1.7040 ha        1 PRL      0.184000
     23 H9         -2.6820   -0.0100    0.3340 ha        1 PRL      0.181000
     24 HNF1        3.9990    0.0230    2.0380 hn        1 PRL      0.474800
     25 HNF2        3.8930    0.8500    0.5850 hn        1 PRL      0.474800
     26 HNG1       -3.9830    0.0330    7.1050 hn        1 PRL      0.474800
     27 HNG2       -5.2470   -0.8130    6.4010 hn        1 PRL      0.474800
     28 H153        3.8980   -0.8250    0.5970 hn        1 PRL      0.474800
     29 H163       -5.2520    0.8620    6.3900 hn        1 PRL      0.474800
@<TRIPOS>BOND
     1    1    2 ar  
     2    1   13 ar  
     3    1   17 1   
     4    2    3 ar  
     5    2   18 1   
     6    3    4 ar  
     7    3   15 1   
     8    4   11 ar  
     9    4   19 1   
    10    5    6 ar  
    11    5   14 ar  
    12    5   20 1   
    13    6    7 ar  
    14    6   16 1   
    15    7    8 ar  
    16    7   21 1   
    17    8   12 ar  
    18    8   22 1   
    19    9   12 ar  
    20    9   13 ar  
    21    9   23 1   
    22   10   11 ar  
    23   10   14 ar  
    24   11   13 ar  
    25   12   14 ar  
    26   15   24 1   
    27   15   25 1   
    28   15   28 1   
    29   16   26 1   
    30   16   27 1   
    31   16   29 1   
@<TRIPOS>SUBSTRUCTURE
     1 PRL         1 TEMP              0 ****  ****    0 ROOT
