@<TRIPOS>MOLECULE
PRL
   27    29     1     0     0
SMALL
bcc


@<TRIPOS>ATOM
      1 C1          1.6110   -0.0290    2.4760 ca        1 PRL     -0.077000
      2 C2          0.9090   -0.0440    3.6400 ca        1 PRL     -0.167000
      3 C3         -0.5370   -0.0530    3.6240 ca        1 PRL      0.154600
      4 C4         -1.2060   -0.0290    2.4130 ca        1 PRL     -0.272300
      5 C5         -1.2060    0.0290   -2.4130 ca        1 PRL     -0.272300
      6 C6         -0.5370    0.0530   -3.6240 ca        1 PRL      0.154600
      7 C7          0.9090    0.0440   -3.6400 ca        1 PRL     -0.167000
      8 C8          1.6110    0.0280   -2.4760 ca        1 PRL     -0.077000
      9 C9          1.6540   -0.0000   -0.0000 ca        1 PRL     -0.039000
     10 N10        -1.1810    0.0000    0.0000 nb        1 PRL     -0.687000
     11 C11        -0.4880   -0.0160    1.1660 ca        1 PRL      0.469600
     12 C12         0.9530    0.0150   -1.2090 ca        1 PRL     -0.195300
     13 C13         0.9530   -0.0150    1.2090 ca        1 PRL     -0.195300
     14 C14        -0.4880    0.0160   -1.1660 ca        1 PRL      0.469600
     15 N15        -1.2250   -0.1610    4.8360 nh        1 PRL     -0.821200
     16 N16        -1.2250    0.1620   -4.8360 nh        1 PRL     -0.821200
     17 H1          2.7130   -0.0250    2.4850 ha        1 PRL      0.132000
     18 H2          1.4320   -0.0610    4.6080 ha        1 PRL      0.134000
     19 H4         -2.3070   -0.0300    2.3730 ha        1 PRL      0.150000
     20 H5         -2.3070    0.0310   -2.3730 ha        1 PRL      0.150000
     21 H7          1.4320    0.0610   -4.6080 ha        1 PRL      0.134000
     22 H8          2.7130    0.0240   -2.4850 ha        1 PRL      0.132000
     23 H9          2.7550   -0.0010   -0.0000 ha        1 PRL      0.134000
     24 HNF1       -0.7410    0.2080    5.6230 hn        1 PRL      0.393300
     25 HNF2       -2.1840    0.1040    4.7960 hn        1 PRL      0.393300
     26 HNG1       -0.7410   -0.2080   -5.6230 hn        1 PRL      0.393300
     27 HNG2       -2.1840   -0.1030   -4.7960 hn        1 PRL      0.393300
@<TRIPOS>BOND
     1    1    2 ar  
     2    1   13 ar  
     3    1   17 1   
     4    2    3 ar  
     5    2   18 1   
     6    3    4 ar  
     7    3   15 1   
     8    4   11 ar  
     9    4   19 1   
    10    5    6 ar  
    11    5   14 ar  
    12    5   20 1   
    13    6    7 ar  
    14    6   16 1   
    15    7    8 ar  
    16    7   21 1   
    17    8   12 ar  
    18    8   22 1   
    19    9   12 ar  
    20    9   13 ar  
    21    9   23 1   
    22   10   11 ar  
    23   10   14 ar  
    24   11   13 ar  
    25   12   14 ar  
    26   15   24 1   
    27   15   25 1   
    28   16   26 1   
    29   16   27 1   
@<TRIPOS>SUBSTRUCTURE
     1 PRL         1 TEMP              0 ****  ****    0 ROOT
