@<TRIPOS>MOLECULE
PRL
   27    29     1     0     0
SMALL
bcc


@<TRIPOS>ATOM
      1 C1          0.0290    0.0760   -0.0110 ca        1 PRL     -0.077000
      2 C2          1.3880    0.0340   -0.0460 ca        1 PRL     -0.167000
      3 C3          2.1510   -0.0460    1.1800 ca        1 PRL      0.154600
      4 C4          1.4890   -0.0650    2.3950 ca        1 PRL     -0.272300
      5 C5         -2.5800   -0.0430    4.9910 ca        1 PRL     -0.272300
      6 C6         -3.9610    0.0050    5.0800 ca        1 PRL      0.154600
      7 C7         -4.7500    0.0680    3.8690 ca        1 PRL     -0.167000
      8 C8         -4.1460    0.0960    2.6520 ca        1 PRL     -0.077000
      9 C9         -2.0810    0.0880    1.2850 ca        1 PRL     -0.039000
     10 N10        -0.5590   -0.0520    3.6720 nb        1 PRL     -0.687000
     11 C11         0.0520   -0.0250    2.4610 ca        1 PRL      0.469600
     12 C12        -2.7240    0.0590    2.5250 ca        1 PRL     -0.195300
     13 C13        -0.6850    0.0480    1.2250 ca        1 PRL     -0.195300
     14 C14        -1.9140   -0.0110    3.7160 ca        1 PRL      0.469600
     15 N15         3.5400   -0.1800    1.1030 nh        1 PRL     -0.821200
     16 N16        -4.6110    0.0700    6.3150 nh        1 PRL     -0.821200
     17 H1         -0.5540    0.1340   -0.9440 ha        1 PRL      0.132000
     18 H2          1.9230    0.0510   -1.0070 ha        1 PRL      0.134000
     19 H4          2.0460   -0.1210    3.3430 ha        1 PRL      0.150000
     20 H5         -1.9560   -0.0960    5.8960 ha        1 PRL      0.150000
     21 H7         -5.8470    0.1030    3.9500 ha        1 PRL      0.134000
     22 H8         -4.7450    0.1470    1.7290 ha        1 PRL      0.132000
     23 H9         -2.6720    0.1430    0.3570 ha        1 PRL      0.134000
     24 HNF1        3.9510    0.2190    0.2900 hn        1 PRL      0.393300
     25 HNF2        4.0260    0.0370    1.9440 hn        1 PRL      0.393300
     26 HNG1       -5.5420   -0.2810    6.3130 hn        1 PRL      0.393300
     27 HNG2       -4.0670   -0.2420    7.0880 hn        1 PRL      0.393300
@<TRIPOS>BOND
     1    1    2 ar  
     2    1   13 ar  
     3    1   17 1   
     4    2    3 ar  
     5    2   18 1   
     6    3    4 ar  
     7    3   15 1   
     8    4   11 ar  
     9    4   19 1   
    10    5    6 ar  
    11    5   14 ar  
    12    5   20 1   
    13    6    7 ar  
    14    6   16 1   
    15    7    8 ar  
    16    7   21 1   
    17    8   12 ar  
    18    8   22 1   
    19    9   12 ar  
    20    9   13 ar  
    21    9   23 1   
    22   10   11 ar  
    23   10   14 ar  
    24   11   13 ar  
    25   12   14 ar  
    26   15   24 1   
    27   15   25 1   
    28   16   26 1   
    29   16   27 1   
@<TRIPOS>SUBSTRUCTURE
     1 PRL         1 TEMP              0 ****  ****    0 ROOT
