@<TRIPOS>MOLECULE
PRM
   65    68     1     0     0
SMALL
bcc


@<TRIPOS>ATOM
      1 C16        -0.0480    0.2100    0.0690 ca        1 PRM     -0.104000
      2 C17         1.3670    0.1080    0.0290 ca        1 PRM      0.020000
      3 C18         2.0700    0.1630    1.2640 ca        1 PRM     -0.052000
      4 C19         1.3740    0.3280    2.4820 ca        1 PRM     -0.214000
      5 C20        -0.0260    0.4310    2.5060 ca        1 PRM      0.225600
      6 C21        -0.7260    0.3660    1.2490 ca        1 PRM     -0.103000
      7 C22         3.4970    0.0510    1.2590 cp        1 PRM      0.166700
      8 N23         4.1940   -0.0900    0.0980 na        1 PRM     -0.003100
      9 C24         3.5310   -0.1190   -1.1490 ca        1 PRM      0.042700
     10 C25         2.1090   -0.0350   -1.1830 ca        1 PRM     -0.069000
     11 C26         4.2620   -0.2200   -2.3580 ca        1 PRM     -0.291000
     12 C27         3.6070   -0.2440   -3.6020 ca        1 PRM      0.253600
     13 C28         2.1720   -0.1850   -3.6200 ca        1 PRM     -0.164000
     14 C29         1.4710   -0.0840   -2.4520 ca        1 PRM     -0.047000
     15 C30         4.2090    0.1030    2.5550 cp        1 PRM     -0.145000
     16 C31         4.2690   -1.0380    3.3640 ca        1 PRM     -0.107000
     17 C32         4.8820   -0.9660    4.6140 ca        1 PRM     -0.123500
     18 C33         5.4320    0.2380    5.0580 ca        1 PRM     -0.087000
     19 C34         5.3710    1.3750    4.2500 ca        1 PRM     -0.123500
     20 C35         4.7620    1.3130    2.9980 ca        1 PRM     -0.107000
     21 N36        -0.7190    0.5610    3.6760 nv        1 PRM     -0.852200
     22 N37         4.3040   -0.3750   -4.7740 nv        1 PRM     -0.841200
     23 C41         5.6510   -0.2120    0.1310 c3        1 PRM      0.000300
     24 C42         6.1510   -1.6510   -0.0620 c3        1 PRM     -0.122400
     25 C43         7.6750   -1.6290   -0.0300 c3        1 PRM      0.112800
     26 N44         8.3570   -2.9520   -0.2650 n4        1 PRM     -0.608800
     27 C44         9.8510   -2.7060   -0.1590 c3        1 PRM      0.117300
     28 C45        10.7270   -3.9360   -0.2360 c3        1 PRM     -0.130600
     29 C46         8.0380   -3.4500   -1.6360 c3        1 PRM      0.085100
     30 C47         7.9090   -3.9890    0.7340 c3        1 PRM      0.117300
     31 C48         8.1750   -3.6570    2.1850 c3        1 PRM     -0.130600
     32 H16        -0.6270    0.1680   -0.8690 ha        1 PRM      0.161000
     33 H19         1.9470    0.3760    3.4220 ha        1 PRM      0.161000
     34 H21        -1.8270    0.4440    1.2400 ha        1 PRM      0.169000
     35 H26         5.3600   -0.2660   -2.3510 ha        1 PRM      0.129000
     36 H28         1.6370   -0.2170   -4.5850 ha        1 PRM      0.171000
     37 H29         0.3690   -0.0320   -2.5010 ha        1 PRM      0.166000
     38 H31         3.8110   -1.9820    3.0280 ha        1 PRM      0.150000
     39 H32         4.9160   -1.8590    5.2600 ha        1 PRM      0.164000
     40 H33         5.9040    0.2940    6.0540 ha        1 PRM      0.167000
     41 H34         5.7930    2.3290    4.6070 ha        1 PRM      0.164000
     42 H35         4.6960    2.2180    2.3740 ha        1 PRM      0.150000
     43 H361       -0.2330    0.6820    4.5300 hn        1 PRM      0.451300
     44 H362       -1.6990    0.7060    3.6590 hn        1 PRM      0.451300
     45 H371        5.2810   -0.2100   -4.7800 hn        1 PRM      0.442300
     46 H372        3.8170   -0.2740   -5.6340 hn        1 PRM      0.442300
     47 H411        6.0300    0.1740    1.1230 h1        1 PRM      0.098700
     48 H412        6.0800    0.4620   -0.6660 h1        1 PRM      0.098700
     49 H421        5.7710   -2.0570   -1.0370 hc        1 PRM      0.083200
     50 H422        5.7510   -2.2990    0.7630 hc        1 PRM      0.083200
     51 H431        8.0540   -0.9190   -0.8220 hx        1 PRM      0.100700
     52 H432        8.0160   -1.2520    0.9780 hx        1 PRM      0.100700
     53 H441       10.0320   -2.1860    0.8260 hx        1 PRM      0.099700
     54 H442       10.1220   -1.9980   -0.9950 hx        1 PRM      0.099700
     55 H451       10.5780   -4.5110   -1.1820 hc        1 PRM      0.079533
     56 H452       10.5690   -4.6180    0.6350 hc        1 PRM      0.079533
     57 H453       11.7940   -3.5890   -0.2110 hc        1 PRM      0.079533
     58 H461        8.3330   -2.6770   -2.3930 hx        1 PRM      0.102033
     59 H462        8.6060   -4.3990   -1.8330 hx        1 PRM      0.102033
     60 H463        6.9390   -3.6630   -1.7170 hx        1 PRM      0.102033
     61 H471        6.8030   -4.1460    0.5750 hx        1 PRM      0.099700
     62 H472        8.4380   -4.9510    0.4660 hx        1 PRM      0.099700
     63 H481        9.2650   -3.5240    2.3920 hc        1 PRM      0.079533
     64 H482        7.6270   -2.7420    2.5130 hc        1 PRM      0.079533
     65 H483        7.8130   -4.5210    2.8020 hc        1 PRM      0.079533
@<TRIPOS>BOND
     1    1    2 ar  
     2    1    6 ar  
     3    1   32 1   
     4    2    3 ar  
     5    2   10 ar  
     6    3    4 ar  
     7    3    7 ar  
     8    4    5 ar  
     9    4   33 1   
    10    5    6 ar  
    11    5   21 1   
    12    6   34 1   
    13    7    8 1   
    14    7   15 1   
    15    8    9 2   
    16    8   23 1   
    17    9   10 ar  
    18    9   11 ar  
    19   10   14 ar  
    20   11   12 ar  
    21   11   35 1   
    22   12   13 ar  
    23   12   22 1   
    24   13   14 ar  
    25   13   36 1   
    26   14   37 1   
    27   15   16 ar  
    28   15   20 ar  
    29   16   17 ar  
    30   16   38 1   
    31   17   18 ar  
    32   17   39 1   
    33   18   19 ar  
    34   18   40 1   
    35   19   20 ar  
    36   19   41 1   
    37   20   42 1   
    38   21   43 1   
    39   21   44 1   
    40   22   45 1   
    41   22   46 1   
    42   23   24 1   
    43   23   47 1   
    44   23   48 1   
    45   24   25 1   
    46   24   49 1   
    47   24   50 1   
    48   25   26 1   
    49   25   51 1   
    50   25   52 1   
    51   26   27 1   
    52   26   29 1   
    53   26   30 1   
    54   27   28 1   
    55   27   53 1   
    56   27   54 1   
    57   28   55 1   
    58   28   56 1   
    59   28   57 1   
    60   29   58 1   
    61   29   59 1   
    62   29   60 1   
    63   30   31 1   
    64   30   61 1   
    65   30   62 1   
    66   31   63 1   
    67   31   64 1   
    68   31   65 1   
@<TRIPOS>SUBSTRUCTURE
     1 PRM         1 TEMP              0 ****  ****    0 ROOT
