@<TRIPOS>MOLECULE
PRM
   65    68     1     0     0
SMALL
bcc


@<TRIPOS>ATOM
      1 C16        -0.0450    0.2140    0.0460 ca        1 PRM     -0.104000
      2 C17         1.3700    0.1120    0.0150 ca        1 PRM      0.020000
      3 C18         2.0650    0.1560    1.2550 ca        1 PRM     -0.052000
      4 C19         1.3610    0.3110    2.4700 ca        1 PRM     -0.214000
      5 C20        -0.0380    0.4140    2.4860 ca        1 PRM      0.225600
      6 C21        -0.7310    0.3600    1.2230 ca        1 PRM     -0.103000
      7 C22         3.4910    0.0450    1.2580 cp        1 PRM      0.166700
      8 N23         4.1970   -0.0880    0.1010 na        1 PRM     -0.003100
      9 C24         3.5410   -0.1060   -1.1510 ca        1 PRM      0.042700
     10 C25         2.1190   -0.0200   -1.1930 ca        1 PRM     -0.069000
     11 C26         4.2800   -0.1960   -2.3560 ca        1 PRM     -0.291000
     12 C27         3.6330   -0.2090   -3.6050 ca        1 PRM      0.253600
     13 C28         2.1990   -0.1500   -3.6310 ca        1 PRM     -0.164000
     14 C29         1.4900   -0.0580   -2.4670 ca        1 PRM     -0.047000
     15 C30         4.1960    0.0850    2.5590 cp        1 PRM     -0.145000
     16 C31         4.2500   -1.0630    3.3590 ca        1 PRM     -0.107000
     17 C32         4.8560   -1.0020    4.6130 ca        1 PRM     -0.123500
     18 C33         5.4030    0.1980    5.0710 ca        1 PRM     -0.087000
     19 C34         5.3470    1.3410    4.2730 ca        1 PRM     -0.123500
     20 C35         4.7460    1.2910    3.0160 ca        1 PRM     -0.107000
     21 N36        -0.7390    0.5350    3.6520 nh        1 PRM     -0.852200
     22 N37         4.3380   -0.3310   -4.7730 nh        1 PRM     -0.841200
     23 C41         5.6530   -0.2100    0.1420 c3        1 PRM      0.000300
     24 C42         6.1540   -1.6470   -0.0600 c3        1 PRM     -0.122400
     25 C43         7.6780   -1.6260   -0.0210 c3        1 PRM      0.112800
     26 N44         8.3610   -2.9480   -0.2580 n4        1 PRM     -0.608800
     27 C44         9.8540   -2.7000   -0.1500 c3        1 PRM      0.117300
     28 C45        10.7310   -3.9300   -0.2270 c3        1 PRM     -0.130600
     29 C46         8.0430   -3.4440   -1.6290 c3        1 PRM      0.085100
     30 C47         7.9130   -3.9860    0.7400 c3        1 PRM      0.117300
     31 C48         8.1790   -3.6560    2.1920 c3        1 PRM     -0.130600
     32 H16        -0.6180    0.1800   -0.8950 ha        1 PRM      0.161000
     33 H19         1.9280    0.3510    3.4140 ha        1 PRM      0.161000
     34 H21        -1.8320    0.4380    1.2080 ha        1 PRM      0.169000
     35 H26         5.3780   -0.2430   -2.3420 ha        1 PRM      0.129000
     36 H28         1.6700   -0.1730   -4.5990 ha        1 PRM      0.171000
     37 H29         0.3880   -0.0060   -2.5220 ha        1 PRM      0.166000
     38 H31         3.7940   -2.0040    3.0120 ha        1 PRM      0.150000
     39 H32         4.8850   -1.9000    5.2510 ha        1 PRM      0.164000
     40 H33         5.8680    0.2450    6.0700 ha        1 PRM      0.167000
     41 H34         5.7670    2.2930    4.6400 ha        1 PRM      0.164000
     42 H35         4.6840    2.2010    2.3990 ha        1 PRM      0.150000
     43 H361       -0.2590    0.6490    4.5100 hn        1 PRM      0.451300
     44 H362       -1.7190    0.6800    3.6300 hn        1 PRM      0.451300
     45 H371        5.3140   -0.1660   -4.7710 hn        1 PRM      0.442300
     46 H372        3.8570   -0.2210   -5.6350 hn        1 PRM      0.442300
     47 H411        6.0870    0.4700   -0.6470 h1        1 PRM      0.098700
     48 H412        6.0260    0.1680    1.1400 h1        1 PRM      0.098700
     49 H421        5.7500   -2.3010    0.7580 hc        1 PRM      0.083200
     50 H422        5.7790   -2.0460   -1.0400 hc        1 PRM      0.083200
     51 H431        8.0600   -0.9130   -0.8090 hx        1 PRM      0.100700
     52 H432        8.0140   -1.2510    0.9900 hx        1 PRM      0.100700
     53 H441       10.1260   -1.9930   -0.9870 hx        1 PRM      0.099700
     54 H442       10.0340   -2.1800    0.8350 hx        1 PRM      0.099700
     55 H451       10.5740   -4.6110    0.6450 hc        1 PRM      0.079533
     56 H452       10.5840   -4.5050   -1.1720 hc        1 PRM      0.079533
     57 H453       11.7980   -3.5820   -0.2020 hc        1 PRM      0.079533
     58 H461        8.6140   -4.3910   -1.8280 hx        1 PRM      0.102033
     59 H462        6.9450   -3.6600   -1.7110 hx        1 PRM      0.102033
     60 H463        8.3360   -2.6690   -2.3850 hx        1 PRM      0.102033
     61 H471        6.8070   -4.1440    0.5810 hx        1 PRM      0.099700
     62 H472        8.4430   -4.9480    0.4710 hx        1 PRM      0.099700
     63 H481        7.6280   -2.7430    2.5210 hc        1 PRM      0.079533
     64 H482        7.8180   -4.5210    2.8070 hc        1 PRM      0.079533
     65 H483        9.2690   -3.5210    2.3980 hc        1 PRM      0.079533
@<TRIPOS>BOND
     1    1    2 ar  
     2    1    6 ar  
     3    1   32 1   
     4    2    3 ar  
     5    2   10 ar  
     6    3    4 ar  
     7    3    7 ar  
     8    4    5 ar  
     9    4   33 1   
    10    5    6 ar  
    11    5   21 1   
    12    6   34 1   
    13    7    8 1   
    14    7   15 1   
    15    8    9 2   
    16    8   23 1   
    17    9   10 ar  
    18    9   11 ar  
    19   10   14 ar  
    20   11   12 ar  
    21   11   35 1   
    22   12   13 ar  
    23   12   22 1   
    24   13   14 ar  
    25   13   36 1   
    26   14   37 1   
    27   15   16 ar  
    28   15   20 ar  
    29   16   17 ar  
    30   16   38 1   
    31   17   18 ar  
    32   17   39 1   
    33   18   19 ar  
    34   18   40 1   
    35   19   20 ar  
    36   19   41 1   
    37   20   42 1   
    38   21   43 1   
    39   21   44 1   
    40   22   45 1   
    41   22   46 1   
    42   23   24 1   
    43   23   47 1   
    44   23   48 1   
    45   24   25 1   
    46   24   49 1   
    47   24   50 1   
    48   25   26 1   
    49   25   51 1   
    50   25   52 1   
    51   26   27 1   
    52   26   29 1   
    53   26   30 1   
    54   27   28 1   
    55   27   53 1   
    56   27   54 1   
    57   28   55 1   
    58   28   56 1   
    59   28   57 1   
    60   29   58 1   
    61   29   59 1   
    62   29   60 1   
    63   30   31 1   
    64   30   61 1   
    65   30   62 1   
    66   31   63 1   
    67   31   64 1   
    68   31   65 1   
@<TRIPOS>SUBSTRUCTURE
     1 PRM         1 TEMP              0 ****  ****    0 ROOT
