@<TRIPOS>MOLECULE
PRM
   67    70     1     0     0
SMALL
bcc


@<TRIPOS>ATOM
      1 C16        -0.0990    0.4220    0.0040 ca        1 PRM     -0.091000
      2 C17         1.2960    0.2300   -0.0660 ca        1 PRM      0.062000
      3 C18         2.0240    0.0790    1.1390 ca        1 PRM     -0.112000
      4 C19         1.3580    0.1440    2.3870 ca        1 PRM     -0.012000
      5 C20        -0.0210    0.3520    2.4250 ca        1 PRM     -0.030400
      6 C21        -0.7570    0.4850    1.2210 ca        1 PRM     -0.023000
      7 C22         3.4620   -0.1190    1.0910 cp        1 PRM      0.266700
      8 N23         4.1280   -0.1830   -0.0860 na        1 PRM      0.007900
      9 C24         3.4340   -0.0280   -1.3210 ca        1 PRM      0.010700
     10 C25         2.0240    0.1930   -1.3190 ca        1 PRM     -0.009000
     11 C26         4.1200   -0.0680   -2.5640 ca        1 PRM     -0.104000
     12 C27         3.4270    0.1600   -3.7570 ca        1 PRM      0.013600
     13 C28         2.0340    0.3880   -3.7540 ca        1 PRM     -0.073000
     14 C29         1.3590    0.3910   -2.5460 ca        1 PRM     -0.044000
     15 C30         4.1760   -0.2230    2.3780 cp        1 PRM     -0.224000
     16 C31         4.1940   -1.4430    3.0710 ca        1 PRM     -0.109500
     17 C32         4.8090   -1.5140    4.3200 ca        1 PRM     -0.112000
     18 C33         5.4040   -0.3790    4.8800 ca        1 PRM     -0.054000
     19 C34         5.3910    0.8330    4.1830 ca        1 PRM     -0.112000
     20 C35         4.7820    0.9170    2.9320 ca        1 PRM     -0.109500
     21 N36        -0.7350    0.4410    3.7010 n4        1 PRM     -0.714000
     22 N37         4.1250    0.1770   -5.0460 n4        1 PRM     -0.718000
     23 C41         5.5980   -0.3120   -0.0770 c3        1 PRM     -0.013700
     24 C42         6.1290   -1.7500   -0.1550 c3        1 PRM     -0.114400
     25 C43         7.6580   -1.6940   -0.0810 c3        1 PRM      0.108800
     26 N44         8.3790   -3.0120   -0.0070 n4        1 PRM     -0.612800
     27 C44         9.8600   -2.7250   -0.2280 c3        1 PRM      0.121300
     28 C45        10.7850   -3.9090   -0.0590 c3        1 PRM     -0.136100
     29 C46         7.8940   -3.9250   -1.0830 c3        1 PRM      0.082100
     30 C47         8.1610   -3.6890    1.3250 c3        1 PRM      0.121300
     31 C48         8.7270   -2.9740    2.5320 c3        1 PRM     -0.136100
     32 H16        -0.7080    0.5280   -0.9140 ha        1 PRM      0.201000
     33 H19         1.9540    0.0290    3.3140 ha        1 PRM      0.197000
     34 H21        -1.8560    0.6420    1.2320 ha        1 PRM      0.210000
     35 H26         5.2030   -0.2820   -2.5990 ha        1 PRM      0.167000
     36 H28         1.4690    0.5640   -4.6920 ha        1 PRM      0.213000
     37 H29         0.2660    0.5660   -2.5700 ha        1 PRM      0.205000
     38 H31         3.7230   -2.3410    2.6420 ha        1 PRM      0.155000
     39 H32         4.8160   -2.4700    4.8750 ha        1 PRM      0.192000
     40 H33         5.8820   -0.4390    5.8770 ha        1 PRM      0.199000
     41 H34         5.8590    1.7310    4.6280 ha        1 PRM      0.192000
     42 H35         4.7670    1.8810    2.3980 ha        1 PRM      0.155000
     43 H361       -1.4700   -0.2840    3.7430 hn        1 PRM      0.491467
     44 H362       -0.0940    0.3110    4.4950 hn        1 PRM      0.491467
     45 H371        3.7200   -0.5390   -5.6730 hn        1 PRM      0.490800
     46 H372        5.1290   -0.0080   -4.9340 hn        1 PRM      0.490800
     47 H411        6.0130    0.3080   -0.9220 h1        1 PRM      0.112700
     48 H412        5.9790    0.1610    0.8810 h1        1 PRM      0.112700
     49 H421        5.8030   -2.2340   -1.1130 hc        1 PRM      0.081700
     50 H422        5.7120   -2.3530    0.6960 hc        1 PRM      0.081700
     51 H431        8.0410   -1.1570   -0.9970 hx        1 PRM      0.104200
     52 H432        7.9670   -1.0990    0.8290 hx        1 PRM      0.104200
     53 H441        9.9590   -2.3220   -1.2770 hx        1 PRM      0.100700
     54 H442       10.1490   -1.9160    0.5040 hx        1 PRM      0.100700
     55 H451       10.7770   -4.3120    0.9840 hc        1 PRM      0.087533
     56 H452       10.5620   -4.7380   -0.7740 hc        1 PRM      0.087533
     57 H453       11.8290   -3.5490   -0.2750 hc        1 PRM      0.087533
     58 H461        7.9890   -3.4160   -2.0780 hx        1 PRM      0.103033
     59 H462        6.8260   -4.2070   -0.8910 hx        1 PRM      0.103033
     60 H463        8.5180   -4.8620   -1.0910 hx        1 PRM      0.103033
     61 H471        7.0490   -3.8280    1.4470 hx        1 PRM      0.100700
     62 H472        8.6370   -4.7130    1.2490 hx        1 PRM      0.100700
     63 H481        8.5170   -3.6140    3.4310 hc        1 PRM      0.087533
     64 H482        8.2570   -1.9760    2.6970 hc        1 PRM      0.087533
     65 H483        9.8370   -2.8480    2.4670 hc        1 PRM      0.087533
     66 H363       -1.1840    1.3690    3.7850 hn        1 PRM      0.491467
     67 H373        4.0050    1.1040   -5.4900 hn        1 PRM      0.490800
@<TRIPOS>BOND
     1    1    2 ar  
     2    1    6 ar  
     3    1   32 1   
     4    2    3 ar  
     5    2   10 ar  
     6    3    4 ar  
     7    3    7 ar  
     8    4    5 ar  
     9    4   33 1   
    10    5    6 ar  
    11    5   21 1   
    12    6   34 1   
    13    7    8 1   
    14    7   15 1   
    15    8    9 2   
    16    8   23 1   
    17    9   10 ar  
    18    9   11 ar  
    19   10   14 ar  
    20   11   12 ar  
    21   11   35 1   
    22   12   13 ar  
    23   12   22 1   
    24   13   14 ar  
    25   13   36 1   
    26   14   37 1   
    27   15   16 ar  
    28   15   20 ar  
    29   16   17 ar  
    30   16   38 1   
    31   17   18 ar  
    32   17   39 1   
    33   18   19 ar  
    34   18   40 1   
    35   19   20 ar  
    36   19   41 1   
    37   20   42 1   
    38   21   43 1   
    39   21   44 1   
    40   21   66 1   
    41   22   45 1   
    42   22   46 1   
    43   22   67 1   
    44   23   24 1   
    45   23   47 1   
    46   23   48 1   
    47   24   25 1   
    48   24   49 1   
    49   24   50 1   
    50   25   26 1   
    51   25   51 1   
    52   25   52 1   
    53   26   27 1   
    54   26   29 1   
    55   26   30 1   
    56   27   28 1   
    57   27   53 1   
    58   27   54 1   
    59   28   55 1   
    60   28   56 1   
    61   28   57 1   
    62   29   58 1   
    63   29   59 1   
    64   29   60 1   
    65   30   31 1   
    66   30   61 1   
    67   30   62 1   
    68   31   63 1   
    69   31   64 1   
    70   31   65 1   
@<TRIPOS>SUBSTRUCTURE
     1 PRM         1 TEMP              0 ****  ****    0 ROOT
