@<TRIPOS>MOLECULE
PRM
   65    68     1     0     0
SMALL
bcc


@<TRIPOS>ATOM
      1 C16        -4.5310    0.7700   -0.6330 ca        1 PRM     -0.104000
      2 C17        -3.1730    0.7030   -0.2290 ca        1 PRM      0.020000
      3 C18        -2.6220   -0.5810    0.0340 ca        1 PRM     -0.052000
      4 C19        -3.4130   -1.7440   -0.0930 ca        1 PRM     -0.214000
      5 C20        -4.7570   -1.6630   -0.4910 ca        1 PRM      0.225600
      6 C21        -5.3000   -0.3570   -0.7620 ca        1 PRM     -0.103000
      7 C22        -1.2510   -0.6820    0.4340 cp        1 PRM      0.166700
      8 N23        -0.4700    0.4240    0.5810 na        1 PRM     -0.003100
      9 C24        -0.9930    1.7170    0.3580 ca        1 PRM      0.042700
     10 C25        -2.3470    1.8570   -0.0640 ca        1 PRM     -0.069000
     11 C26        -0.1920    2.8680    0.5580 ca        1 PRM     -0.291000
     12 C27        -0.7090    4.1590    0.3410 ca        1 PRM      0.253600
     13 C28        -2.0670    4.2830   -0.1100 ca        1 PRM     -0.164000
     14 C29        -2.8370    3.1710   -0.2970 ca        1 PRM     -0.047000
     15 C30        -0.6940   -2.0270    0.6960 cp        1 PRM     -0.145000
     16 C31        -0.2910   -2.8360   -0.3750 ca        1 PRM     -0.107000
     17 C32         0.1700   -4.1280   -0.1280 ca        1 PRM     -0.123500
     18 C33         0.2260   -4.6160    1.1790 ca        1 PRM     -0.087000
     19 C34        -0.1760   -3.8090    2.2440 ca        1 PRM     -0.123500
     20 C35        -0.6370   -2.5150    2.0090 ca        1 PRM     -0.107000
     21 N36        -5.5300   -2.7780   -0.6480 nh        1 PRM     -0.852200
     22 N37         0.0680    5.2750    0.4990 nh        1 PRM     -0.841200
     23 C41         0.9290    0.2820    0.9800 c3        1 PRM      0.000300
     24 C42         1.9180    0.4440   -0.1840 c3        1 PRM     -0.122400
     25 C43         3.3300    0.2960    0.3720 c3        1 PRM      0.112800
     26 N44         4.4500    0.4860   -0.6170 n4        1 PRM     -0.608800
     27 C44         5.7490    0.2620    0.1360 c3        1 PRM      0.117300
     28 C45         7.0060    0.2820   -0.7050 c3        1 PRM     -0.130600
     29 C46         4.4250    1.8820   -1.1470 c3        1 PRM      0.085100
     30 C47         4.3280   -0.4660   -1.7790 c3        1 PRM      0.117300
     31 C48         4.3570   -1.9360   -1.4250 c3        1 PRM     -0.130600
     32 H16        -4.9920    1.7480   -0.8500 ha        1 PRM      0.161000
     33 H19        -2.9600   -2.7240    0.1270 ha        1 PRM      0.161000
     34 H21        -6.3540   -0.2660   -1.0770 ha        1 PRM      0.169000
     35 H26         0.8480    2.7790    0.9020 ha        1 PRM      0.129000
     36 H28        -2.4880    5.2850   -0.3000 ha        1 PRM      0.171000
     37 H29        -3.8800    3.3010   -0.6370 ha        1 PRM      0.166000
     38 H31        -0.3620   -2.4640   -1.4090 ha        1 PRM      0.150000
     39 H32         0.4710   -4.7720   -0.9700 ha        1 PRM      0.164000
     40 H33         0.5780   -5.6440    1.3680 ha        1 PRM      0.167000
     41 H34        -0.1440   -4.1990    3.2750 ha        1 PRM      0.164000
     42 H35        -0.9750   -1.8900    2.8500 ha        1 PRM      0.150000
     43 H361       -6.4940   -2.6880   -0.8580 hn        1 PRM      0.451300
     44 H362       -5.1790   -3.6660   -0.3890 hn        1 PRM      0.451300
     45 H371        0.9200    5.2070    0.9990 hn        1 PRM      0.442300
     46 H372       -0.3630    6.1690    0.4480 hn        1 PRM      0.442300
     47 H411        1.0790   -0.7370    1.4450 h1        1 PRM      0.098700
     48 H412        1.1460    1.0430    1.7850 h1        1 PRM      0.098700
     49 H421        1.7750    1.4460   -0.6670 hc        1 PRM      0.083200
     50 H422        1.7160   -0.3460   -0.9560 hc        1 PRM      0.083200
     51 H431        3.4450   -0.7380    0.8120 hx        1 PRM      0.100700
     52 H432        3.4870    1.0520    1.1960 hx        1 PRM      0.100700
     53 H441        5.6650   -0.7390    0.6500 hx        1 PRM      0.099700
     54 H442        5.8100    1.0680    0.9230 hx        1 PRM      0.099700
     55 H451        7.0390   -0.5690   -1.4290 hc        1 PRM      0.079533
     56 H452        7.1370    1.2410   -1.2600 hc        1 PRM      0.079533
     57 H453        7.8770    0.1700   -0.0050 hc        1 PRM      0.079533
     58 H461        5.3040    2.0410   -1.8290 hx        1 PRM      0.102033
     59 H462        3.4800    2.0510   -1.7290 hx        1 PRM      0.102033
     60 H463        4.4820    2.6080   -0.2940 hx        1 PRM      0.102033
     61 H471        3.3630   -0.2200   -2.3100 hx        1 PRM      0.099700
     62 H472        5.1810   -0.2330   -2.4840 hx        1 PRM      0.099700
     63 H481        4.2800   -2.5160   -2.3820 hc        1 PRM      0.079533
     64 H482        5.3130   -2.2290   -0.9250 hc        1 PRM      0.079533
     65 H483        3.4990   -2.2270   -0.7730 hc        1 PRM      0.079533
@<TRIPOS>BOND
     1    1    2 ar  
     2    1    6 ar  
     3    1   32 1   
     4    2    3 ar  
     5    2   10 ar  
     6    3    4 ar  
     7    3    7 ar  
     8    4    5 ar  
     9    4   33 1   
    10    5    6 ar  
    11    5   21 1   
    12    6   34 1   
    13    7    8 1   
    14    7   15 1   
    15    8    9 2   
    16    8   23 1   
    17    9   10 ar  
    18    9   11 ar  
    19   10   14 ar  
    20   11   12 ar  
    21   11   35 1   
    22   12   13 ar  
    23   12   22 1   
    24   13   14 ar  
    25   13   36 1   
    26   14   37 1   
    27   15   16 ar  
    28   15   20 ar  
    29   16   17 ar  
    30   16   38 1   
    31   17   18 ar  
    32   17   39 1   
    33   18   19 ar  
    34   18   40 1   
    35   19   20 ar  
    36   19   41 1   
    37   20   42 1   
    38   21   43 1   
    39   21   44 1   
    40   22   45 1   
    41   22   46 1   
    42   23   24 1   
    43   23   47 1   
    44   23   48 1   
    45   24   25 1   
    46   24   49 1   
    47   24   50 1   
    48   25   26 1   
    49   25   51 1   
    50   25   52 1   
    51   26   27 1   
    52   26   29 1   
    53   26   30 1   
    54   27   28 1   
    55   27   53 1   
    56   27   54 1   
    57   28   55 1   
    58   28   56 1   
    59   28   57 1   
    60   29   58 1   
    61   29   59 1   
    62   29   60 1   
    63   30   31 1   
    64   30   61 1   
    65   30   62 1   
    66   31   63 1   
    67   31   64 1   
    68   31   65 1   
@<TRIPOS>SUBSTRUCTURE
     1 PRM         1 TEMP              0 ****  ****    0 ROOT
