@<TRIPOS>MOLECULE
PRN
   32    34     1     0     0
SMALL
bcc


@<TRIPOS>ATOM
      1 N1         -0.7370   -0.3650    6.0490 nb        1 PRN     -0.742000
      2 C2          0.4150    0.2610    5.6600 ca        1 PRN      0.600900
      3 N3          0.8690    0.5170    4.4100 nb        1 PRN     -0.684000
      4 C4          0.0290    0.0750    3.4300 ca        1 PRN      0.404800
      5 C5         -1.2480   -0.6140    3.7220 ca        1 PRN     -0.145200
      6 C6         -1.5610   -0.7990    5.0820 ca        1 PRN      0.457200
      7 N7         -1.8860   -0.9400    2.5210 nc        1 PRN     -0.590100
      8 C8         -1.0630   -0.4890    1.5520 cd        1 PRN      0.478700
      9 N9          0.1110    0.1240    2.0350 na        1 PRN     -0.261000
     10 C1'         1.1690    0.7690    1.2500 c3        1 PRN      0.253800
     11 C2'         2.2180   -0.2150    0.6920 c3        1 PRN     -0.130400
     12 C3'         1.8900   -0.3400   -0.8030 c3        1 PRN      0.156100
     13 O3'         3.0840   -0.2030   -1.5390 oh        1 PRN     -0.671800
     14 C4'         0.9130    0.8150   -1.1030 c3        1 PRN      0.051100
     15 O4'         0.5880    1.4590    0.1590 os        1 PRN     -0.434600
     16 C5'        -0.3880    0.3670   -1.8130 c3        1 PRN      0.227400
     17 O5'        -0.2790    0.5270   -3.1650 os        1 PRN     -0.552200
     18 P           0.0240   -0.9680   -4.0220 p5        1 PRN      1.330900
     19 OP1        -1.1000   -1.8240   -3.5130 o         1 PRN     -0.930167
     20 OP2         0.0170   -0.5590   -5.4610 o         1 PRN     -0.930167
     21 OP3         1.3690   -1.2880   -3.4010 o         1 PRN     -0.930167
     22 H2          1.0730    0.6070    6.4820 h5        1 PRN      0.029100
     23 H6         -2.4890   -1.3060    5.3960 h4        1 PRN      0.021100
     24 H8         -1.2430   -0.5630    0.4590 h5        1 PRN      0.129800
     25 H1'         1.6280    1.5500    1.9240 h2        1 PRN      0.071700
     26 H2'         2.1950   -1.2090    1.1940 hc        1 PRN      0.054700
     27 H2''        3.2350    0.2270    0.8310 hc        1 PRN      0.054700
     28 H3'         1.4160   -1.3330   -1.0400 h1        1 PRN      0.104700
     29 HO3'        2.8610   -0.5140   -2.4480 ho        1 PRN      0.501000
     30 H4'         1.4180    1.6100   -1.7150 h1        1 PRN      0.082700
     31 H5'        -0.6150   -0.7070   -1.5510 h1        1 PRN     -0.004800
     32 H5''       -1.2190    1.0240   -1.4150 h1        1 PRN     -0.004800
@<TRIPOS>BOND
     1    1    2 ar  
     2    1    6 ar  
     3    2    3 ar  
     4    2   22 1   
     5    3    4 ar  
     6    4    5 ar  
     7    4    9 1   
     8    5    6 ar  
     9    5    7 1   
    10    6   23 1   
    11    7    8 2   
    12    8    9 1   
    13    8   24 1   
    14    9   10 1   
    15   10   11 1   
    16   10   15 1   
    17   10   25 1   
    18   11   12 1   
    19   11   26 1   
    20   11   27 1   
    21   12   13 1   
    22   12   14 1   
    23   12   28 1   
    24   13   29 1   
    25   14   15 1   
    26   14   16 1   
    27   14   30 1   
    28   16   17 1   
    29   16   31 1   
    30   16   32 1   
    31   17   18 1   
    32   18   19 1   
    33   18   20 1   
    34   18   21 1   
@<TRIPOS>SUBSTRUCTURE
     1 PRN         1 TEMP              0 ****  ****    0 ROOT
