@<TRIPOS>MOLECULE
PRO
   16    16     1     0     0
SMALL
bcc


@<TRIPOS>ATOM
      1 N          -0.7790    1.0040    0.6320 n3        1 PRO     -0.784200
      2 CA          0.0300   -0.2140    0.4850 c3        1 PRO      0.044500
      3 C           1.4650    0.0920   -0.0490 c         1 PRO      0.934600
      4 O           1.7480   -0.2160   -1.2390 o         1 PRO     -0.840300
      5 CB         -0.7570   -1.1800   -0.4170 c3        1 PRO     -0.084400
      6 CG         -2.1980   -0.6820   -0.4090 c3        1 PRO     -0.087400
      7 CD         -2.1620    0.6800    0.3050 c3        1 PRO      0.157800
      8 OXT         2.2770    0.5890    0.7800 o         1 PRO     -0.840300
      9 H          -0.6960    1.3630    1.5620 hn        1 PRO      0.343800
     10 HA          0.1760   -0.7090    1.4920 h1        1 PRO      0.000700
     11 HB2        -0.3200   -1.1520   -1.4480 hc        1 PRO      0.052200
     12 HB3        -0.6830   -2.2250   -0.0340 hc        1 PRO      0.052200
     13 HG2        -2.5920   -0.5710   -1.4470 hc        1 PRO      0.018700
     14 HG3        -2.8700   -1.3890    0.1360 hc        1 PRO      0.018700
     15 HD2        -2.5490    1.4890   -0.3740 h1        1 PRO      0.005200
     16 HD3        -2.8340    0.6570    1.2080 h1        1 PRO      0.005200
@<TRIPOS>BOND
     1    1    2 1   
     2    1    7 1   
     3    1    9 1   
     4    2    3 1   
     5    2    5 1   
     6    2   10 1   
     7    3    4 1   
     8    3    8 1   
     9    5    6 1   
    10    5   11 1   
    11    5   12 1   
    12    6    7 1   
    13    6   13 1   
    14    6   14 1   
    15    7   15 1   
    16    7   16 1   
@<TRIPOS>SUBSTRUCTURE
     1 PRO         1 TEMP              0 ****  ****    0 ROOT
