@<TRIPOS>MOLECULE
PRQ
   24    24     1     0     0
SMALL
bcc


@<TRIPOS>ATOM
      1 OAB        21.4600  -19.3310   30.3300 o         1 PRQ     -0.840300
      2 CAE        22.6410  -18.8750   30.3700 c         1 PRQ      0.908600
      3 CAJ        23.7960  -19.8790   30.5600 c3        1 PRQ     -0.236400
      4 CAM        23.9050  -20.8620   29.3830 c3        1 PRQ      0.194800
      5 NAA        22.6410  -21.4220   28.9160 n3        1 PRQ     -0.887800
      6 CAK        24.8500  -21.9740   29.8020 ca        1 PRQ      0.039700
      7 CAH        24.4190  -22.8480   30.8200 ca        1 PRQ     -0.129000
      8 CAF        25.2320  -23.8600   31.3070 ca        1 PRQ     -0.105000
      9 CAG        26.5260  -24.0240   30.8000 ca        1 PRQ     -0.161000
     10 CAI        26.9850  -23.1810   29.8020 ca        1 PRQ     -0.089000
     11 CAL        26.1430  -22.1700   29.2890 ca        1 PRQ     -0.169200
     12 NAN        26.7160  -21.3430   28.1910 no        1 PRQ      0.312200
     13 OAD        27.8940  -21.0830   28.2340 o         1 PRQ     -0.216500
     14 OAC        26.0360  -20.9930   27.2670 o         1 PRQ     -0.216500
     15 OXT        22.9320  -17.6510   30.2900 o         1 PRQ     -0.840300
     16 HAJ1       24.7580  -19.3200   30.6610 hc        1 PRQ      0.033700
     17 HAJ2       23.6060  -20.4350   31.5120 hc        1 PRQ      0.033700
     18 HAM        24.3390  -20.2910   28.5090 h1        1 PRQ      0.082700
     19 HAA1       22.0760  -21.6640   29.7130 hn        1 PRQ      0.359800
     20 HAA2       22.1420  -20.6890   28.4370 hn        1 PRQ      0.359800
     21 HAH        23.4070  -22.7110   31.2380 ha        1 PRQ      0.158000
     22 HAF        24.8650  -24.5300   32.0970 ha        1 PRQ      0.128000
     23 HAG        27.1780  -24.8170   31.1930 ha        1 PRQ      0.129000
     24 HAI        28.0090  -23.2950   29.4090 ha        1 PRQ      0.150000
@<TRIPOS>BOND
     1    1    2 1   
     2    2    3 1   
     3    2   15 1   
     4    3    4 1   
     5    3   16 1   
     6    3   17 1   
     7    4    5 1   
     8    4    6 1   
     9    4   18 1   
    10    5   19 1   
    11    5   20 1   
    12    6    7 ar  
    13    6   11 ar  
    14    7    8 ar  
    15    7   21 1   
    16    8    9 ar  
    17    8   22 1   
    18    9   10 ar  
    19    9   23 1   
    20   10   11 ar  
    21   10   24 1   
    22   11   12 1   
    23   12   13 1   
    24   12   14 1   
@<TRIPOS>SUBSTRUCTURE
     1 PRQ         1 TEMP              0 ****  ****    0 ROOT
