@<TRIPOS>MOLECULE
PRR
   25    26     1     0     0
SMALL
bcc


@<TRIPOS>ATOM
      1 N          -2.9210    0.9770   -0.2620 n3        1 PRR     -0.890800
      2 CA         -1.4980    0.7780   -0.4100 c3        1 PRR      0.102500
      3 C          -1.1130   -0.6240   -0.8780 c         1 PRR      0.682600
      4 O          -1.8230   -1.3340   -1.5990 o         1 PRR     -0.602500
      5 N1          2.3290   -1.0130    0.0980 nh        1 PRR     -0.647400
      6 C2          3.2590   -0.0170   -0.1350 c2        1 PRR      0.101000
      7 C3          3.0270    1.3030    0.1280 ce        1 PRR     -0.273000
      8 C4          1.7080    1.7240    0.5020 ce        1 PRR     -0.028000
      9 C5         -0.7080    1.1520    0.8540 c3        1 PRR     -0.024200
     10 C8          0.7130    0.8170    0.6140 c2        1 PRR     -0.244400
     11 C9          0.9580   -0.6530    0.4310 c3        1 PRR      0.483500
     12 OXT         0.0750   -1.2250   -0.5830 os        1 PRR     -0.458900
     13 H          -3.4000    0.6780   -1.0910 hn        1 PRR      0.364300
     14 H2         -3.2760    0.4690    0.5240 hn        1 PRR      0.364300
     15 HA         -1.1580    1.4640   -1.2490 h1        1 PRR      0.094700
     16 H3          3.8270    2.0460    0.0350 ha        1 PRR      0.148000
     17 H4          1.5290    2.7980    0.6660 ha        1 PRR      0.137000
     18 H51        -0.8390    2.2450    1.0660 hc        1 PRR      0.064200
     19 H52        -1.0950    0.5850    1.7420 hc        1 PRR      0.064200
     20 H9          0.6880   -1.2270    1.3740 h2        1 PRR      0.070700
     21 H101        3.5870   -2.6380   -0.3170 h1        1 PRR      0.050033
     22 H102        1.8220   -3.0380   -0.0280 h1        1 PRR      0.050033
     23 H103        2.3340   -2.2910   -1.6070 h1        1 PRR      0.050033
     24 C10         2.5310   -2.3080   -0.5010 c3        1 PRR      0.193100
     25 HC2         4.2460   -0.3700   -0.4900 h4        1 PRR      0.148000
@<TRIPOS>BOND
     1    1    2 1   
     2    1   13 1   
     3    1   14 1   
     4    2    3 1   
     5    2    9 1   
     6    2   15 1   
     7    3    4 2   
     8    3   12 1   
     9    5    6 1   
    10    5   11 1   
    11    5   24 1   
    12    6    7 2   
    13    6   25 1   
    14    7    8 1   
    15    7   16 1   
    16    8   10 2   
    17    8   17 1   
    18    9   10 1   
    19    9   18 1   
    20    9   19 1   
    21   10   11 1   
    22   11   12 1   
    23   11   20 1   
    24   21   24 1   
    25   22   24 1   
    26   23   24 1   
@<TRIPOS>SUBSTRUCTURE
     1 PRR         1 TEMP              0 ****  ****    0 ROOT
