@<TRIPOS>MOLECULE
PRS
   14    14     1     0     0
SMALL
bcc


@<TRIPOS>ATOM
      1 N          -1.2410   -0.4360   -0.2960 n3        1 PRS     -0.800200
      2 CD         -1.1190   -0.5080   -1.7320 c3        1 PRS      0.280900
      3 CA          0.0780   -0.4650    0.3380 c3        1 PRS      0.030500
      4 CB          1.0550    0.3470   -0.5020 c3        1 PRS      0.061700
      5 SG          0.4820    0.1930   -2.2020 ss        1 PRS     -0.463200
      6 C           0.0070    0.0240    1.8290 c         1 PRS      0.941600
      7 O           0.6680    1.0450    2.1480 o         1 PRS     -0.827800
      8 OXT        -0.6770   -0.6900    2.6090 o         1 PRS     -0.827800
      9 H          -1.8210   -1.1600    0.0810 hn        1 PRS      0.377800
     10 HD3        -1.9280    0.1100   -2.1960 h2        1 PRS      0.030700
     11 HD2        -1.1730   -1.5440   -2.1580 h2        1 PRS      0.030700
     12 HA          0.4660   -1.5300    0.3900 h1        1 PRS      0.009700
     13 HB2         1.0500    1.4160   -0.1830 h1        1 PRS      0.078700
     14 HB3         2.0880   -0.0560   -0.4280 h1        1 PRS      0.078700
@<TRIPOS>BOND
     1    1    2 1   
     2    1    3 1   
     3    1    9 1   
     4    2    5 1   
     5    2   10 1   
     6    2   11 1   
     7    3    4 1   
     8    3    6 1   
     9    3   12 1   
    10    4    5 1   
    11    4   13 1   
    12    4   14 1   
    13    6    7 1   
    14    6    8 1   
@<TRIPOS>SUBSTRUCTURE
     1 PRS         1 TEMP              0 ****  ****    0 ROOT
