@<TRIPOS>MOLECULE
PRU
   34    33     1     0     0
SMALL
bcc


@<TRIPOS>ATOM
      1 O42         0.6540   -0.3860   -0.4170 o         1 PRU     -0.908800
      2 O41         2.8060   -0.6130   -0.8330 o         1 PRU     -0.908800
      3 C4          1.8590   -0.3230   -0.0220 c         1 PRU      0.899600
      4 C41         2.2350    0.1350    1.3850 c3        1 PRU     -0.164400
      5 C32         1.2000   -0.1030    2.4650 c3        1 PRU     -0.040400
      6 C3          1.7040    1.9330    3.8410 c         1 PRU      0.916600
      7 O31         2.8430    2.5040    3.8590 o         1 PRU     -0.896800
      8 O32         0.6380    2.6240    3.7960 o         1 PRU     -0.896800
      9 C22         0.7080   -0.1410    4.9370 c3        1 PRU     -0.050400
     10 C2          1.5510   -2.1280    6.2900 c         1 PRU      0.916600
     11 O21         0.5640   -2.8990    6.0710 o         1 PRU     -0.895800
     12 O22         2.6960   -2.6070    6.5750 o         1 PRU     -0.895800
     13 C10         2.4290    0.8150    8.8440 c3        1 PRU     -0.061100
     14 C11         1.3150   -0.2110    8.7800 c3        1 PRU     -0.158700
     15 C12         0.5680   -0.1340    7.4550 c3        1 PRU     -0.037400
     16 C1          0.4240   -0.0250   10.0220 c         1 PRU      0.906600
     17 O12        -0.7790    0.3700    9.9380 o         1 PRU     -0.902300
     18 O11         0.9350   -0.2680   11.1690 o         1 PRU     -0.902300
     19 C21         1.3790   -0.5950    6.2380 c3        1 PRU     -0.159700
     20 C31         1.6440    0.3910    3.8460 c3        1 PRU     -0.158700
     21 H2          3.1920   -0.3770    1.6690 hc        1 PRU      0.029700
     22 H3          2.4530    1.2350    1.3350 hc        1 PRU      0.029700
     23 H4          0.2480    0.4150    2.1800 hc        1 PRU      0.025700
     24 H5          0.9810   -1.2020    2.5180 hc        1 PRU      0.025700
     25 H7          0.1270   -1.0150    4.5360 hc        1 PRU      0.031200
     26 H8         -0.0370    0.6690    5.1620 hc        1 PRU      0.031200
     27 H12         2.9100    0.7930    9.8530 hc        1 PRU      0.008033
     28 H13         1.7720   -1.2380    8.8550 hc        1 PRU      0.059700
     29 H14         0.2310    0.9250    7.3010 hc        1 PRU      0.030200
     30 H15        -0.3530   -0.7690    7.5330 hc        1 PRU      0.030200
     31 H17         2.4040   -0.1390    6.2940 hc        1 PRU      0.039700
     32 H18         2.6840    0.0130    4.0390 hc        1 PRU      0.038700
     33 H10         2.0260    1.8410    8.6660 hc        1 PRU      0.008033
     34 H11         3.2050    0.6030    8.0710 hc        1 PRU      0.008033
@<TRIPOS>BOND
     1    1    3 1   
     2    2    3 1   
     3    3    4 1   
     4    4    5 1   
     5    4   21 1   
     6    4   22 1   
     7    5   20 1   
     8    5   23 1   
     9    5   24 1   
    10    6    7 1   
    11    6    8 1   
    12    6   20 1   
    13    9   19 1   
    14    9   20 1   
    15    9   25 1   
    16    9   26 1   
    17   10   11 1   
    18   10   12 1   
    19   10   19 1   
    20   13   14 1   
    21   13   27 1   
    22   13   33 1   
    23   13   34 1   
    24   14   15 1   
    25   14   16 1   
    26   14   28 1   
    27   15   19 1   
    28   15   29 1   
    29   15   30 1   
    30   16   17 1   
    31   16   18 1   
    32   19   31 1   
    33   20   32 1   
@<TRIPOS>SUBSTRUCTURE
     1 PRU         1 TEMP              0 ****  ****    0 ROOT
