@<TRIPOS>MOLECULE
PRV
   21    21     1     0     0
SMALL
bcc


@<TRIPOS>ATOM
      1 C          -2.1060   -0.8430    0.7940 c         1 PRV      0.892600
      2 N          -1.6470   -1.0870   -1.6850 n3        1 PRV     -0.879800
      3 O          -2.3800   -2.0750    0.8660 o         1 PRV     -0.821300
      4 N1          0.8990    1.7910   -0.8370 no        1 PRV      0.316200
      5 O1          1.6220    2.6970   -0.4910 o         1 PRV     -0.229000
      6 O2          0.0130    1.9830   -1.6240 o         1 PRV     -0.229000
      7 CA         -1.2800   -0.3680   -0.4700 c3        1 PRV      0.026800
      8 CG          0.1820   -0.5530   -0.1660 ca        1 PRV      0.071700
      9 CZ          2.8660   -1.0800    0.5480 ca        1 PRV     -0.169000
     10 CD1         0.5780   -1.8160    0.3250 ca        1 PRV     -0.130000
     11 CD2         1.1740    0.4330   -0.3020 ca        1 PRV     -0.173200
     12 CE1         1.8930   -2.0800    0.6700 ca        1 PRV     -0.107000
     13 CE2         2.5120    0.1720    0.0750 ca        1 PRV     -0.093000
     14 OXT        -2.4510    0.0370    1.6190 o         1 PRV     -0.821300
     15 HN         -1.7100   -2.0670   -1.4590 hn        1 PRV      0.338300
     16 HNA        -2.5660   -0.7860   -1.9520 hn        1 PRV      0.338300
     17 HA         -1.5220    0.7220   -0.6200 h1        1 PRV      0.081700
     18 HZ          3.9070   -1.2840    0.8330 ha        1 PRV      0.122000
     19 HD1        -0.2140   -2.5800    0.4600 ha        1 PRV      0.193000
     20 HE1         2.1740   -3.0720    1.0520 ha        1 PRV      0.124000
     21 HE2         3.2700    0.9680   -0.0060 ha        1 PRV      0.146000
@<TRIPOS>BOND
     1    1    3 1   
     2    1    7 1   
     3    1   14 1   
     4    2    7 1   
     5    2   15 1   
     6    2   16 1   
     7    4    5 1   
     8    4    6 1   
     9    4   11 1   
    10    7    8 1   
    11    7   17 1   
    12    8   10 ar  
    13    8   11 ar  
    14    9   12 ar  
    15    9   13 ar  
    16    9   18 1   
    17   10   12 ar  
    18   10   19 1   
    19   11   13 ar  
    20   12   20 1   
    21   13   21 1   
@<TRIPOS>SUBSTRUCTURE
     1 PRV         1 TEMP              0 ****  ****    0 ROOT
