@<TRIPOS>MOLECULE
PRW
   17    16     1     0     0
SMALL
bcc


@<TRIPOS>ATOM
      1 O7         -2.4130   -0.8230    0.5500 o         1 PRW     -0.831300
      2 C5         -1.6150    0.0410    0.0900 c         1 PRW      0.891600
      3 C4         -0.3020   -0.4840   -0.5460 c3        1 PRW     -0.014900
      4 O6         -0.2340   -1.8980   -0.5190 oh        1 PRW     -0.639800
      5 C3          0.9170    0.0950    0.1880 c3        1 PRW      0.113100
      6 O8          1.0260    1.4970   -0.0010 oh        1 PRW     -0.656800
      7 C2          2.2220   -0.5290   -0.3440 c3        1 PRW      0.142800
      8 N1          3.4420   -0.0630    0.2720 n3        1 PRW     -0.901800
      9 OXT        -1.8050    1.2900    0.1140 o         1 PRW     -0.831300
     10 H4         -0.2640   -0.1780   -1.6270 h1        1 PRW      0.046700
     11 H6         -0.9850   -2.2090    0.0150 ho        1 PRW      0.427000
     12 H3          0.8140   -0.1130    1.2900 h1        1 PRW      0.023700
     13 H8          0.1260    1.8650    0.0440 ho        1 PRW      0.453000
     14 H21C        2.1440   -1.6430   -0.2010 h1        1 PRW      0.055700
     15 H22C        2.2880   -0.3200   -1.4470 h1        1 PRW      0.055700
     16 H11N        3.5310    0.9260    0.1230 hn        1 PRW      0.333300
     17 H12N        3.3990   -0.2130    1.2630 hn        1 PRW      0.333300
@<TRIPOS>BOND
     1    1    2 1   
     2    2    3 1   
     3    2    9 1   
     4    3    4 1   
     5    3    5 1   
     6    3   10 1   
     7    4   11 1   
     8    5    6 1   
     9    5    7 1   
    10    5   12 1   
    11    6   13 1   
    12    7    8 1   
    13    7   14 1   
    14    7   15 1   
    15    8   16 1   
    16    8   17 1   
@<TRIPOS>SUBSTRUCTURE
     1 PRW         1 TEMP              0 ****  ****    0 ROOT
