@<TRIPOS>MOLECULE
PRW
   17    15     1     0     0
SMALL
bcc


@<TRIPOS>ATOM
      1 O7         -2.2960    1.0690   -1.8170 o         1 PRW     -0.566000
      2 C5         -1.0370    1.0690   -1.8170 c1        1 PRW      0.311000
      3 C4         -0.2810    1.0690   -0.5080 c2        1 PRW     -0.076000
      4 O6          0.8430    1.9100   -0.6150 oh        1 PRW     -0.367000
      5 C3          0.1700   -0.3370   -0.1870 c3        1 PRW      0.002000
      6 O8         -0.7260   -1.2600   -0.7590 oh        1 PRW     -0.384000
      7 C2          0.2000   -0.5270    1.3130 c3        1 PRW     -0.094000
      8 N1          0.8860   -1.7370    1.6260 n3        1 PRW     -0.334000
      9 OXT        -0.4080    1.0690   -2.9080 o         1 PRW     -0.566000
     10 H4         -0.8640    1.3940    0.2040 h4        1 PRW      0.086000
     11 H6          0.6140    2.7390   -0.3970 ho        1 PRW      0.226000
     12 H3          1.0640   -0.4830   -0.5510 h1        1 PRW      0.063000
     13 H8         -0.2690   -1.9040   -1.1640 ho        1 PRW      0.252000
     14 H21C        0.6630    0.2260    1.7270 h1        1 PRW      0.095000
     15 H22C       -0.7140   -0.5740    1.6530 h1        1 PRW      0.095000
     16 H11N        0.4310   -2.1860    2.2750 hn        1 PRW      0.128500
     17 H12N        1.7260   -1.5420    1.9230 hn        1 PRW      0.128500
@<TRIPOS>BOND
     1    1    2 1   
     2    2    9 1   
     3    3    4 1   
     4    3    5 1   
     5    3   10 1   
     6    4   11 1   
     7    5    6 1   
     8    5    7 1   
     9    5   12 1   
    10    6   13 1   
    11    7    8 1   
    12    7   14 1   
    13    7   15 1   
    14    8   16 1   
    15    8   17 1   
@<TRIPOS>SUBSTRUCTURE
     1 PRW         1 TEMP              0 ****  ****    0 ROOT
