@<TRIPOS>MOLECULE
PRX
   46    48     1     0     0
SMALL
bcc


@<TRIPOS>ATOM
      1 O2'         0.5760   -2.5830    0.9830 oh        1 PRX     -0.575800
      2 C2'         1.2140   -1.3310    0.9390 c3        1 PRX      0.135100
      3 C1'         2.0090   -1.1190    2.2700 c3        1 PRX      0.216800
      4 O4'         3.4090   -1.2370    1.9650 os        1 PRX     -0.419600
      5 C4'         3.6400   -1.1930    0.5540 c3        1 PRX      0.091100
      6 C5'         4.4870    0.0400    0.2300 c3        1 PRX      0.167400
      7 O5'         4.9610   -0.0980   -1.0920 os        1 PRX     -0.572200
      8 P           6.5080    0.1660   -1.3990 p5        1 PRX      1.639500
      9 O1P         6.8910    0.0520   -2.7920 o         1 PRX     -0.775300
     10 O2P         6.8020    1.5060   -0.5920 oh        1 PRX     -0.762400
     11 O3P         7.2540   -0.8210   -0.3800 os        1 PRX     -0.622200
     12 C1P         8.0720   -1.8530   -0.8930 c3        1 PRX      0.171400
     13 C2P         9.4890   -1.6940   -0.3640 c3        1 PRX     -0.100400
     14 C3P        10.3450   -2.8570   -0.7920 c3        1 PRX     -0.094100
     15 C3'         2.2780   -1.1920   -0.1690 c3        1 PRX      0.094100
     16 O3'         2.1680   -2.3140   -1.0230 oh        1 PRX     -0.599800
     17 N9          1.7320    0.1160    2.9570 na        1 PRX     -0.281000
     18 C8          1.8000    0.2780    4.3700 cc        1 PRX      0.417700
     19 N7          1.6270    1.5410    4.7770 nd        1 PRX     -0.540100
     20 C5          1.4630    2.2860    3.5980 ca        1 PRX     -0.235200
     21 C4          1.5460    1.4080    2.4360 ca        1 PRX      0.465800
     22 N3          1.4260    1.8520    1.1490 nb        1 PRX     -0.760000
     23 C2          1.2140    3.1880    1.0730 ca        1 PRX      0.691900
     24 N1          1.1100    4.1170    2.0570 nb        1 PRX     -0.793000
     25 C6          1.2360    3.6820    3.3580 ca        1 PRX      0.766200
     26 N6          1.1600    4.5610    4.4040 nh        1 PRX     -0.958500
     27 H2'         1.2050   -3.2600    0.6990 ho        1 PRX      0.424000
     28 H1          0.3810   -0.5880    0.8080 h1        1 PRX      0.119700
     29 H1'         1.7960   -1.9620    2.9960 h2        1 PRX      0.102700
     30 H4'         4.2150   -2.1300    0.3090 h1        1 PRX      0.081700
     31 H5'1        5.3520    0.1110    0.9430 h1        1 PRX      0.064200
     32 H5'2        3.8610    0.9730    0.2880 h1        1 PRX      0.064200
     33 H1P1        7.6420   -2.8300   -0.5320 h1        1 PRX      0.057700
     34 H1P2        8.0550   -1.8180   -2.0180 h1        1 PRX      0.057700
     35 H2P1        9.4560   -1.6270    0.7550 hc        1 PRX      0.051200
     36 H2P2        9.9300   -0.7350   -0.7420 hc        1 PRX      0.051200
     37 H3P1       10.3850   -2.9290   -1.9060 hc        1 PRX      0.039700
     38 H3P2        9.9380   -3.8170   -0.3920 hc        1 PRX      0.039700
     39 H3P3       11.3860   -2.7280   -0.4090 hc        1 PRX      0.039700
     40 H3'         2.1280   -0.2370   -0.7420 h1        1 PRX      0.092700
     41 H2          2.7030   -2.1200   -1.8030 ho        1 PRX      0.427000
     42 H8          1.9620   -0.5850    5.0270 h5        1 PRX      0.076800
     43 H3          1.1080    3.5930    0.0420 h5        1 PRX      0.053100
     44 HN61        7.3040    1.4300    0.2170 ho        1 PRX      0.488000
     45 HN62        1.2130    4.2110    5.3280 hn        1 PRX      0.451300
     46 H63         0.9660    5.5180    4.2480 hn        1 PRX      0.451300
@<TRIPOS>BOND
     1    1    2 1   
     2    1   27 1   
     3    2    3 1   
     4    2   15 1   
     5    2   28 1   
     6    3    4 1   
     7    3   17 1   
     8    3   29 1   
     9    4    5 1   
    10    5    6 1   
    11    5   15 1   
    12    5   30 1   
    13    6    7 1   
    14    6   31 1   
    15    6   32 1   
    16    7    8 1   
    17    8    9 2   
    18    8   10 1   
    19    8   11 1   
    20   10   44 1   
    21   11   12 1   
    22   12   13 1   
    23   12   33 1   
    24   12   34 1   
    25   13   14 1   
    26   13   35 1   
    27   13   36 1   
    28   14   37 1   
    29   14   38 1   
    30   14   39 1   
    31   15   16 1   
    32   15   40 1   
    33   16   41 1   
    34   17   18 1   
    35   17   21 1   
    36   18   19 2   
    37   18   42 1   
    38   19   20 1   
    39   20   21 ar  
    40   20   25 ar  
    41   21   22 ar  
    42   22   23 ar  
    43   23   24 ar  
    44   23   43 1   
    45   24   25 ar  
    46   25   26 1   
    47   26   45 1   
    48   26   46 1   
@<TRIPOS>SUBSTRUCTURE
     1 PRX         1 TEMP              0 ****  ****    0 ROOT
