@<TRIPOS>MOLECULE
PRX
   45    47     1     0     0
SMALL
bcc


@<TRIPOS>ATOM
      1 O2'         0.3980   -0.9080   -0.9700 oh        1 PRX     -0.611800
      2 C2'         1.7480   -0.7750   -0.5580 c3        1 PRX      0.075100
      3 C1'         1.7060   -0.4360    0.9650 c3        1 PRX      0.250800
      4 O4'         2.4120   -1.4820    1.6530 os        1 PRX     -0.428600
      5 C4'         3.1620   -2.2920    0.7310 c3        1 PRX      0.081100
      6 C5'         4.6410   -1.8670    0.7700 c3        1 PRX      0.187400
      7 O5'         5.3450   -2.3490   -0.3270 os        1 PRX     -0.572200
      8 P           5.8440   -1.2190   -1.4350 p5        1 PRX      1.436800
      9 O1P         4.7270   -0.2430   -1.4720 o         1 PRX     -0.831500
     10 O2P         6.4360   -1.9260   -2.5800 o         1 PRX     -0.831500
     11 O3P         7.0370   -0.5380   -0.5360 os        1 PRX     -0.581200
     12 C1P         8.3070   -1.1150   -0.6060 c3        1 PRX      0.182400
     13 C2P         8.7180   -1.6580    0.7600 c3        1 PRX     -0.109400
     14 C3P        10.1150   -2.2180    0.7170 c3        1 PRX     -0.086100
     15 C3'         2.5100   -2.1150   -0.6490 c3        1 PRX      0.091100
     16 O3'         1.6320   -3.1690   -0.9830 oh        1 PRX     -0.596800
     17 N9          2.2350    0.8670    1.2900 na        1 PRX     -0.275000
     18 C8          3.3320    1.5570    0.7060 cc        1 PRX      0.442700
     19 N7          3.6120    2.7200    1.3120 nd        1 PRX     -0.578100
     20 C5          2.6900    2.8230    2.3660 ca        1 PRX     -0.209200
     21 C4          1.8170    1.6520    2.3770 ca        1 PRX      0.448800
     22 N3          0.8200    1.4700    3.2950 nb        1 PRX     -0.718000
     23 C2          0.7440    2.4780    4.1920 ca        1 PRX      0.656900
     24 N1          1.4890    3.6120    4.3070 nb        1 PRX     -0.797000
     25 C6          2.4730    3.8150    3.3720 ca        1 PRX      0.714200
     26 N6          3.2110    4.9910    3.3570 nh        1 PRX     -0.937500
     27 H2'         0.4140   -1.4100   -1.7960 ho        1 PRX      0.420000
     28 H1          2.2710    0.0050   -1.1750 h1        1 PRX      0.117700
     29 H1'         0.6460   -0.4850    1.3620 h2        1 PRX      0.111700
     30 H4'         3.0450   -3.3440    1.1030 h1        1 PRX      0.074700
     31 H5'1        4.7030   -0.7440    0.8200 h1        1 PRX      0.036700
     32 H5'2        5.0990   -2.3050    1.7020 h1        1 PRX      0.036700
     33 H1P1        8.3240   -1.9340   -1.3790 h1        1 PRX      0.034200
     34 H1P2        9.0360   -0.3090   -0.9100 h1        1 PRX      0.034200
     35 H2P1        7.9940   -2.4530    1.0770 hc        1 PRX      0.045200
     36 H2P2        8.6540   -0.8320    1.5150 hc        1 PRX      0.045200
     37 H3P1       10.1840   -3.0460   -0.0290 hc        1 PRX      0.022367
     38 H3P2       10.4060   -2.6190    1.7180 hc        1 PRX      0.022367
     39 H3P3       10.8490   -1.4270    0.4280 hc        1 PRX      0.022367
     40 H3'         3.2900   -2.0910   -1.4640 h1        1 PRX      0.138700
     41 H2          0.9770   -3.2280   -0.2750 ho        1 PRX      0.398000
     42 H8          3.8730    1.1430   -0.1780 h5        1 PRX      0.158800
     43 H3         -0.0460    2.3660    4.9640 h5        1 PRX      0.037100
     44 HN61        3.2300    5.5310    4.1890 hn        1 PRX      0.420300
     45 HN62        4.0550    4.9570    2.8330 hn        1 PRX      0.420300
@<TRIPOS>BOND
     1    1    2 1   
     2    1   27 1   
     3    2    3 1   
     4    2   15 1   
     5    2   28 1   
     6    3    4 1   
     7    3   17 1   
     8    3   29 1   
     9    4    5 1   
    10    5    6 1   
    11    5   15 1   
    12    5   30 1   
    13    6    7 1   
    14    6   31 1   
    15    6   32 1   
    16    7    8 1   
    17    8    9 1   
    18    8   10 1   
    19    8   11 1   
    20   11   12 1   
    21   12   13 1   
    22   12   33 1   
    23   12   34 1   
    24   13   14 1   
    25   13   35 1   
    26   13   36 1   
    27   14   37 1   
    28   14   38 1   
    29   14   39 1   
    30   15   16 1   
    31   15   40 1   
    32   16   41 1   
    33   17   18 1   
    34   17   21 1   
    35   18   19 2   
    36   18   42 1   
    37   19   20 1   
    38   20   21 ar  
    39   20   25 ar  
    40   21   22 ar  
    41   22   23 ar  
    42   23   24 ar  
    43   23   43 1   
    44   24   25 ar  
    45   25   26 1   
    46   26   44 1   
    47   26   45 1   
@<TRIPOS>SUBSTRUCTURE
     1 PRX         1 TEMP              0 ****  ****    0 ROOT
