@<TRIPOS>MOLECULE
PRX
   45    47     1     0     0
SMALL
bcc


@<TRIPOS>ATOM
      1 O2'        -3.6370   -0.9180   -1.6120 oh        1 PRX     -0.611800
      2 C2'        -2.5010   -0.7270   -0.7860 c3        1 PRX      0.075100
      3 C1'        -1.5910    0.2990   -1.5300 c3        1 PRX      0.250800
      4 O4'        -1.4430    1.4390   -0.6670 os        1 PRX     -0.428600
      5 C4'        -1.8980    1.1420    0.6650 c3        1 PRX      0.081100
      6 C5'        -0.6830    0.8550    1.5640 c3        1 PRX      0.187400
      7 O5'        -1.0540    0.2240    2.7460 os        1 PRX     -0.572200
      8 P          -0.5870   -1.3590    2.9130 p5        1 PRX      1.436800
      9 O1P        -0.7250   -1.9160    1.5450 o         1 PRX     -0.831500
     10 O2P        -1.1880   -1.8900    4.1460 o         1 PRX     -0.831500
     11 O3P         1.0150   -1.0930    3.1560 os        1 PRX     -0.580200
     12 C1P         1.4400   -0.8640    4.4670 c3        1 PRX      0.182400
     13 C2P         2.0310    0.5370    4.5940 c3        1 PRX     -0.109400
     14 C3P         2.5570    0.7740    5.9840 c3        1 PRX     -0.086100
     15 C3'        -2.8690   -0.0430    0.5490 c3        1 PRX      0.091100
     16 O3'        -4.2240    0.3530    0.5510 oh        1 PRX     -0.596800
     17 N9         -0.3110   -0.2350   -1.9300 na        1 PRX     -0.275000
     18 C8          0.5230   -1.1630   -1.2490 cc        1 PRX      0.442700
     19 N7          1.6950   -1.3770   -1.8650 nd        1 PRX     -0.578100
     20 C5          1.6780   -0.5470   -2.9980 ca        1 PRX     -0.209200
     21 C4          0.4210    0.1950   -3.0500 ca        1 PRX      0.448800
     22 N3          0.1190    1.0880   -4.0410 nb        1 PRX     -0.718000
     23 C2          1.1110    1.2170   -4.9490 ca        1 PRX      0.656900
     24 N1          2.3250    0.6040   -5.0200 nb        1 PRX     -0.797000
     25 C6          2.6230   -0.3140   -4.0440 ca        1 PRX      0.714200
     26 N6          3.7950   -1.0560   -4.0970 nh        1 PRX     -0.937500
     27 H2'        -4.3270   -1.2860   -1.0430 ho        1 PRX      0.420000
     28 H1         -1.9930   -1.7100   -0.5840 h1        1 PRX      0.117700
     29 H1'        -2.1030    0.6970   -2.4580 h2        1 PRX      0.111700
     30 H4'        -2.4300    2.0700    1.0070 h1        1 PRX      0.074700
     31 H5'1       -0.2080    1.8420    1.8260 h1        1 PRX      0.036700
     32 H5'2        0.0590    0.2260    0.9940 h1        1 PRX      0.036700
     33 H1P1        0.5840   -0.9990    5.1860 h1        1 PRX      0.034200
     34 H1P2        2.2430   -1.6190    4.7070 h1        1 PRX      0.034200
     35 H2P1        2.8530    0.6550    3.8420 hc        1 PRX      0.045200
     36 H2P2        1.2440    1.2960    4.3450 hc        1 PRX      0.045200
     37 H3P1        2.9820    1.8030    6.0710 hc        1 PRX      0.022367
     38 H3P2        1.7390    0.6660    6.7380 hc        1 PRX      0.022367
     39 H3P3        3.3610    0.0400    6.2340 hc        1 PRX      0.022367
     40 H3'        -2.7500   -0.7490    1.4200 h1        1 PRX      0.138700
     41 H2         -4.3360    0.9870   -0.1690 ho        1 PRX      0.398000
     42 H8          0.1910   -1.6550   -0.3040 h5        1 PRX      0.158800
     43 H3          0.9130    1.9410   -5.7670 h5        1 PRX      0.037100
     44 HN61        4.5340   -0.7070   -4.6600 hn        1 PRX      0.420300
     45 HN62        4.0590   -1.4970   -3.2460 hn        1 PRX      0.420300
@<TRIPOS>BOND
     1    1    2 1   
     2    1   27 1   
     3    2    3 1   
     4    2   15 1   
     5    2   28 1   
     6    3    4 1   
     7    3   17 1   
     8    3   29 1   
     9    4    5 1   
    10    5    6 1   
    11    5   15 1   
    12    5   30 1   
    13    6    7 1   
    14    6   31 1   
    15    6   32 1   
    16    7    8 1   
    17    8    9 1   
    18    8   10 1   
    19    8   11 1   
    20   11   12 1   
    21   12   13 1   
    22   12   33 1   
    23   12   34 1   
    24   13   14 1   
    25   13   35 1   
    26   13   36 1   
    27   14   37 1   
    28   14   38 1   
    29   14   39 1   
    30   15   16 1   
    31   15   40 1   
    32   16   41 1   
    33   17   18 1   
    34   17   21 1   
    35   18   19 2   
    36   18   42 1   
    37   19   20 1   
    38   20   21 ar  
    39   20   25 ar  
    40   21   22 ar  
    41   22   23 ar  
    42   23   24 ar  
    43   23   43 1   
    44   24   25 ar  
    45   25   26 1   
    46   26   44 1   
    47   26   45 1   
@<TRIPOS>SUBSTRUCTURE
     1 PRX         1 TEMP              0 ****  ****    0 ROOT
