@<TRIPOS>MOLECULE
PRX
   45    47     1     0     0
SMALL
bcc


@<TRIPOS>ATOM
      1 O2'         0.1690   -0.8900   -0.5300 oh        1 PRX     -0.589800
      2 C2'         1.4740   -0.4220   -0.2890 c3        1 PRX      0.110100
      3 C1'         1.7100   -0.3600    1.2590 c3        1 PRX      0.211800
      4 O4'         2.5910   -1.4260    1.6070 os        1 PRX     -0.418600
      5 C4'         3.2160   -1.9970    0.4420 c3        1 PRX      0.064100
      6 C5'         4.7410   -1.8150    0.5420 c3        1 PRX      0.193400
      7 O5'         5.4190   -2.9610    0.1430 os        1 PRX     -0.567200
      8 P           5.9810   -2.9890   -1.4190 p5        1 PRX      1.441800
      9 O1P         4.8220   -2.5020   -2.2030 o         1 PRX     -0.831500
     10 O2P         6.7470   -4.2260   -1.6290 o         1 PRX     -0.831500
     11 O3P         7.0260   -1.7240   -1.2940 os        1 PRX     -0.587200
     12 C1P         8.3560   -2.0060   -0.9770 c3        1 PRX      0.180400
     13 C2P         8.7340   -1.3550    0.3500 c3        1 PRX     -0.108400
     14 C3P        10.1850   -1.5900    0.6700 c3        1 PRX     -0.086100
     15 C3'         2.5990   -1.3410   -0.8110 c3        1 PRX      0.112100
     16 O3'         2.0280   -2.3130   -1.6570 oh        1 PRX     -0.636800
     17 N9          2.2550    0.9060    1.7110 na        1 PRX     -0.266000
     18 C8          3.5620    1.4060    1.4970 cc        1 PRX      0.429700
     19 N7          3.8020    2.5770    2.1070 nd        1 PRX     -0.565100
     20 C5          2.6120    2.8840    2.7820 ca        1 PRX     -0.220200
     21 C4          1.6250    1.8280    2.5570 ca        1 PRX      0.455800
     22 N3          0.3710    1.8450    3.1050 nb        1 PRX     -0.718000
     23 C2          0.1510    2.9330    3.8750 ca        1 PRX      0.666900
     24 N1          0.9680    3.9820    4.1720 nb        1 PRX     -0.799000
     25 C6          2.2200    3.9850    3.6100 ca        1 PRX      0.731200
     26 N6          3.0770    5.0550    3.7880 nv        1 PRX     -0.944500
     27 H2'         0.2040   -1.8530   -0.6150 ho        1 PRX      0.428000
     28 H1          1.5150    0.5930   -0.7670 h1        1 PRX      0.085700
     29 H1'         0.7460   -0.5470    1.8200 h2        1 PRX      0.115700
     30 H4'         2.9640   -3.0940    0.4770 h1        1 PRX      0.094700
     31 H5'1        5.0030   -1.6250    1.6220 h1        1 PRX      0.030700
     32 H5'2        5.0740   -0.9400   -0.0840 h1        1 PRX      0.030700
     33 H1P1        9.0060   -1.5740   -1.7910 h1        1 PRX      0.035700
     34 H1P2        8.5210   -3.1200   -0.9300 h1        1 PRX      0.035700
     35 H2P1        8.5230   -0.2560    0.2900 hc        1 PRX      0.043200
     36 H2P2        8.0870   -1.7710    1.1660 hc        1 PRX      0.043200
     37 H3P1       10.4520   -1.1160    1.6450 hc        1 PRX      0.022700
     38 H3P2       10.8410   -1.1550   -0.1230 hc        1 PRX      0.022700
     39 H3P3       10.4000   -2.6840    0.7390 hc        1 PRX      0.022700
     40 H3'         3.3660   -0.7420   -1.3740 h1        1 PRX      0.094700
     41 H2          2.7530   -2.6460   -2.2180 ho        1 PRX      0.481000
     42 H8          4.2830    0.8410    0.8860 h5        1 PRX      0.090800
     43 H3         -0.8530    2.9840    4.3470 h5        1 PRX      0.042100
     44 HN61        2.8850    5.6960    4.5200 hn        1 PRX      0.427800
     45 HN62        4.0300    4.8990    3.5570 hn        1 PRX      0.427800
@<TRIPOS>BOND
     1    1    2 1   
     2    1   27 1   
     3    2    3 1   
     4    2   15 1   
     5    2   28 1   
     6    3    4 1   
     7    3   17 1   
     8    3   29 1   
     9    4    5 1   
    10    5    6 1   
    11    5   15 1   
    12    5   30 1   
    13    6    7 1   
    14    6   31 1   
    15    6   32 1   
    16    7    8 1   
    17    8    9 1   
    18    8   10 1   
    19    8   11 1   
    20   11   12 1   
    21   12   13 1   
    22   12   33 1   
    23   12   34 1   
    24   13   14 1   
    25   13   35 1   
    26   13   36 1   
    27   14   37 1   
    28   14   38 1   
    29   14   39 1   
    30   15   16 1   
    31   15   40 1   
    32   16   41 1   
    33   17   18 1   
    34   17   21 1   
    35   18   19 2   
    36   18   42 1   
    37   19   20 1   
    38   20   21 ar  
    39   20   25 ar  
    40   21   22 ar  
    41   22   23 ar  
    42   23   24 ar  
    43   23   43 1   
    44   24   25 ar  
    45   25   26 1   
    46   26   44 1   
    47   26   45 1   
@<TRIPOS>SUBSTRUCTURE
     1 PRX         1 TEMP              0 ****  ****    0 ROOT
