@<TRIPOS>MOLECULE
PRY
   23    23     1     0     0
SMALL
bcc


@<TRIPOS>ATOM
      1 C1         -0.0120   -0.0010    0.0020 ca        1 PRY     -0.135300
      2 C2          1.4080    0.0350   -0.0110 ca        1 PRY      0.143600
      3 C3         -0.6810   -0.0550    1.2270 ca        1 PRY     -0.093000
      4 C4         -0.8120   -0.0000   -1.2550 c3        1 PRY     -0.035100
      5 C5          2.0990    0.0260    1.2250 ca        1 PRY     -0.192000
      6 N6          2.1310   -0.0020   -1.2100 nh        1 PRY     -0.819200
      7 C7          0.0110   -0.0690    2.4340 ca        1 PRY     -0.172000
      8 C8          1.4050   -0.0290    2.4260 ca        1 PRY     -0.095000
      9 C9         -0.9760    1.3950   -1.8300 c3        1 PRY     -0.078400
     10 C10        -1.7760    1.3690   -3.1070 c3        1 PRY     -0.095100
     11 HC3        -1.7820   -0.0870    1.2340 ha        1 PRY      0.128000
     12 HC41       -0.3440   -0.6750   -2.0210 hc        1 PRY      0.049200
     13 HC42       -1.8330   -0.4240   -1.0460 hc        1 PRY      0.049200
     14 HC5         3.1990    0.0540    1.2380 ha        1 PRY      0.129000
     15 HN61        3.0630    0.3410   -1.1320 hn        1 PRY      0.388300
     16 HN62        1.6440    0.3690   -1.9960 hn        1 PRY      0.388300
     17 HC7        -0.5360   -0.1110    3.3850 ha        1 PRY      0.130000
     18 HC8         1.9610   -0.0400    3.3750 ha        1 PRY      0.129000
     19 HC91        0.0300    1.8510   -2.0260 hc        1 PRY      0.038700
     20 HC92       -1.4890    2.0480   -1.0760 hc        1 PRY      0.038700
     21 H101       -1.2690    0.7410   -3.8790 hc        1 PRY      0.034367
     22 H102       -1.8910    2.4030   -3.5140 hc        1 PRY      0.034367
     23 H103       -2.7930    0.9460   -2.9260 hc        1 PRY      0.034367
@<TRIPOS>BOND
     1    1    2 ar  
     2    1    3 ar  
     3    1    4 1   
     4    2    5 ar  
     5    2    6 1   
     6    3    7 ar  
     7    3   11 1   
     8    4    9 1   
     9    4   12 1   
    10    4   13 1   
    11    5    8 ar  
    12    5   14 1   
    13    6   15 1   
    14    6   16 1   
    15    7    8 ar  
    16    7   17 1   
    17    8   18 1   
    18    9   10 1   
    19    9   19 1   
    20    9   20 1   
    21   10   21 1   
    22   10   22 1   
    23   10   23 1   
@<TRIPOS>SUBSTRUCTURE
     1 PRY         1 TEMP              0 ****  ****    0 ROOT
