@<TRIPOS>MOLECULE
PRY
   23    23     1     0     0
SMALL
bcc


@<TRIPOS>ATOM
      1 C1          0.2590   -0.3060   -0.0210 ca        1 PRY     -0.138300
      2 C2         -0.9480    0.0220   -0.6930 ca        1 PRY      0.143600
      3 C3          1.4570   -0.3210   -0.7400 ca        1 PRY     -0.092000
      4 C4          0.2900   -0.6430    1.4290 c3        1 PRY     -0.027100
      5 C5         -0.8980    0.3010   -2.0820 ca        1 PRY     -0.190000
      6 N6         -2.1620    0.1520   -0.0090 nh        1 PRY     -0.819200
      7 C7          1.4930   -0.0320   -2.1000 ca        1 PRY     -0.172000
      8 C8          0.3080    0.2770   -2.7680 ca        1 PRY     -0.095000
      9 C9          0.2290    0.5890    2.3130 c3        1 PRY     -0.083400
     10 C10         0.2880    0.2170    3.7720 c3        1 PRY     -0.094100
     11 HC3         2.3930   -0.5700   -0.2150 ha        1 PRY      0.128000
     12 HC41        1.2370   -1.2060    1.6600 hc        1 PRY      0.039200
     13 HC42       -0.5550   -1.3360    1.6900 hc        1 PRY      0.039200
     14 HC5        -1.8230    0.5500   -2.6240 ha        1 PRY      0.130000
     15 HN61       -2.9670    0.0140   -0.5790 hn        1 PRY      0.388300
     16 HN62       -2.2060   -0.3420    0.8560 hn        1 PRY      0.388300
     17 HC7         2.4470   -0.0500   -2.6450 ha        1 PRY      0.131000
     18 HC8         0.3260    0.5040   -3.8440 ha        1 PRY      0.129000
     19 HC91       -0.7120    1.1620    2.1060 hc        1 PRY      0.049700
     20 HC92        1.0880    1.2660    2.0600 hc        1 PRY      0.049700
     21 H101        0.2450    1.1360    4.4060 hc        1 PRY      0.031700
     22 H102       -0.5710   -0.4410    4.0480 hc        1 PRY      0.031700
     23 H103        1.2350   -0.3280    4.0040 hc        1 PRY      0.031700
@<TRIPOS>BOND
     1    1    2 ar  
     2    1    3 ar  
     3    1    4 1   
     4    2    5 ar  
     5    2    6 1   
     6    3    7 ar  
     7    3   11 1   
     8    4    9 1   
     9    4   12 1   
    10    4   13 1   
    11    5    8 ar  
    12    5   14 1   
    13    6   15 1   
    14    6   16 1   
    15    7    8 ar  
    16    7   17 1   
    17    8   18 1   
    18    9   10 1   
    19    9   19 1   
    20    9   20 1   
    21   10   21 1   
    22   10   22 1   
    23   10   23 1   
@<TRIPOS>SUBSTRUCTURE
     1 PRY         1 TEMP              0 ****  ****    0 ROOT
