@<TRIPOS>MOLECULE
PRY
   23    23     1     0     0
SMALL
bcc


@<TRIPOS>ATOM
      1 C1         -0.0020    0.0270   -0.0020 ca        1 PRY     -0.138300
      2 C2          1.4150    0.1270   -0.0030 ca        1 PRY      0.143600
      3 C3         -0.6770   -0.0800    1.2170 ca        1 PRY     -0.092000
      4 C4         -0.7960    0.0240   -1.2620 c3        1 PRY     -0.027100
      5 C5          2.0990    0.0900    1.2370 ca        1 PRY     -0.190000
      6 N6          2.1380    0.3350   -1.1830 nv        1 PRY     -0.819200
      7 C7          0.0080   -0.1010    2.4280 ca        1 PRY     -0.172000
      8 C8          1.3990   -0.0160    2.4310 ca        1 PRY     -0.095000
      9 C9         -0.9760    1.4170   -1.8370 c3        1 PRY     -0.083400
     10 C10        -1.8030    1.3840   -3.0960 c3        1 PRY     -0.094100
     11 HC3        -1.7760   -0.1510    1.2150 ha        1 PRY      0.128000
     12 HC41       -0.3130   -0.6410   -2.0300 hc        1 PRY      0.039200
     13 HC42       -1.8110   -0.4170   -1.0620 hc        1 PRY      0.039200
     14 HC5         3.1970    0.1590    1.2590 ha        1 PRY      0.130000
     15 HN61        3.0850    0.0270   -1.1390 hn        1 PRY      0.388300
     16 HN62        1.6710    0.0460   -2.0140 hn        1 PRY      0.388300
     17 HC7        -0.5440   -0.1840    3.3740 ha        1 PRY      0.131000
     18 HC8         1.9500   -0.0350    3.3840 ha        1 PRY      0.129000
     19 HC91       -1.4770    2.0680   -1.0730 hc        1 PRY      0.049700
     20 HC92        0.0250    1.8740   -2.0530 hc        1 PRY      0.049700
     21 H101       -1.9290    2.4170   -3.5030 hc        1 PRY      0.031700
     22 H102       -1.3100    0.7560   -3.8780 hc        1 PRY      0.031700
     23 H103       -2.8160    0.9600   -2.8950 hc        1 PRY      0.031700
@<TRIPOS>BOND
     1    1    2 ar  
     2    1    3 ar  
     3    1    4 1   
     4    2    5 ar  
     5    2    6 1   
     6    3    7 ar  
     7    3   11 1   
     8    4    9 1   
     9    4   12 1   
    10    4   13 1   
    11    5    8 ar  
    12    5   14 1   
    13    6   15 1   
    14    6   16 1   
    15    7    8 ar  
    16    7   17 1   
    17    8   18 1   
    18    9   10 1   
    19    9   19 1   
    20    9   20 1   
    21   10   21 1   
    22   10   22 1   
    23   10   23 1   
@<TRIPOS>SUBSTRUCTURE
     1 PRY         1 TEMP              0 ****  ****    0 ROOT
