@<TRIPOS>MOLECULE
PRY
   24    24     1     0     0
SMALL
bcc


@<TRIPOS>ATOM
      1 C1         -0.0260    0.0040    0.0100 ca        1 PRY     -0.033300
      2 C2          1.3850    0.0130    0.0280 ca        1 PRY     -0.079400
      3 C3         -0.6950   -0.0440    1.2400 ca        1 PRY     -0.106000
      4 C4         -0.8120    0.0420   -1.2540 c3        1 PRY     -0.073100
      5 C5          2.1030   -0.0250    1.2380 ca        1 PRY     -0.100000
      6 N6          2.1260    0.0570   -1.2330 n4        1 PRY     -0.700000
      7 C7          0.0080   -0.0820    2.4410 ca        1 PRY     -0.063000
      8 C8          1.4050   -0.0730    2.4400 ca        1 PRY     -0.103000
      9 C9         -0.9750    1.4540   -1.7900 c3        1 PRY     -0.076400
     10 C10        -1.7290    1.4540   -3.0950 c3        1 PRY     -0.104100
     11 HC3        -1.7990   -0.0530    1.2490 ha        1 PRY      0.172000
     12 HC41       -1.8370   -0.3860   -1.0650 hc        1 PRY      0.067700
     13 HC42       -0.3460   -0.6160   -2.0350 hc        1 PRY      0.067700
     14 HC5         3.2050   -0.0180    1.2520 ha        1 PRY      0.156000
     15 HN61        2.1070   -0.8710   -1.6720 hn        1 PRY      0.462800
     16 HN62        1.6830    0.7350   -1.8670 hn        1 PRY      0.462800
     17 HC7        -0.5400   -0.1190    3.3990 ha        1 PRY      0.174000
     18 HC8         1.9610   -0.1030    3.3920 ha        1 PRY      0.175000
     19 HC91        0.0280    1.9380   -1.9340 hc        1 PRY      0.041700
     20 HC92       -1.5270    2.0750   -1.0350 hc        1 PRY      0.041700
     21 H101       -2.7470    1.0130   -2.9620 hc        1 PRY      0.051700
     22 H102       -1.1890    0.8590   -3.8700 hc        1 PRY      0.051700
     23 H103       -1.8460    2.5000   -3.4700 hc        1 PRY      0.051700
     24 H63         3.0990    0.3320   -1.0620 hn        1 PRY      0.462800
@<TRIPOS>BOND
     1    1    2 ar  
     2    1    3 ar  
     3    1    4 1   
     4    2    5 ar  
     5    2    6 1   
     6    3    7 ar  
     7    3   11 1   
     8    4    9 1   
     9    4   12 1   
    10    4   13 1   
    11    5    8 ar  
    12    5   14 1   
    13    6   15 1   
    14    6   16 1   
    15    6   24 1   
    16    7    8 ar  
    17    7   17 1   
    18    8   18 1   
    19    9   10 1   
    20    9   19 1   
    21    9   20 1   
    22   10   21 1   
    23   10   22 1   
    24   10   23 1   
@<TRIPOS>SUBSTRUCTURE
     1 PRY         1 TEMP              0 ****  ****    0 ROOT
