@<TRIPOS>MOLECULE
PRZ
   26    26     1     0     0
SMALL
bcc


@<TRIPOS>ATOM
      1 N1         -0.2720   -0.1260    0.0500 nb        1 PRZ     -0.613000
      2 C2          1.0730   -0.0300    0.0090 ca        1 PRZ      0.300300
      3 C3          1.8230    0.0440    1.2430 ca        1 PRZ      0.509300
      4 N4          1.2320    0.0270    2.4650 nb        1 PRZ     -0.699000
      5 C5         -0.1140   -0.0640    2.4630 ca        1 PRZ      0.311900
      6 C6         -0.8600   -0.1410    1.2660 ca        1 PRZ      0.244900
      7 C21         1.8030   -0.0190   -1.2980 c3        1 PRZ     -0.117700
      8 C22         2.2780    1.3790   -1.6780 c3        1 PRZ     -0.063700
      9 C23         3.2910    1.2840   -2.8010 c3        1 PRZ     -0.090100
     10 C24         1.1210    2.2640   -2.0880 c3        1 PRZ     -0.090100
     11 O31         3.1890    0.1300    1.0990 os        1 PRZ     -0.438100
     12 C31         3.9780    0.1660    2.2910 c3        1 PRZ      0.122700
     13 H5         -0.6010   -0.0770    3.4530 h4        1 PRZ      0.033100
     14 H6         -1.9590   -0.2200    1.2750 h4        1 PRZ      0.035100
     15 H212        1.1560   -0.4290   -2.1190 hc        1 PRZ      0.064700
     16 H211        2.6970   -0.6930   -1.1930 hc        1 PRZ      0.064700
     17 H22         2.7840    1.8330   -0.7780 hc        1 PRZ      0.056700
     18 H233        2.8380    0.7980   -3.6990 hc        1 PRZ      0.035533
     19 H232        4.1760    0.6840   -2.4810 hc        1 PRZ      0.035533
     20 H231        3.6400    2.3050   -3.0910 hc        1 PRZ      0.035533
     21 H243        0.3760    2.3440   -1.2610 hc        1 PRZ      0.035533
     22 H242        0.6060    1.8470   -2.9870 hc        1 PRZ      0.035533
     23 H241        1.4900    3.2890   -2.3360 hc        1 PRZ      0.035533
     24 H313        5.0240    0.2240    1.8950 h1        1 PRZ      0.052033
     25 H312        3.7310    1.0690    2.8980 h1        1 PRZ      0.052033
     26 H311        3.8280   -0.7640    2.8890 h1        1 PRZ      0.052033
@<TRIPOS>BOND
     1    1    2 ar  
     2    1    6 ar  
     3    2    3 ar  
     4    2    7 1   
     5    3    4 ar  
     6    3   11 1   
     7    4    5 ar  
     8    5    6 ar  
     9    5   13 1   
    10    6   14 1   
    11    7    8 1   
    12    7   15 1   
    13    7   16 1   
    14    8    9 1   
    15    8   10 1   
    16    8   17 1   
    17    9   18 1   
    18    9   19 1   
    19    9   20 1   
    20   10   21 1   
    21   10   22 1   
    22   10   23 1   
    23   11   12 1   
    24   12   24 1   
    25   12   25 1   
    26   12   26 1   
@<TRIPOS>SUBSTRUCTURE
     1 PRZ         1 TEMP              0 ****  ****    0 ROOT
