@<TRIPOS>MOLECULE
PRZ
   26    26     1     0     0
SMALL
bcc


@<TRIPOS>ATOM
      1 N1         -0.2660   -0.1430    0.0470 nb        1 PRZ     -0.613000
      2 C2          1.0780   -0.0370    0.0080 ca        1 PRZ      0.300300
      3 C3          1.8250    0.0450    1.2440 ca        1 PRZ      0.509300
      4 N4          1.2320    0.0240    2.4640 nb        1 PRZ     -0.699000
      5 C5         -0.1130   -0.0780    2.4600 ca        1 PRZ      0.311900
      6 C6         -0.8560   -0.1630    1.2610 ca        1 PRZ      0.244900
      7 C21         1.8110   -0.0210   -1.2980 c3        1 PRZ     -0.117700
      8 C22         2.2750    1.3810   -1.6780 c3        1 PRZ     -0.063700
      9 C23         3.2900    1.2940   -2.8000 c3        1 PRZ     -0.090100
     10 C24         1.1120    2.2570   -2.0900 c3        1 PRZ     -0.090100
     11 O31         3.1910    0.1420    1.1020 os        1 PRZ     -0.438100
     12 C31         3.9770    0.1850    2.2950 c3        1 PRZ      0.122700
     13 H5         -0.6010   -0.0940    3.4490 h4        1 PRZ      0.033100
     14 H6         -1.9540   -0.2500    1.2690 h4        1 PRZ      0.035100
     15 H212        1.1680   -0.4360   -2.1190 hc        1 PRZ      0.064700
     16 H211        2.7090   -0.6880   -1.1900 hc        1 PRZ      0.064700
     17 H22         2.7760    1.8390   -0.7780 hc        1 PRZ      0.056700
     18 H233        2.8420    0.8030   -3.6970 hc        1 PRZ      0.035533
     19 H232        4.1790    0.7000   -2.4780 hc        1 PRZ      0.035533
     20 H231        3.6320    2.3160   -3.0890 hc        1 PRZ      0.035533
     21 H243        0.3660    2.3320   -1.2630 hc        1 PRZ      0.035533
     22 H242        0.6010    1.8360   -2.9890 hc        1 PRZ      0.035533
     23 H241        1.4730    3.2850   -2.3370 hc        1 PRZ      0.035533
     24 H313        5.0230    0.2510    1.9010 h1        1 PRZ      0.052033
     25 H312        3.7210    1.0870    2.9010 h1        1 PRZ      0.052033
     26 H311        3.8340   -0.7450    2.8940 h1        1 PRZ      0.052033
@<TRIPOS>BOND
     1    1    2 ar  
     2    1    6 ar  
     3    2    3 ar  
     4    2    7 1   
     5    3    4 ar  
     6    3   11 1   
     7    4    5 ar  
     8    5    6 ar  
     9    5   13 1   
    10    6   14 1   
    11    7    8 1   
    12    7   15 1   
    13    7   16 1   
    14    8    9 1   
    15    8   10 1   
    16    8   17 1   
    17    9   18 1   
    18    9   19 1   
    19    9   20 1   
    20   10   21 1   
    21   10   22 1   
    22   10   23 1   
    23   11   12 1   
    24   12   24 1   
    25   12   25 1   
    26   12   26 1   
@<TRIPOS>SUBSTRUCTURE
     1 PRZ         1 TEMP              0 ****  ****    0 ROOT
