@<TRIPOS>MOLECULE
PRZ
   26    26     1     0     0
SMALL
bcc


@<TRIPOS>ATOM
      1 N1         -1.9320   -0.6020    0.3230 nb        1 PRZ     -0.613000
      2 C2         -0.6150   -0.5140    0.0460 ca        1 PRZ      0.300300
      3 C3          0.3030   -0.0640    1.0680 ca        1 PRZ      0.509300
      4 N4         -0.1000    0.2850    2.3160 nb        1 PRZ     -0.699000
      5 C5         -1.4250    0.1890    2.5520 ca        1 PRZ      0.311900
      6 C6         -2.3330   -0.2530    1.5640 ca        1 PRZ      0.244900
      7 C21        -0.0870   -0.8940   -1.3030 c3        1 PRZ     -0.117700
      8 C22         0.2510    0.3270   -2.1520 c3        1 PRZ     -0.063700
      9 C23         1.0910   -0.0970   -3.3400 c3        1 PRZ     -0.090100
     10 C24        -0.9990    1.0390   -2.6200 c3        1 PRZ     -0.090100
     11 O31         1.6270   -0.0160    0.6930 os        1 PRZ     -0.438100
     12 C31         2.5780    0.3840    1.6810 c3        1 PRZ      0.122700
     13 H5         -1.7590    0.4730    3.5640 h4        1 PRZ      0.033100
     14 H6         -3.4130   -0.3320    1.7680 h4        1 PRZ      0.035100
     15 H212        0.8480   -1.4990   -1.1430 hc        1 PRZ      0.064700
     16 H211       -0.8250   -1.5370   -1.8530 hc        1 PRZ      0.064700
     17 H22         0.8590    1.0340   -1.5190 hc        1 PRZ      0.056700
     18 H233        1.3390    0.7900   -3.9710 hc        1 PRZ      0.035533
     19 H232        2.0440   -0.5670   -2.9980 hc        1 PRZ      0.035533
     20 H231        0.5370   -0.8350   -3.9690 hc        1 PRZ      0.035533
     21 H243       -1.6190    0.3660   -3.2610 hc        1 PRZ      0.035533
     22 H242       -1.6170    1.3610   -1.7480 hc        1 PRZ      0.035533
     23 H241       -0.7270    1.9430   -3.2160 hc        1 PRZ      0.035533
     24 H313        3.5500    0.3270    1.1270 h1        1 PRZ      0.052033
     25 H312        2.3750    1.4270    2.0220 h1        1 PRZ      0.052033
     26 H311        2.5690   -0.3210    2.5450 h1        1 PRZ      0.052033
@<TRIPOS>BOND
     1    1    2 ar  
     2    1    6 ar  
     3    2    3 ar  
     4    2    7 1   
     5    3    4 ar  
     6    3   11 1   
     7    4    5 ar  
     8    5    6 ar  
     9    5   13 1   
    10    6   14 1   
    11    7    8 1   
    12    7   15 1   
    13    7   16 1   
    14    8    9 1   
    15    8   10 1   
    16    8   17 1   
    17    9   18 1   
    18    9   19 1   
    19    9   20 1   
    20   10   21 1   
    21   10   22 1   
    22   10   23 1   
    23   11   12 1   
    24   12   24 1   
    25   12   25 1   
    26   12   26 1   
@<TRIPOS>SUBSTRUCTURE
     1 PRZ         1 TEMP              0 ****  ****    0 ROOT
