@<TRIPOS>MOLECULE
PS0
   27    25     1     0     0
SMALL
bcc


@<TRIPOS>ATOM
      1 N          -1.4950   -0.1130    1.2720 n3        1 PS0     -0.321000
      2 CA         -0.1070   -0.3070    1.0240 c3        1 PS0     -0.017000
      3 C           0.6240   -0.4520    2.3390 c3        1 PS0     -0.019000
      4 OS          0.0250    0.3810    3.3030 oh        1 PS0     -0.333000
      5 CB          0.4410    0.8840    0.2710 c3        1 PS0     -0.117000
      6 CG          0.1340    0.7330   -1.2020 c2        1 PS0     -0.062000
      7 CD1        -0.9710    1.3680   -1.7480 c1        1 PS0     -0.106000
      8 CD2         0.9860    0.0030   -2.0160 c2        1 PS0     -0.131000
      9 CE1        -1.2230    1.2730   -3.1080 c1        1 PS0     -0.131500
     10 CE2         0.7330   -0.0920   -3.3760 c1        1 PS0     -0.132000
     11 CZ         -0.3710    0.5420   -3.9210 c1        1 PS0     -0.131500
     12 CM          0.5510   -1.8900    2.8000 c3        1 PS0     -0.252000
     13 H          -1.6210    0.0980    2.1550 hn        1 PS0      0.145500
     14 HN2        -1.9510   -0.8830    1.0740 hn        1 PS0      0.145500
     15 HA          0.0180   -1.1160    0.4900 h1        1 PS0      0.103000
     16 HC          1.5600   -0.1950    2.2210 h1        1 PS0      0.077000
     17 HOS         0.6520    0.7080    3.8420 ho        1 PS0      0.201000
     18 HB1         1.4090    0.9330    0.4000 hc        1 PS0      0.093500
     19 HB2         0.0250    1.7020    0.6090 hc        1 PS0      0.093500
     20 HD1        -1.5710    1.8830   -1.1750 ha        1 PS0      0.134000
     21 HD2         1.7640   -0.4440   -1.6320 ha        1 PS0      0.125000
     22 HE1        -2.0010    1.7200   -3.4920 ha        1 PS0      0.128500
     23 HE2         1.3330   -0.6070   -3.9490 ha        1 PS0      0.127000
     24 HZ         -0.5500    0.4750   -4.8790 ha        1 PS0      0.128500
     25 HM1         1.2660   -2.0630    3.4470 hc        1 PS0      0.083667
     26 HM2        -0.3180   -2.0540    3.2230 hc        1 PS0      0.083667
     27 HM3         0.6560   -2.4860    2.0290 hc        1 PS0      0.083667
@<TRIPOS>BOND
     1    1    2 1   
     2    1   13 1   
     3    1   14 1   
     4    2    3 1   
     5    2    5 1   
     6    2   15 1   
     7    3    4 1   
     8    3   12 1   
     9    3   16 1   
    10    4   17 1   
    11    5    6 1   
    12    5   18 1   
    13    5   19 1   
    14    6    7 1   
    15    6    8 1   
    16    7   20 1   
    17    8   10 1   
    18    8   21 1   
    19    9   11 1   
    20    9   22 1   
    21   10   23 1   
    22   11   24 1   
    23   12   25 1   
    24   12   26 1   
    25   12   27 1   
@<TRIPOS>SUBSTRUCTURE
     1 PS0         1 TEMP              0 ****  ****    0 ROOT
