@<TRIPOS>MOLECULE
PS0
   27    27     1     0     0
SMALL
bcc


@<TRIPOS>ATOM
      1 N          -1.1540    1.0920   -1.0920 n3        1 PS0     -0.898800
      2 CA         -1.3120   -0.1410   -0.3510 c3        1 PS0      0.143500
      3 C          -2.7470   -0.4060    0.1870 c3        1 PS0      0.091100
      4 OS         -3.2010    0.6720    0.9900 oh        1 PS0     -0.594800
      5 CB         -0.3410   -0.2400    0.8400 c3        1 PS0     -0.032100
      6 CG          1.0830   -0.1360    0.4280 ca        1 PS0     -0.066300
      7 CD1         1.7260    1.1070    0.4020 ca        1 PS0     -0.119500
      8 CD2         1.8010   -1.2850    0.0730 ca        1 PS0     -0.119500
      9 CE1         3.0660    1.1990    0.0290 ca        1 PS0     -0.129500
     10 CE2         3.1410   -1.1910   -0.2990 ca        1 PS0     -0.129500
     11 CZ          3.7760    0.0510   -0.3210 ca        1 PS0     -0.132000
     12 CM         -3.7160   -0.7120   -0.9370 c3        1 PS0     -0.131100
     13 H          -1.8900    1.1940   -1.7620 hn        1 PS0      0.347300
     14 HN2        -1.1560    1.8810   -0.4750 hn        1 PS0      0.347300
     15 HA         -1.0710   -0.9810   -1.0710 h1        1 PS0      0.066700
     16 HC         -2.7100   -1.2750    0.9050 h1        1 PS0      0.080700
     17 HOS        -3.4440    1.3960    0.4000 ho        1 PS0      0.392000
     18 HB1        -0.5930    0.5610    1.5840 hc        1 PS0      0.055200
     19 HB2        -0.5150   -1.2300    1.3410 hc        1 PS0      0.055200
     20 HD1         1.1660    2.0150    0.6700 ha        1 PS0      0.127000
     21 HD2         1.3040   -2.2660    0.0890 ha        1 PS0      0.127000
     22 HE1         3.5630    2.1800    0.0090 ha        1 PS0      0.128500
     23 HE2         3.6970   -2.0980   -0.5760 ha        1 PS0      0.128500
     24 HZ          4.8330    0.1240   -0.6150 ha        1 PS0      0.129000
     25 HM1        -3.3580   -1.5910   -1.5240 hc        1 PS0      0.044700
     26 HM2        -4.7230   -0.9450   -0.5150 hc        1 PS0      0.044700
     27 HM3        -3.8230    0.1590   -1.6280 hc        1 PS0      0.044700
@<TRIPOS>BOND
     1    1    2 1   
     2    1   13 1   
     3    1   14 1   
     4    2    3 1   
     5    2    5 1   
     6    2   15 1   
     7    3    4 1   
     8    3   12 1   
     9    3   16 1   
    10    4   17 1   
    11    5    6 1   
    12    5   18 1   
    13    5   19 1   
    14    6    7 ar  
    15    6    8 ar  
    16    7    9 ar  
    17    7   20 1   
    18    8   10 ar  
    19    8   21 1   
    20    9   11 ar  
    21    9   22 1   
    22   10   11 ar  
    23   10   23 1   
    24   11   24 1   
    25   12   25 1   
    26   12   26 1   
    27   12   27 1   
@<TRIPOS>SUBSTRUCTURE
     1 PS0         1 TEMP              0 ****  ****    0 ROOT
