@<TRIPOS>MOLECULE
PS1
   87    86     1     0     0
SMALL
bcc


@<TRIPOS>ATOM
      1 O1          0.1110    1.8750    0.1070 o         1 PS1     -0.826000
      2 O2          2.6510    1.3250    0.5430 o         1 PS1     -0.826000
      3 P1          1.2420    0.9470    0.3850 p5        1 PS1      1.453800
      4 O3          0.7190    0.1230    1.7160 os        1 PS1     -0.603200
      5 C1          0.4680    0.8600    2.8730 c3        1 PS1      0.195400
      6 C2         -1.0420    0.9110    3.1690 c3        1 PS1     -0.064500
      7 C3         -1.2950    1.5230    4.6020 c         1 PS1      0.920600
      8 O4         -0.8300    0.8820    5.5680 o         1 PS1     -0.798800
      9 O5         -1.9680    2.5910    4.6420 o         1 PS1     -0.798800
     10 N1         -1.7800    1.6850    2.1310 n4        1 PS1     -0.862600
     11 O6          1.1390   -0.2980   -0.6730 os        1 PS1     -0.564200
     12 C4          2.1340   -1.2630   -0.4720 c3        1 PS1      0.167400
     13 C5          2.0730   -2.2680   -1.6270 c3        1 PS1      0.143100
     14 C6          3.4520   -2.6350   -2.1680 c3        1 PS1      0.115400
     15 O7          4.2750   -2.9960   -1.0470 os        1 PS1     -0.425900
     16 C7          5.5850   -3.2710   -1.3070 c         1 PS1      0.634100
     17 O8          5.9750   -3.2560   -2.4780 o         1 PS1     -0.558000
     18 C8          6.3630   -3.5790   -0.0640 c3        1 PS1     -0.127400
     19 C9          7.6850   -2.8410   -0.0600 c3        1 PS1     -0.079400
     20 C10         8.5240   -3.2500    1.1310 c3        1 PS1     -0.077400
     21 C11         9.8410   -2.5040    1.1500 c3        1 PS1     -0.079400
     22 C12        10.6860   -2.9130    2.3380 c3        1 PS1     -0.078400
     23 C13        12.0040   -2.1680    2.3560 c3        1 PS1     -0.079400
     24 C14        12.8490   -2.5760    3.5430 c3        1 PS1     -0.079400
     25 C15        14.1680   -1.8330    3.5620 c3        1 PS1     -0.080400
     26 C16        15.0130   -2.2360    4.7430 c3        1 PS1     -0.092100
     27 O9          1.4270   -3.4380   -1.0870 os        1 PS1     -0.421900
     28 C17         0.7970   -4.2810   -1.9510 c         1 PS1      0.634100
     29 O10         0.8650   -4.0710   -3.1660 o         1 PS1     -0.563000
     30 C18         0.1060   -5.4070   -1.2410 c3        1 PS1     -0.129400
     31 C19        -1.1550   -5.8170   -1.9700 c3        1 PS1     -0.078400
     32 C20        -1.7770   -7.0370   -1.3250 c3        1 PS1     -0.078400
     33 C21        -3.0480   -7.4430   -2.0400 c3        1 PS1     -0.078400
     34 C22        -3.6710   -8.6650   -1.4000 c3        1 PS1     -0.079400
     35 C23        -4.9420   -9.0720   -2.1160 c3        1 PS1     -0.079400
     36 C24        -5.5660  -10.2930   -1.4760 c3        1 PS1     -0.079400
     37 C25        -6.8360  -10.7020   -2.1910 c3        1 PS1     -0.080400
     38 C26        -7.4610  -11.9180   -1.5580 c3        1 PS1     -0.092100
     39 H1          0.8950    1.8960    2.7770 h1        1 PS1      0.058700
     40 H2          0.9430    0.3320    3.7480 h1        1 PS1      0.058700
     41 H3         -1.4350   -0.1430    3.1650 hx        1 PS1      0.083700
     42 H5         -2.6630    1.2370    1.9210 hn        1 PS1      0.454133
     43 H6         -1.9690    2.6190    2.5230 hn        1 PS1      0.454133
     44 H7          1.9480   -1.7760    0.5110 h1        1 PS1      0.065200
     45 H8          3.1400   -0.7590   -0.4500 h1        1 PS1      0.065200
     46 H9          1.4560   -1.8570   -2.4760 h1        1 PS1      0.098700
     47 H10         3.3880   -3.5070   -2.8680 h1        1 PS1      0.065200
     48 H11         3.9110   -1.7560   -2.6910 h1        1 PS1      0.065200
     49 H12         5.7560   -3.3020    0.8390 hc        1 PS1      0.076700
     50 H13         6.5340   -4.6890   -0.0400 hc        1 PS1      0.076700
     51 H14         8.2370   -3.0570   -1.0130 hc        1 PS1      0.058700
     52 H15         7.4960   -1.7350   -0.0280 hc        1 PS1      0.058700
     53 H16         8.7170   -4.3540    1.0960 hc        1 PS1      0.040200
     54 H17         7.9600   -3.0420    2.0790 hc        1 PS1      0.040200
     55 H18         9.6460   -1.3990    1.1890 hc        1 PS1      0.043200
     56 H19        10.4020   -2.7070    0.2000 hc        1 PS1      0.043200
     57 H20        10.1240   -2.7070    3.2870 hc        1 PS1      0.039200
     58 H21        10.8780   -4.0170    2.3000 hc        1 PS1      0.039200
     59 H22        12.5650   -2.3730    1.4060 hc        1 PS1      0.040200
     60 H23        11.8100   -1.0640    2.3930 hc        1 PS1      0.040200
     61 H24        13.0410   -3.6810    3.5070 hc        1 PS1      0.038700
     62 H25        12.2880   -2.3690    4.4930 hc        1 PS1      0.038700
     63 H26        13.9730   -0.7290    3.5970 hc        1 PS1      0.038200
     64 H27        14.7270   -2.0400    2.6110 hc        1 PS1      0.038200
     65 H28        15.9800   -1.6770    4.7380 hc        1 PS1      0.030367
     66 H29        15.2380   -3.3290    4.7130 hc        1 PS1      0.030367
     67 H30        14.4830   -2.0140    5.7010 hc        1 PS1      0.030367
     68 H31        -0.1290   -5.0960   -0.1890 hc        1 PS1      0.076200
     69 H32         0.8280   -6.2660   -1.1920 hc        1 PS1      0.076200
     70 H33        -0.9120   -6.0310   -3.0450 hc        1 PS1      0.056700
     71 H34        -1.8870   -4.9670   -1.9600 hc        1 PS1      0.056700
     72 H35        -1.0470   -7.8880   -1.3430 hc        1 PS1      0.039700
     73 H36        -2.0050   -6.8190   -0.2480 hc        1 PS1      0.039700
     74 H37        -3.7790   -6.5920   -2.0190 hc        1 PS1      0.041700
     75 H38        -2.8210   -7.6560   -3.1180 hc        1 PS1      0.041700
     76 H39        -3.8990   -8.4500   -0.3230 hc        1 PS1      0.039200
     77 H40        -2.9400   -9.5150   -1.4200 hc        1 PS1      0.039200
     78 H41        -4.7140   -9.2860   -3.1930 hc        1 PS1      0.039700
     79 H42        -5.6730   -8.2210   -2.0950 hc        1 PS1      0.039700
     80 H43        -5.7940  -10.0790   -0.3990 hc        1 PS1      0.038700
     81 H44        -4.8340  -11.1440   -1.4960 hc        1 PS1      0.038700
     82 H45        -6.6060  -10.9140   -3.2690 hc        1 PS1      0.038200
     83 H46        -7.5660   -9.8500   -2.1720 hc        1 PS1      0.038200
     84 H47        -8.3960  -12.2010   -2.1000 hc        1 PS1      0.031033
     85 H48        -6.7580  -12.7850   -1.5900 hc        1 PS1      0.031033
     86 H49        -7.7200  -11.7170   -0.4900 hc        1 PS1      0.031033
     87 H131       -1.1950    1.7670    1.2560 hn        1 PS1      0.454133
@<TRIPOS>BOND
     1    1    3 1   
     2    2    3 1   
     3    3    4 1   
     4    3   11 1   
     5    4    5 1   
     6    5    6 1   
     7    5   39 1   
     8    5   40 1   
     9    6    7 1   
    10    6   10 1   
    11    6   41 1   
    12    7    8 1   
    13    7    9 1   
    14   10   42 1   
    15   10   43 1   
    16   10   87 1   
    17   11   12 1   
    18   12   13 1   
    19   12   44 1   
    20   12   45 1   
    21   13   14 1   
    22   13   27 1   
    23   13   46 1   
    24   14   15 1   
    25   14   47 1   
    26   14   48 1   
    27   15   16 1   
    28   16   17 2   
    29   16   18 1   
    30   18   19 1   
    31   18   49 1   
    32   18   50 1   
    33   19   20 1   
    34   19   51 1   
    35   19   52 1   
    36   20   21 1   
    37   20   53 1   
    38   20   54 1   
    39   21   22 1   
    40   21   55 1   
    41   21   56 1   
    42   22   23 1   
    43   22   57 1   
    44   22   58 1   
    45   23   24 1   
    46   23   59 1   
    47   23   60 1   
    48   24   25 1   
    49   24   61 1   
    50   24   62 1   
    51   25   26 1   
    52   25   63 1   
    53   25   64 1   
    54   26   65 1   
    55   26   66 1   
    56   26   67 1   
    57   27   28 1   
    58   28   29 2   
    59   28   30 1   
    60   30   31 1   
    61   30   68 1   
    62   30   69 1   
    63   31   32 1   
    64   31   70 1   
    65   31   71 1   
    66   32   33 1   
    67   32   72 1   
    68   32   73 1   
    69   33   34 1   
    70   33   74 1   
    71   33   75 1   
    72   34   35 1   
    73   34   76 1   
    74   34   77 1   
    75   35   36 1   
    76   35   78 1   
    77   35   79 1   
    78   36   37 1   
    79   36   80 1   
    80   36   81 1   
    81   37   38 1   
    82   37   82 1   
    83   37   83 1   
    84   38   84 1   
    85   38   85 1   
    86   38   86 1   
@<TRIPOS>SUBSTRUCTURE
     1 PS1         1 TEMP              0 ****  ****    0 ROOT
