@<TRIPOS>MOLECULE
PS1
   86    85     1     0     0
SMALL
bcc


@<TRIPOS>ATOM
      1 O1          0.6860   -3.7550    0.4790 o         1 PS1     -0.835000
      2 O2          2.1030   -3.7030    2.6850 o         1 PS1     -0.835000
      3 P1          1.3860   -3.0530    1.5750 p5        1 PS1      1.431800
      4 O3          2.3070   -1.8730    0.8920 os        1 PS1     -0.610200
      5 C1          3.4970   -2.2770    0.2680 c3        1 PS1      0.166400
      6 C2          3.5510   -1.7850   -1.1960 c3        1 PS1      0.028500
      7 C3          5.0430   -1.8590   -1.6470 c         1 PS1      0.915600
      8 O4          5.4730   -2.9060   -2.2070 o         1 PS1     -0.861800
      9 O5          5.7700   -0.8450   -1.4180 o         1 PS1     -0.861800
     10 N1          2.6510   -2.4470   -2.1170 n3        1 PS1     -0.913800
     11 O6          0.2690   -2.0280    2.2570 os        1 PS1     -0.563200
     12 C4         -0.5370   -1.4150    1.3000 c3        1 PS1      0.180400
     13 C5         -1.4020   -0.3650    2.0150 c3        1 PS1      0.133100
     14 C6         -0.5940    0.8230    2.5340 c3        1 PS1      0.128400
     15 O7          0.2510    1.2880    1.4800 os        1 PS1     -0.450900
     16 C7          1.5460    1.6170    1.8100 c         1 PS1      0.659100
     17 O8          1.7540    2.0060    2.9630 o         1 PS1     -0.576000
     18 C8          2.4810    1.4430    0.6630 c3        1 PS1     -0.153400
     19 C9          3.7640    2.2230    0.8370 c3        1 PS1     -0.061400
     20 C10         4.6850    1.9760   -0.3370 c3        1 PS1     -0.111400
     21 C11         6.0450    2.6050   -0.1220 c3        1 PS1     -0.054400
     22 C12         6.9820    2.2230   -1.2480 c3        1 PS1     -0.102400
     23 C13         8.3950    2.6930   -0.9780 c3        1 PS1     -0.068400
     24 C14         9.3240    2.2980   -2.1060 c3        1 PS1     -0.082400
     25 C15        10.7480    2.7330   -1.8300 c3        1 PS1     -0.079400
     26 C16        11.6740    2.3440   -2.9540 c3        1 PS1     -0.089100
     27 O9         -2.3510    0.0720    1.0150 os        1 PS1     -0.415900
     28 C17        -3.5060    0.6480    1.4250 c         1 PS1      0.634100
     29 O10        -3.7550    0.7740    2.6290 o         1 PS1     -0.578000
     30 C18        -4.3590    1.0850    0.2680 c3        1 PS1     -0.134400
     31 C19        -5.8300    0.9410    0.5890 c3        1 PS1     -0.077400
     32 C20        -6.6840    1.5100   -0.5230 c3        1 PS1     -0.078400
     33 C21        -8.1580    1.3520   -0.2150 c3        1 PS1     -0.078400
     34 C22        -9.0150    1.9250   -1.3230 c3        1 PS1     -0.079400
     35 C23       -10.4890    1.7660   -1.0160 c3        1 PS1     -0.079400
     36 C24       -11.3470    2.3390   -2.1240 c3        1 PS1     -0.079400
     37 C25       -12.8210    2.1800   -1.8180 c3        1 PS1     -0.080400
     38 C26       -13.6790    2.7490   -2.9180 c3        1 PS1     -0.091100
     39 H1          4.3590   -1.8040    0.8180 h1        1 PS1      0.025700
     40 H2          3.5940   -3.3960    0.3200 h1        1 PS1      0.025700
     41 H3          3.2530   -0.6940   -1.1880 h1        1 PS1      0.039700
     42 H5          3.1160   -3.2450   -2.5120 hn        1 PS1      0.347300
     43 H6          1.8310   -2.7670   -1.6350 hn        1 PS1      0.347300
     44 H7         -1.1910   -2.1850    0.8090 h1        1 PS1      0.053700
     45 H8          0.1060   -0.9230    0.5200 h1        1 PS1      0.053700
     46 H9         -1.9550   -0.8230    2.8790 h1        1 PS1      0.071700
     47 H10         0.0160    0.4880    3.4150 h1        1 PS1      0.061200
     48 H11        -1.2710    1.6690    2.8210 h1        1 PS1      0.061200
     49 H12         1.9640    1.7280   -0.2900 hc        1 PS1      0.115200
     50 H13         2.7010    0.3290    0.5990 hc        1 PS1      0.115200
     51 H14         4.2620    1.9070    1.7920 hc        1 PS1      0.030700
     52 H15         3.5380    3.3180    0.9310 hc        1 PS1      0.030700
     53 H16         4.2240    2.3920   -1.2700 hc        1 PS1      0.081700
     54 H17         4.8170    0.8630   -0.5040 hc        1 PS1      0.081700
     55 H18         6.4700    2.2490    0.8540 hc        1 PS1      0.013200
     56 H19         5.9530    3.7210   -0.0560 hc        1 PS1      0.013200
     57 H20         6.6150    2.6700   -2.2090 hc        1 PS1      0.076200
     58 H21         6.9600    1.1010   -1.3760 hc        1 PS1      0.076200
     59 H22         8.7610    2.2440   -0.0180 hc        1 PS1      0.021200
     60 H23         8.4110    3.8080   -0.8490 hc        1 PS1      0.021200
     61 H24         8.9700    2.7600   -3.0640 hc        1 PS1      0.048200
     62 H25         9.2870    1.1850   -2.2420 hc        1 PS1      0.048200
     63 H26        11.1010    2.2650   -0.8740 hc        1 PS1      0.028700
     64 H27        10.7800    3.8450   -1.6840 hc        1 PS1      0.028700
     65 H28        12.7200    2.6660   -2.7300 hc        1 PS1      0.024367
     66 H29        11.6680    1.2370   -3.1000 hc        1 PS1      0.024367
     67 H30        11.3550    2.8240   -3.9110 hc        1 PS1      0.024367
     68 H31        -4.1060    2.1570    0.0530 hc        1 PS1      0.075200
     69 H32        -4.0910    0.4820   -0.6400 hc        1 PS1      0.075200
     70 H33        -6.0760   -0.1430    0.7390 hc        1 PS1      0.053700
     71 H34        -6.0530    1.4660    1.5560 hc        1 PS1      0.053700
     72 H35        -6.4440    2.5970   -0.6640 hc        1 PS1      0.039200
     73 H36        -6.4430    0.9900   -1.4870 hc        1 PS1      0.039200
     74 H37        -8.3980    0.2650   -0.0770 hc        1 PS1      0.040200
     75 H38        -8.3970    1.8680    0.7520 hc        1 PS1      0.040200
     76 H39        -8.7750    3.0120   -1.4610 hc        1 PS1      0.039200
     77 H40        -8.7750    1.4090   -2.2890 hc        1 PS1      0.039200
     78 H41       -10.7290    0.6780   -0.8790 hc        1 PS1      0.038700
     79 H42       -10.7290    2.2810   -0.0490 hc        1 PS1      0.038700
     80 H43       -11.1070    3.4260   -2.2610 hc        1 PS1      0.038700
     81 H44       -11.1070    1.8230   -3.0900 hc        1 PS1      0.038700
     82 H45       -13.0590    1.0920   -1.6790 hc        1 PS1      0.037200
     83 H46       -13.0590    2.6950   -0.8500 hc        1 PS1      0.037200
     84 H47       -14.7610    2.6220   -2.6730 hc        1 PS1      0.029367
     85 H48       -13.4740    3.8380   -3.0550 hc        1 PS1      0.029367
     86 H49       -13.4730    2.2310   -3.8860 hc        1 PS1      0.029367
@<TRIPOS>BOND
     1    1    3 1   
     2    2    3 1   
     3    3    4 1   
     4    3   11 1   
     5    4    5 1   
     6    5    6 1   
     7    5   39 1   
     8    5   40 1   
     9    6    7 1   
    10    6   10 1   
    11    6   41 1   
    12    7    8 1   
    13    7    9 1   
    14   10   42 1   
    15   10   43 1   
    16   11   12 1   
    17   12   13 1   
    18   12   44 1   
    19   12   45 1   
    20   13   14 1   
    21   13   27 1   
    22   13   46 1   
    23   14   15 1   
    24   14   47 1   
    25   14   48 1   
    26   15   16 1   
    27   16   17 2   
    28   16   18 1   
    29   18   19 1   
    30   18   49 1   
    31   18   50 1   
    32   19   20 1   
    33   19   51 1   
    34   19   52 1   
    35   20   21 1   
    36   20   53 1   
    37   20   54 1   
    38   21   22 1   
    39   21   55 1   
    40   21   56 1   
    41   22   23 1   
    42   22   57 1   
    43   22   58 1   
    44   23   24 1   
    45   23   59 1   
    46   23   60 1   
    47   24   25 1   
    48   24   61 1   
    49   24   62 1   
    50   25   26 1   
    51   25   63 1   
    52   25   64 1   
    53   26   65 1   
    54   26   66 1   
    55   26   67 1   
    56   27   28 1   
    57   28   29 2   
    58   28   30 1   
    59   30   31 1   
    60   30   68 1   
    61   30   69 1   
    62   31   32 1   
    63   31   70 1   
    64   31   71 1   
    65   32   33 1   
    66   32   72 1   
    67   32   73 1   
    68   33   34 1   
    69   33   74 1   
    70   33   75 1   
    71   34   35 1   
    72   34   76 1   
    73   34   77 1   
    74   35   36 1   
    75   35   78 1   
    76   35   79 1   
    77   36   37 1   
    78   36   80 1   
    79   36   81 1   
    80   37   38 1   
    81   37   82 1   
    82   37   83 1   
    83   38   84 1   
    84   38   85 1   
    85   38   86 1   
@<TRIPOS>SUBSTRUCTURE
     1 PS1         1 TEMP              0 ****  ****    0 ROOT
