@<TRIPOS>MOLECULE
PS1
   87    86     1     0     0
SMALL
bcc


@<TRIPOS>ATOM
      1 O1          3.7050    1.3160   -0.5400 o         1 PS1     -0.830500
      2 O2          4.8800   -0.9480    0.1140 o         1 PS1     -0.830500
      3 P1          3.7120   -0.0600    0.0220 p5        1 PS1      1.464800
      4 O3          3.0420    0.1470    1.5140 os        1 PS1     -0.602200
      5 C1          3.7050    0.9900    2.4060 c3        1 PS1      0.194400
      6 C2          2.9030    2.2840    2.6330 c3        1 PS1     -0.065500
      7 C3          3.5380    3.1120    3.8180 c         1 PS1      0.920600
      8 O4          3.5450    2.5590    4.9380 o         1 PS1     -0.797300
      9 O5          3.9580    4.2670    3.5290 o         1 PS1     -0.797300
     10 N1          2.8290    3.1120    1.3970 n4        1 PS1     -0.861600
     11 O6          2.4590   -0.8730   -0.6490 os        1 PS1     -0.567200
     12 C4          2.3610   -2.2340   -0.3520 c3        1 PS1      0.180400
     13 C5          2.0090   -2.9830   -1.6490 c3        1 PS1      0.129100
     14 C6          3.2240   -3.3950   -2.4730 c3        1 PS1      0.120400
     15 O7          4.1390   -4.0730   -1.6020 os        1 PS1     -0.431900
     16 C7          5.4400   -4.1570   -2.0170 c         1 PS1      0.648100
     17 O8          5.6970   -3.8990   -3.1950 o         1 PS1     -0.561000
     18 C8          6.3690   -4.5920   -0.9250 c3        1 PS1     -0.117400
     19 C9          7.0550   -3.3800   -0.3250 c3        1 PS1     -0.106400
     20 C10         7.9250   -3.7840    0.8450 c3        1 PS1     -0.065400
     21 C11         8.5900   -2.5710    1.4610 c3        1 PS1     -0.083400
     22 C12         9.4290   -2.9530    2.6600 c3        1 PS1     -0.076400
     23 C13        10.0880   -1.7370    3.2770 c3        1 PS1     -0.081400
     24 C14        10.9280   -2.1150    4.4780 c3        1 PS1     -0.077400
     25 C15        11.5830   -0.8990    5.0970 c3        1 PS1     -0.082400
     26 C16        12.4220   -1.2690    6.2930 c3        1 PS1     -0.090100
     27 O9          1.2810   -4.1510   -1.2150 os        1 PS1     -0.428900
     28 C17         0.4390   -4.7500   -2.1010 c         1 PS1      0.634100
     29 O10         0.3170   -4.2870   -3.2380 o         1 PS1     -0.557000
     30 C18        -0.2300   -5.9590   -1.5170 c3        1 PS1     -0.129400
     31 C19        -1.6520   -6.0880   -2.0190 c3        1 PS1     -0.079400
     32 C20        -2.2760   -7.3810   -1.5400 c3        1 PS1     -0.078400
     33 C21        -3.7050   -7.5080   -2.0230 c3        1 PS1     -0.079400
     34 C22        -4.3310   -8.8030   -1.5510 c3        1 PS1     -0.078400
     35 C23        -5.7610   -8.9300   -2.0330 c3        1 PS1     -0.079400
     36 C24        -6.3870  -10.2240   -1.5610 c3        1 PS1     -0.079400
     37 C25        -7.8170  -10.3520   -2.0420 c3        1 PS1     -0.080400
     38 C26        -8.4450  -11.6400   -1.5750 c3        1 PS1     -0.092100
     39 H1          4.7400    1.2190    2.0310 h1        1 PS1      0.058700
     40 H2          3.7670    0.4780    3.4080 h1        1 PS1      0.058700
     41 H3          1.8550    1.9990    2.9270 hx        1 PS1      0.083700
     42 H5          3.5110    3.8780    1.5000 hn        1 PS1      0.454467
     43 H6          3.0650    2.5270    0.5520 hn        1 PS1      0.454467
     44 H7          3.3300   -2.6190    0.0720 h1        1 PS1      0.060200
     45 H8          1.5240   -2.3940    0.3860 h1        1 PS1      0.060200
     46 H9          1.3460   -2.3460   -2.2990 h1        1 PS1      0.089700
     47 H10         2.9310   -4.1000   -3.2930 h1        1 PS1      0.065700
     48 H11         3.7150   -2.4840   -2.9050 h1        1 PS1      0.065700
     49 H12         5.7880   -5.1350   -0.1350 hc        1 PS1      0.061200
     50 H13         7.1220   -5.2960   -1.3650 hc        1 PS1      0.061200
     51 H14         6.2800   -2.6280    0.0110 hc        1 PS1      0.094200
     52 H15         7.6800   -2.8780   -1.1090 hc        1 PS1      0.094200
     53 H16         7.2990   -4.3010    1.6190 hc        1 PS1      0.025700
     54 H17         8.7070   -4.5150    0.5080 hc        1 PS1      0.025700
     55 H18         7.8010   -1.8310    1.7660 hc        1 PS1      0.054700
     56 H19         9.2350   -2.0670    0.6940 hc        1 PS1      0.054700
     57 H20         8.7830   -3.4570    3.4260 hc        1 PS1      0.031200
     58 H21        10.2150   -3.6920    2.3530 hc        1 PS1      0.031200
     59 H22         9.3000   -1.0000    3.5850 hc        1 PS1      0.044200
     60 H23        10.7320   -1.2300    2.5110 hc        1 PS1      0.044200
     61 H24        10.2830   -2.6230    5.2430 hc        1 PS1      0.034200
     62 H25        11.7170   -2.8510    4.1700 hc        1 PS1      0.034200
     63 H26        10.7910   -0.1650    5.4040 hc        1 PS1      0.041700
     64 H27        12.2250   -0.3890    4.3300 hc        1 PS1      0.041700
     65 H28        12.8950   -0.3580    6.7330 hc        1 PS1      0.028033
     66 H29        11.7940   -1.7540    7.0790 hc        1 PS1      0.028033
     67 H30        13.2310   -1.9820    6.0030 hc        1 PS1      0.028033
     68 H31         0.3760   -6.8540   -1.8200 hc        1 PS1      0.075200
     69 H32        -0.2100   -5.8950   -0.3970 hc        1 PS1      0.075200
     70 H33        -1.6570   -6.0500   -3.1410 hc        1 PS1      0.056700
     71 H34        -2.2590   -5.2170   -1.6560 hc        1 PS1      0.056700
     72 H35        -2.2530   -7.4200   -0.4190 hc        1 PS1      0.039700
     73 H36        -1.6750   -8.2520   -1.9140 hc        1 PS1      0.039700
     74 H37        -4.3080   -6.6400   -1.6470 hc        1 PS1      0.041700
     75 H38        -3.7280   -7.4650   -3.1440 hc        1 PS1      0.041700
     76 H39        -4.3070   -8.8450   -0.4300 hc        1 PS1      0.039200
     77 H40        -3.7290   -9.6710   -1.9270 hc        1 PS1      0.039200
     78 H41        -6.3630   -8.0610   -1.6560 hc        1 PS1      0.039700
     79 H42        -5.7850   -8.8860   -3.1540 hc        1 PS1      0.039700
     80 H43        -6.3630  -10.2670   -0.4400 hc        1 PS1      0.039200
     81 H44        -5.7850  -11.0930   -1.9380 hc        1 PS1      0.039200
     82 H45        -8.4170   -9.4820   -1.6660 hc        1 PS1      0.038200
     83 H46        -7.8390  -10.3070   -3.1630 hc        1 PS1      0.038200
     84 H47        -7.8750  -12.5190   -1.9610 hc        1 PS1      0.031033
     85 H48        -9.4980  -11.7140   -1.9410 hc        1 PS1      0.031033
     86 H49        -8.4540  -11.6920   -0.4600 hc        1 PS1      0.031033
     87 H131        1.9040    3.5120    1.2970 hn        1 PS1      0.454467
@<TRIPOS>BOND
     1    1    3 1   
     2    2    3 1   
     3    3    4 1   
     4    3   11 1   
     5    4    5 1   
     6    5    6 1   
     7    5   39 1   
     8    5   40 1   
     9    6    7 1   
    10    6   10 1   
    11    6   41 1   
    12    7    8 1   
    13    7    9 1   
    14   10   42 1   
    15   10   43 1   
    16   10   87 1   
    17   11   12 1   
    18   12   13 1   
    19   12   44 1   
    20   12   45 1   
    21   13   14 1   
    22   13   27 1   
    23   13   46 1   
    24   14   15 1   
    25   14   47 1   
    26   14   48 1   
    27   15   16 1   
    28   16   17 2   
    29   16   18 1   
    30   18   19 1   
    31   18   49 1   
    32   18   50 1   
    33   19   20 1   
    34   19   51 1   
    35   19   52 1   
    36   20   21 1   
    37   20   53 1   
    38   20   54 1   
    39   21   22 1   
    40   21   55 1   
    41   21   56 1   
    42   22   23 1   
    43   22   57 1   
    44   22   58 1   
    45   23   24 1   
    46   23   59 1   
    47   23   60 1   
    48   24   25 1   
    49   24   61 1   
    50   24   62 1   
    51   25   26 1   
    52   25   63 1   
    53   25   64 1   
    54   26   65 1   
    55   26   66 1   
    56   26   67 1   
    57   27   28 1   
    58   28   29 2   
    59   28   30 1   
    60   30   31 1   
    61   30   68 1   
    62   30   69 1   
    63   31   32 1   
    64   31   70 1   
    65   31   71 1   
    66   32   33 1   
    67   32   72 1   
    68   32   73 1   
    69   33   34 1   
    70   33   74 1   
    71   33   75 1   
    72   34   35 1   
    73   34   76 1   
    74   34   77 1   
    75   35   36 1   
    76   35   78 1   
    77   35   79 1   
    78   36   37 1   
    79   36   80 1   
    80   36   81 1   
    81   37   38 1   
    82   37   82 1   
    83   37   83 1   
    84   38   84 1   
    85   38   85 1   
    86   38   86 1   
@<TRIPOS>SUBSTRUCTURE
     1 PS1         1 TEMP              0 ****  ****    0 ROOT
