@<TRIPOS>MOLECULE
PS2
  128   127     1     0     0
SMALL
bcc


@<TRIPOS>ATOM
      1 C48         1.6440    9.2720   -4.0250 c3        1 PS2     -0.090100
      2 C47         2.0750    8.2860   -2.9700 c3        1 PS2     -0.082400
      3 C46         0.9520    7.3420   -2.5960 c3        1 PS2     -0.079400
      4 C45         1.3850    6.3650   -1.5250 c3        1 PS2     -0.081400
      5 C44         0.2660    5.4120   -1.1580 c3        1 PS2     -0.078400
      6 C43         0.7080    4.4370   -0.0880 c3        1 PS2     -0.074400
      7 C42        -0.4170    3.5030    0.3050 c3        1 PS2     -0.091400
      8 C41         0.0040    2.6170    1.4600 c3        1 PS2     -0.077400
      9 C40        -1.0810    1.6220    1.8200 c3        1 PS2      0.039700
     10 BR2        -2.5840    2.4850    2.7480 br        1 PS2     -0.262400
     11 C39        -0.5350    0.4400    2.5970 c3        1 PS2      0.045700
     12 BR1        -0.0810    0.9220    4.4480 br        1 PS2     -0.264400
     13 C38        -1.4670   -0.7510    2.5220 c3        1 PS2     -0.090400
     14 C37        -0.8530   -2.0210    3.0760 c3        1 PS2     -0.074400
     15 C36        -1.6710   -3.2260    2.6580 c3        1 PS2     -0.091400
     16 C35        -1.1130   -4.5080    3.2380 c3        1 PS2     -0.070400
     17 C34        -1.7880   -5.7150    2.6210 c3        1 PS2     -0.089400
     18 C33        -1.2290   -7.0110    3.1710 c3        1 PS2     -0.067400
     19 C32        -1.7060   -8.2180    2.3840 c3        1 PS2     -0.127400
     20 C31        -0.8670   -8.4660    1.1610 c         1 PS2      0.640100
     21 O31        -0.2140   -9.4850    0.9070 o         1 PS2     -0.583000
     22 O2         -0.9060   -7.4420    0.2770 os        1 PS2     -0.417900
     23 C2          0.0110   -7.4290   -0.8400 c3        1 PS2      0.140100
     24 C1         -0.4710   -6.2310   -1.6770 c3        1 PS2      0.183400
     25 O3P         0.4200   -6.0280   -2.7280 os        1 PS2     -0.562200
     26 P           0.2110   -4.5530   -3.4620 p5        1 PS2      1.431800
     27 O1P         1.1080   -4.5180   -4.6290 o         1 PS2     -0.833000
     28 O2P        -1.2450   -4.3000   -3.4860 o         1 PS2     -0.833000
     29 O4P         0.8250   -3.6450   -2.2320 os        1 PS2     -0.605200
     30 C4          0.5150   -2.2790   -2.2290 c3        1 PS2      0.170400
     31 C5         -0.3800   -1.9130   -1.0210 c3        1 PS2      0.032500
     32 C6         -0.1960   -0.4020   -0.7340 c         1 PS2      0.904600
     33 O7         -1.0650    0.4400   -1.1110 o         1 PS2     -0.869300
     34 O6          0.8350   -0.0450   -0.0790 o         1 PS2     -0.869300
     35 N5         -1.7670   -2.3170   -1.1350 n3        1 PS2     -0.927800
     36 C3          1.4540   -7.2760   -0.3660 c3        1 PS2      0.121400
     37 O3          1.5090   -6.1120    0.4620 os        1 PS2     -0.451900
     38 C11         2.6340   -5.3250    0.3800 c         1 PS2      0.661100
     39 O11         3.6940   -5.8700    0.0620 o         1 PS2     -0.572000
     40 C12         2.3250   -3.9060    0.7110 c3        1 PS2     -0.156400
     41 C13         3.5290   -3.1040    1.1470 c3        1 PS2     -0.060400
     42 C14         3.0780   -1.7100    1.5320 c3        1 PS2     -0.115400
     43 C15         4.2070   -0.7030    1.4980 c3        1 PS2     -0.057400
     44 C16         3.6510    0.6960    1.6730 c3        1 PS2     -0.103400
     45 C17         4.6880    1.7580    1.3800 c3        1 PS2     -0.069400
     46 C18         4.0890    3.1420    1.5170 c3        1 PS2     -0.086400
     47 C19         5.0350    4.2140    1.0210 c3        1 PS2     -0.075400
     48 C20         4.3620    5.5700    1.0050 c3        1 PS2     -0.085400
     49 C21         5.3010    6.6490    0.5090 c3        1 PS2     -0.076400
     50 C22         4.5920    7.9800    0.3890 c3        1 PS2     -0.083400
     51 C23         5.5350    9.0690   -0.0750 c3        1 PS2     -0.077400
     52 C24         4.8110   10.3880   -0.2390 c3        1 PS2     -0.080400
     53 C25         5.7490   11.4800   -0.7080 c3        1 PS2     -0.079400
     54 C26         5.0320   12.7950   -0.8710 c3        1 PS2     -0.091100
     55 H481        1.3200    8.7390   -4.9520 hc        1 PS2      0.026367
     56 H482        0.7880    9.8900   -3.6610 hc        1 PS2      0.026367
     57 H483        2.4870    9.9560   -4.2880 hc        1 PS2      0.026367
     58 H471        2.4200    8.8390   -2.0550 hc        1 PS2      0.036700
     59 H472        2.9510    7.6920   -3.3430 hc        1 PS2      0.036700
     60 H461        0.6190    6.7760   -3.5060 hc        1 PS2      0.038200
     61 H462        0.0700    7.9320   -2.2330 hc        1 PS2      0.038200
     62 H451        1.7120    6.9300   -0.6120 hc        1 PS2      0.035700
     63 H452        2.2720    5.7790   -1.8840 hc        1 PS2      0.035700
     64 H441       -0.0600    4.8420   -2.0680 hc        1 PS2      0.040700
     65 H442       -0.6210    5.9960   -0.7960 hc        1 PS2      0.040700
     66 H431        1.0670    5.0050    0.8110 hc        1 PS2      0.034200
     67 H432        1.5750    3.8340   -0.4670 hc        1 PS2      0.034200
     68 H421       -0.6880    2.8400   -0.5660 hc        1 PS2      0.065700
     69 H422       -1.3240    4.1010    0.5820 hc        1 PS2      0.065700
     70 H411        0.3010    3.2340    2.3460 hc        1 PS2      0.063700
     71 H412        0.9020    2.0180    1.1230 hc        1 PS2      0.063700
     72 H40        -1.5210    1.2250    0.8520 h1        1 PS2      0.165700
     73 H39         0.4530    0.1510    2.1280 h1        1 PS2      0.142700
     74 H381       -1.6910   -0.9160    1.4250 hc        1 PS2      0.074700
     75 H382       -2.4350   -0.5360    3.0430 hc        1 PS2      0.074700
     76 H371       -0.7920   -1.9700    4.1940 hc        1 PS2      0.038200
     77 H372        0.1950   -2.1330    2.6840 hc        1 PS2      0.038200
     78 H361       -1.6770   -3.2900    1.5340 hc        1 PS2      0.057700
     79 H362       -2.7340   -3.0950    2.9900 hc        1 PS2      0.057700
     80 H351       -1.2500   -4.5180    4.3510 hc        1 PS2      0.029200
     81 H352       -0.0090   -4.5590    3.0380 hc        1 PS2      0.029200
     82 H341       -1.6350   -5.6870    1.5060 hc        1 PS2      0.058200
     83 H342       -2.8920   -5.6700    2.8100 hc        1 PS2      0.058200
     84 H331       -1.5430   -7.1330    4.2410 hc        1 PS2      0.040700
     85 H332       -0.1080   -6.9720    3.1520 hc        1 PS2      0.040700
     86 H321       -2.7690   -8.0680    2.0580 hc        1 PS2      0.060700
     87 H322       -1.6550   -9.1390    3.0210 hc        1 PS2      0.060700
     88 H2         -0.0810   -8.3950   -1.4030 h1        1 PS2      0.059700
     89 H11        -1.4950   -6.4430   -2.0870 h1        1 PS2      0.050200
     90 H12        -0.5160   -5.3110   -1.0280 h1        1 PS2      0.050200
     91 H41         1.4830   -1.7120   -2.1280 h1        1 PS2      0.027700
     92 H42         0.0130   -1.9990   -3.1950 h1        1 PS2      0.027700
     93 H5          0.0360   -2.4680   -0.1250 h1        1 PS2      0.042700
     94 HN51       -2.2980   -1.5650   -1.5350 hn        1 PS2      0.360300
     95 HN52       -1.8440   -3.1170   -1.7420 hn        1 PS2      0.360300
     96 H31         2.1230   -7.1610   -1.2600 h1        1 PS2      0.068200
     97 H32         1.7680   -8.1520    0.2580 h1        1 PS2      0.068200
     98 H121        1.5210   -3.8710    1.4940 hc        1 PS2      0.113700
     99 H122        1.8820   -3.4610   -0.2360 hc        1 PS2      0.113700
    100 H131        4.2690   -3.0600    0.3060 hc        1 PS2      0.033200
    101 H132        4.0400   -3.6040    2.0100 hc        1 PS2      0.033200
    102 H141        2.6240   -1.7320    2.5580 hc        1 PS2      0.075700
    103 H142        2.2640   -1.3670    0.8220 hc        1 PS2      0.075700
    104 H151        4.7410   -0.7720    0.5140 hc        1 PS2      0.019700
    105 H152        4.9570   -0.9260    2.3000 hc        1 PS2      0.019700
    106 H161        3.2680    0.8200    2.7200 hc        1 PS2      0.069700
    107 H162        2.7690    0.8230    0.9810 hc        1 PS2      0.069700
    108 H171        5.0780    1.6180    0.3370 hc        1 PS2      0.025700
    109 H172        5.5600    1.6500    2.0770 hc        1 PS2      0.025700
    110 H181        3.8300    3.3360    2.5910 hc        1 PS2      0.048700
    111 H182        3.1280    3.1890    0.9350 hc        1 PS2      0.048700
    112 H191        5.3830    3.9590   -0.0150 hc        1 PS2      0.030700
    113 H192        5.9460    4.2500    1.6750 hc        1 PS2      0.030700
    114 H201        4.0060    5.8260    2.0380 hc        1 PS2      0.045700
    115 H202        3.4520    5.5270    0.3450 hc        1 PS2      0.045700
    116 H211        5.7170    6.3540   -0.4900 hc        1 PS2      0.033200
    117 H212        6.1700    6.7450    1.2130 hc        1 PS2      0.033200
    118 H221        4.1500    8.2620    1.3810 hc        1 PS2      0.043200
    119 H222        3.7400    7.8850   -0.3380 hc        1 PS2      0.043200
    120 H231        6.0010    8.7720   -1.0520 hc        1 PS2      0.035200
    121 H232        6.3690    9.1870    0.6660 hc        1 PS2      0.035200
    122 H241        4.3460   10.6860    0.7370 hc        1 PS2      0.040700
    123 H242        3.9750   10.2670   -0.9790 hc        1 PS2      0.040700
    124 H251        6.2120   11.1800   -1.6850 hc        1 PS2      0.035700
    125 H252        6.5860   11.5960    0.0310 hc        1 PS2      0.035700
    126 H261        5.7410   13.5850   -1.2180 hc        1 PS2      0.029033
    127 H262        4.2100   12.7040   -1.6210 hc        1 PS2      0.029033
    128 H263        4.5850   13.1230    0.0990 hc        1 PS2      0.029033
@<TRIPOS>BOND
     1    1    2 1   
     2    1   55 1   
     3    1   56 1   
     4    1   57 1   
     5    2    3 1   
     6    2   58 1   
     7    2   59 1   
     8    3    4 1   
     9    3   60 1   
    10    3   61 1   
    11    4    5 1   
    12    4   62 1   
    13    4   63 1   
    14    5    6 1   
    15    5   64 1   
    16    5   65 1   
    17    6    7 1   
    18    6   66 1   
    19    6   67 1   
    20    7    8 1   
    21    7   68 1   
    22    7   69 1   
    23    8    9 1   
    24    8   70 1   
    25    8   71 1   
    26    9   10 1   
    27    9   11 1   
    28    9   72 1   
    29   11   12 1   
    30   11   13 1   
    31   11   73 1   
    32   13   14 1   
    33   13   74 1   
    34   13   75 1   
    35   14   15 1   
    36   14   76 1   
    37   14   77 1   
    38   15   16 1   
    39   15   78 1   
    40   15   79 1   
    41   16   17 1   
    42   16   80 1   
    43   16   81 1   
    44   17   18 1   
    45   17   82 1   
    46   17   83 1   
    47   18   19 1   
    48   18   84 1   
    49   18   85 1   
    50   19   20 1   
    51   19   86 1   
    52   19   87 1   
    53   20   21 2   
    54   20   22 1   
    55   22   23 1   
    56   23   24 1   
    57   23   36 1   
    58   23   88 1   
    59   24   25 1   
    60   24   89 1   
    61   24   90 1   
    62   25   26 1   
    63   26   27 1   
    64   26   28 1   
    65   26   29 1   
    66   29   30 1   
    67   30   31 1   
    68   30   91 1   
    69   30   92 1   
    70   31   32 1   
    71   31   35 1   
    72   31   93 1   
    73   32   33 1   
    74   32   34 1   
    75   35   94 1   
    76   35   95 1   
    77   36   37 1   
    78   36   96 1   
    79   36   97 1   
    80   37   38 1   
    81   38   39 2   
    82   38   40 1   
    83   40   41 1   
    84   40   98 1   
    85   40   99 1   
    86   41   42 1   
    87   41  100 1   
    88   41  101 1   
    89   42   43 1   
    90   42  102 1   
    91   42  103 1   
    92   43   44 1   
    93   43  104 1   
    94   43  105 1   
    95   44   45 1   
    96   44  106 1   
    97   44  107 1   
    98   45   46 1   
    99   45  108 1   
   100   45  109 1   
   101   46   47 1   
   102   46  110 1   
   103   46  111 1   
   104   47   48 1   
   105   47  112 1   
   106   47  113 1   
   107   48   49 1   
   108   48  114 1   
   109   48  115 1   
   110   49   50 1   
   111   49  116 1   
   112   49  117 1   
   113   50   51 1   
   114   50  118 1   
   115   50  119 1   
   116   51   52 1   
   117   51  120 1   
   118   51  121 1   
   119   52   53 1   
   120   52  122 1   
   121   52  123 1   
   122   53   54 1   
   123   53  124 1   
   124   53  125 1   
   125   54  126 1   
   126   54  127 1   
   127   54  128 1   
@<TRIPOS>SUBSTRUCTURE
     1 PS2         1 TEMP              0 ****  ****    0 ROOT
