@<TRIPOS>MOLECULE
PS4
   60    62     1     0     0
SMALL
bcc


@<TRIPOS>ATOM
      1 C1         -8.7290    1.1110   -0.0860 c3        1 PS4     -0.362300
      2 C7          7.0230   -0.2210    1.6780 ca        1 PS4     -0.122000
      3 C8          6.9790    0.6880    0.6140 ca        1 PS4     -0.080300
      4 C11         8.8570    1.0240    2.6730 ca        1 PS4     -0.125000
      5 C12         8.8110    1.9240    1.6100 ca        1 PS4     -0.119000
      6 C15         3.6160    0.4320   -1.2060 c3        1 PS4     -0.141400
      7 C16         2.2020    0.1900   -0.7140 c         1 PS4      0.676100
      8 C18        -0.1510    0.9170   -0.5060 c3        1 PS4      0.078700
      9 C19        -0.9500   -0.2360   -1.1790 c3        1 PS4      0.078000
     10 C23         0.1140    3.1920   -1.4070 c3        1 PS4     -0.087400
     11 C24        -0.8630    2.2740   -0.6820 c3        1 PS4     -0.097400
     12 C27        -5.7470   -2.1500    1.3820 ca        1 PS4     -0.162000
     13 C30        -5.5510    0.4020    0.2820 ca        1 PS4      0.027000
     14 C31        -6.6640    0.0770    1.0640 ca        1 PS4     -0.389500
     15 O32        -3.5690    0.5920   -1.8170 o         1 PS4     -0.605100
     16 C28        -4.5390   -0.5340    0.0520 ca        1 PS4     -0.167600
     17 C29        -6.7450   -1.2090    1.6160 ca        1 PS4     -0.003000
     18 C26        -4.6410   -1.8180    0.5980 ca        1 PS4     -0.041000
     19 S4         -7.8660    1.2120    1.3640 sy        1 PS4      1.398300
     20 O2         -7.3030    2.4910    1.4740 o         1 PS4     -0.655800
     21 O3         -8.6800    0.7700    2.4170 o         1 PS4     -0.655800
     22 N20        -2.1420   -0.6060   -0.4700 n         1 PS4     -0.554900
     23 C22         1.4030    2.3810   -1.6190 c3        1 PS4      0.090000
     24 N17         1.1850    1.0510   -1.0850 n         1 PS4     -0.458800
     25 O5          1.9410   -0.8290   -0.0390 o         1 PS4     -0.626100
     26 C14         4.5430    0.6990   -0.0070 c3        1 PS4      0.171500
     27 N21         4.2700    1.9820    0.6060 n3        1 PS4     -0.905800
     28 C13         5.9960    0.4970   -0.4850 c3        1 PS4     -0.080100
     29 C10         7.8800    1.7590    0.5850 ca        1 PS4     -0.132000
     30 C9          7.9590   -0.0480    2.7000 ca        1 PS4      0.020400
     31 CL6         8.0070   -1.1530    3.9910 cl        1 PS4     -0.089400
     32 H1         -9.2580    0.1350   -0.2140 h1        1 PS4      0.117367
     33 H1A        -9.5180    1.9040   -0.1420 h1        1 PS4      0.117367
     34 H1B        -8.0880    1.2480   -0.9920 h1        1 PS4      0.117367
     35 H11         9.5930    1.1550    3.4810 ha        1 PS4      0.149000
     36 H12         9.5170    2.7680    1.5790 ha        1 PS4      0.139000
     37 H15         3.9490   -0.5120   -1.7130 hc        1 PS4      0.067200
     38 H15A        3.6800    1.2640   -1.9510 hc        1 PS4      0.067200
     39 H18        -0.0400    0.6740    0.5930 h1        1 PS4      0.061700
     40 H19        -1.2260    0.0660   -2.2290 h1        1 PS4      0.077700
     41 H19A       -0.2860   -1.1490   -1.2220 h1        1 PS4      0.077700
     42 H23        -0.3020    3.5190   -2.3910 hc        1 PS4      0.054200
     43 H23A        0.3280    4.1070   -0.8030 hc        1 PS4      0.054200
     44 H24        -1.8070    2.1500   -1.2710 hc        1 PS4      0.066200
     45 H24A       -1.1320    2.6930    0.3180 hc        1 PS4      0.066200
     46 H27        -5.8280   -3.1580    1.8160 ha        1 PS4      0.148000
     47 H30        -5.4620    1.4120   -0.1600 ha        1 PS4      0.169000
     48 H29        -7.6120   -1.4680    2.2520 ha        1 PS4      0.164000
     49 H26        -3.8640   -2.5740    0.4050 ha        1 PS4      0.147000
     50 HN20       -2.0210   -1.0260    0.4220 hn        1 PS4      0.313500
     51 H22         1.6440    2.3010   -2.7150 h1        1 PS4      0.044700
     52 H22A        2.2690    2.8820   -1.1040 h1        1 PS4      0.044700
     53 H14         4.3230   -0.0930    0.7740 h1        1 PS4      0.085700
     54 HN21        4.7720    2.0660    1.4690 hn        1 PS4      0.352300
     55 HN2A        4.5370    2.7320   -0.0010 hn        1 PS4      0.352300
     56 H13         6.2140    1.2030   -1.3290 hc        1 PS4      0.057200
     57 H13A        6.0950   -0.5470   -0.8870 hc        1 PS4      0.057200
     58 H10         7.8580    2.4730   -0.2520 ha        1 PS4      0.134000
     59 C25        -3.3910   -0.1290   -0.8130 c         1 PS4      0.666700
     60 H7          6.3210   -1.0690    1.7030 ha        1 PS4      0.153000
@<TRIPOS>BOND
     1    1   19 1   
     2    1   32 1   
     3    1   33 1   
     4    1   34 1   
     5    2    3 ar  
     6    2   30 ar  
     7    2   60 1   
     8    3   28 1   
     9    3   29 ar  
    10    4    5 ar  
    11    4   30 ar  
    12    4   35 1   
    13    5   29 ar  
    14    5   36 1   
    15    6    7 1   
    16    6   26 1   
    17    6   37 1   
    18    6   38 1   
    19    7   24 1   
    20    7   25 2   
    21    8    9 1   
    22    8   11 1   
    23    8   24 1   
    24    8   39 1   
    25    9   22 1   
    26    9   40 1   
    27    9   41 1   
    28   10   11 1   
    29   10   23 1   
    30   10   42 1   
    31   10   43 1   
    32   11   44 1   
    33   11   45 1   
    34   12   17 ar  
    35   12   18 ar  
    36   12   46 1   
    37   13   14 ar  
    38   13   16 ar  
    39   13   47 1   
    40   14   17 ar  
    41   14   19 1   
    42   15   59 2   
    43   16   18 ar  
    44   16   59 1   
    45   17   48 1   
    46   18   49 1   
    47   19   20 2   
    48   19   21 2   
    49   22   50 1   
    50   22   59 1   
    51   23   24 1   
    52   23   51 1   
    53   23   52 1   
    54   26   27 1   
    55   26   28 1   
    56   26   53 1   
    57   27   54 1   
    58   27   55 1   
    59   28   56 1   
    60   28   57 1   
    61   29   58 1   
    62   30   31 1   
@<TRIPOS>SUBSTRUCTURE
     1 PS4         1 TEMP              0 ****  ****    0 ROOT
