@<TRIPOS>MOLECULE
PS4
   62    60     1     0     0
SMALL
bcc


@<TRIPOS>ATOM
      1 C1          1.8330    1.4080    1.5670 c3        1 PS4     -0.996000
      2 C7         -0.1390   15.7960    6.9760 c2        1 PS4     -0.218000
      3 C8         -0.3920   14.4080    6.7120 c2        1 PS4      0.001000
      4 C11        -0.9080   15.4640    9.3130 c3        1 PS4     -0.223000
      5 C12        -1.1080   14.0580    9.0190 c1        1 PS4     -0.048000
      6 C15         4.5900    9.5070    4.6630 c3        1 PS4     -0.242000
      7 C16         3.3530    9.7570    3.8440 c2        1 PS4      0.337000
      8 C18         2.6750    6.6860   -1.0930 c2        1 PS4     -0.174000
      9 C19         2.9360    5.5070   -1.6940 c2        1 PS4     -0.067000
     10 C23         3.9680    7.9440    0.5910 c3        1 PS4     -0.170000
     11 C24         2.8970    6.8950    0.3590 c3        1 PS4     -0.137000
     12 C27         4.4850    3.5560   -7.4570 c2        1 PS4     -0.366000
     13 C30         2.9890    2.4270   -1.9700 c1        1 PS4      0.261000
     14 C31         2.4960    1.9390   -0.8910 c2        1 PS4     -0.784000
     15 O32         3.0130    4.1930   -5.0220 o         1 PS4     -0.381000
     16 C28         3.5290    2.8810   -3.1150 c2        1 PS4     -0.224000
     17 C29         4.7010    3.0010   -6.3200 c1        1 PS4      0.116000
     18 C26         4.4610    2.1320   -3.8390 c2        1 PS4      0.030000
     19 S4          3.0840    2.1330    0.7580 s6        1 PS4      2.858000
     20 O2          3.1320    3.5070    0.9740 o         1 PS4     -0.897000
     21 O3          4.2630    1.4130    0.8280 o         1 PS4     -0.897000
     22 N20         2.7180    5.2710   -3.0560 n         1 PS4     -0.293000
     23 C22         4.1720    8.2420    2.0750 c3        1 PS4     -0.030000
     24 N17         3.1860    9.1290    2.6400 n         1 PS4     -0.356000
     25 O5          2.4530   10.5440    4.2500 o         1 PS4     -0.515000
     26 C14         0.8380   12.7430    5.2750 c2        1 PS4      0.156000
     27 N21         1.3640   12.1240    6.2920 n3        1 PS4     -0.158000
     28 C13        -0.1010   13.8960    5.3430 c3        1 PS4     -0.186000
     29 C10        -0.9060   13.5970    7.6900 c2        1 PS4     -0.258000
     30 C9         -0.4100   16.3190    8.2070 c2        1 PS4     -0.013000
     31 CL6        -0.1920   17.9590    8.5170 cl        1 PS4      0.060000
     32 H1          0.8250    1.8660    1.3890 h1        1 PS4      0.192667
     33 H1A         1.7140    0.3120    1.3550 h1        1 PS4      0.192667
     34 H1B         1.9750    1.4610    2.6850 h1        1 PS4      0.192667
     35 H11        -0.2080   15.5300   10.2050 hc        1 PS4      0.204000
     36 H12        -1.8990   15.8620    9.7060 hc        1 PS4      0.204000
     37 H15         5.4810    9.9540    4.1540 hc        1 PS4      0.117333
     38 H15A        4.7650    8.4120    4.8000 hc        1 PS4      0.117333
     39 H18         2.3600    9.3070    2.1150 hn        1 PS4      0.239000
     40 H19         2.2780    7.5540   -1.6440 ha        1 PS4      0.139000
     41 H19A        3.3460    4.6560   -1.1170 h4        1 PS4      0.145000
     42 H23         1.9290    7.2300    0.8220 hc        1 PS4      0.107000
     43 H23A        4.9470    7.5690    0.1900 hc        1 PS4      0.103000
     44 H24         3.7170    8.8810    0.0280 hc        1 PS4      0.103000
     45 H24A        3.1900    5.9320    0.8640 hc        1 PS4      0.107000
     46 H27         5.0580    3.3780   -8.3890 ha        1 PS4      0.247000
     47 H30         4.8930    1.2050   -3.4340 ha        1 PS4      0.247000
     48 H29         1.5910    1.2910   -0.9740 h4        1 PS4      0.258000
     49 H26         3.6620    4.2940   -7.5980 ha        1 PS4      0.247000
     50 HN20        4.7430    2.5110   -5.0590 ha        1 PS4      0.247000
     51 H22         4.1630    7.2700    2.6510 h1        1 PS4      0.094500
     52 H22A        5.1940    8.7060    2.2060 h1        1 PS4      0.094500
     53 H14         4.4700    9.9850    5.6650 hc        1 PS4      0.117333
     54 HN21        1.1170   12.3790    4.2490 h4        1 PS4      0.226000
     55 HN2A        1.1560   12.3790    7.2450 hn        1 PS4      0.293500
     56 H13        -1.0720   13.5720    4.8560 hc        1 PS4      0.174500
     57 H13A        0.3260   14.7130    4.6880 hc        1 PS4      0.174500
     58 H10        -1.2070   12.5570    7.4790 ha        1 PS4      0.145000
     59 C25         3.0740    4.1560   -3.7700 c2        1 PS4      0.369000
     60 H202        2.3980    6.0480   -3.6050 hn        1 PS4      0.260000
     61 H213        1.9950   11.3440    6.1410 hn        1 PS4      0.293500
     62 H7          0.2460   16.4280    6.1600 ha        1 PS4      0.160000
@<TRIPOS>BOND
     1    1   19 1   
     2    1   32 1   
     3    1   33 1   
     4    1   34 1   
     5    2    3 1   
     6    2   30 1   
     7    2   62 1   
     8    3   28 1   
     9    3   29 1   
    10    4    5 1   
    11    4   30 1   
    12    4   35 1   
    13    4   36 1   
    14    5   29 1   
    15    6    7 1   
    16    6   37 1   
    17    6   38 1   
    18    6   53 1   
    19    7   24 1   
    20    7   25 1   
    21    8    9 1   
    22    8   11 1   
    23    8   40 1   
    24    9   22 1   
    25    9   41 1   
    26   10   11 1   
    27   10   23 1   
    28   10   43 1   
    29   10   44 1   
    30   11   42 1   
    31   11   45 1   
    32   12   17 1   
    33   12   46 1   
    34   12   49 1   
    35   13   14 1   
    36   13   16 1   
    37   14   19 1   
    38   14   48 1   
    39   15   59 1   
    40   16   18 1   
    41   16   59 1   
    42   18   47 1   
    43   18   50 1   
    44   19   20 1   
    45   19   21 1   
    46   22   59 1   
    47   22   60 1   
    48   23   24 1   
    49   23   51 1   
    50   23   52 1   
    51   24   39 1   
    52   26   27 1   
    53   26   28 1   
    54   26   54 1   
    55   27   55 1   
    56   27   61 1   
    57   28   56 1   
    58   28   57 1   
    59   29   58 1   
    60   30   31 1   
@<TRIPOS>SUBSTRUCTURE
     1 PS4         1 TEMP              0 ****  ****    0 ROOT
