@<TRIPOS>MOLECULE
PS4
   62    61     1     0     0
SMALL
bcc


@<TRIPOS>ATOM
      1 C1          3.9800    2.3850    1.7510 c3        1 PS4     -0.960000
      2 C7         -0.1600   13.1240    7.1960 c2        1 PS4     -0.222000
      3 C8          1.2380   13.1420    6.8710 c2        1 PS4      0.003000
      4 C11         0.0890   15.3390    8.2880 c3        1 PS4     -0.221000
      5 C12         1.4830   15.3440    7.8900 c1        1 PS4     -0.050000
      6 C15         2.5290   11.1300    3.8630 c3        1 PS4     -0.212000
      7 C16         2.5440   11.3290    2.3580 c2        1 PS4      0.302000
      8 C18         3.1720    6.6840   -1.1760 c2        1 PS4     -0.038000
      9 C19         2.6800    6.4130   -2.3970 c2        1 PS4     -0.250000
     10 C23         3.4580    7.9830    0.9050 c3        1 PS4     -0.190000
     11 C24         2.5610    7.7030   -0.2860 c3        1 PS4     -0.146000
     12 C27         2.0800   -0.9200   -2.2760 c1        1 PS4      0.062000
     13 C30         3.2210    3.0910   -1.6870 c1        1 PS4      0.083000
     14 C31         3.8530    3.1940   -0.6670 c1        1 PS4     -0.807000
     15 O32         1.4890    4.5480   -4.5040 o         1 PS4     -0.172000
     16 C28         2.4730    3.0460   -2.8760 c2        1 PS4     -0.176000
     17 C29         2.0840   -2.1920   -2.0420 c2        1 PS4     -0.472000
     18 C26         1.8940    1.9130   -3.3420 c2        1 PS4      0.014000
     19 S4          4.7170    3.4560    0.7030 s6        1 PS4      2.910000
     20 O2          4.4380    4.7940    1.0630 o         1 PS4     -0.935000
     21 O3          6.0540    3.1410    0.4880 o         1 PS4     -0.935000
     22 N20         3.2690    5.4340   -3.3030 n4        1 PS4     -0.057000
     23 C22         2.7970    8.8900    1.9400 c3        1 PS4     -0.026000
     24 N17         2.6640   10.2600    1.5170 n         1 PS4     -0.350000
     25 O5          2.4570   12.4850    1.8740 o         1 PS4     -0.417000
     26 C14         1.9270   12.3330    4.5960 c3        1 PS4     -0.054000
     27 N21         2.7130   13.5930    4.3730 n4        1 PS4     -0.079000
     28 C13         1.8040   12.0030    6.0920 c3        1 PS4     -0.172000
     29 C10         2.0290   14.1870    7.2750 c2        1 PS4     -0.270000
     30 C9         -0.7110   14.1480    7.9100 c2        1 PS4     -0.011000
     31 CL6        -2.3220   14.0950    8.3950 cl        1 PS4      0.061000
     32 H1          2.9020    2.6080    1.9520 h1        1 PS4      0.177333
     33 H1A         4.0170    1.3180    1.4100 h1        1 PS4      0.177333
     34 H1B         4.4810    2.3850    2.7570 h1        1 PS4      0.177333
     35 H11        -0.3900   16.2810    7.8730 hc        1 PS4      0.205500
     36 H12         0.0680   15.4920    9.4160 hc        1 PS4      0.205500
     37 H15         3.6820   13.4670    4.6730 hn        1 PS4      0.269000
     38 H15A        1.9040   10.2330    4.1310 hc        1 PS4      0.145000
     39 H18         2.6860   10.4520    0.5380 hn        1 PS4      0.254000
     40 H19         4.0480    6.1520   -0.7460 ha        1 PS4      0.180000
     41 H19A        1.7920    6.9100   -2.8360 hx        1 PS4      0.203000
     42 H23         1.5650    7.3180    0.0720 hc        1 PS4      0.117000
     43 H23A        3.7100    7.0100    1.4180 hc        1 PS4      0.132000
     44 H24         4.4260    8.4300    0.5550 hc        1 PS4      0.132000
     45 H24A        2.3620    8.6460   -0.8640 hc        1 PS4      0.117000
     46 H27         1.2950    1.9150   -4.2700 ha        1 PS4      0.206500
     47 H30         2.9620   -2.8500   -2.1900 ha        1 PS4      0.223000
     48 H29         1.2080   -2.7600   -1.6740 ha        1 PS4      0.223000
     49 H26         1.9980    0.9160   -2.8210 ha        1 PS4      0.206500
     50 HN20        4.1330    5.0450   -2.9070 hn        1 PS4      0.260500
     51 H22         1.7720    8.4830    2.1880 h1        1 PS4      0.094000
     52 H22A        3.4200    8.8520    2.8810 h1        1 PS4      0.094000
     53 H14         3.5780   10.9280    4.2120 hc        1 PS4      0.145000
     54 HN21        0.8950   12.5380    4.1710 hx        1 PS4      0.165000
     55 HN2A        2.6950   13.8270    3.3630 hn        1 PS4      0.269000
     56 H13         2.8100   11.7220    6.5100 hc        1 PS4      0.136000
     57 H13A        1.1400   11.1000    6.1840 hc        1 PS4      0.136000
     58 H10         3.1250   14.1580    7.1590 ha        1 PS4      0.140000
     59 C25         2.2980    4.3010   -3.6220 c2        1 PS4      0.312000
     60 H202        3.4970    5.9220   -4.1840 hn        1 PS4      0.260500
     61 H213        2.2960   14.3600    4.9200 hn        1 PS4      0.269000
     62 H7         -0.7590   12.2500    6.8940 ha        1 PS4      0.158000
@<TRIPOS>BOND
     1    1   19 1   
     2    1   32 1   
     3    1   33 1   
     4    1   34 1   
     5    2    3 1   
     6    2   30 1   
     7    2   62 1   
     8    3   28 1   
     9    3   29 1   
    10    4    5 1   
    11    4   30 1   
    12    4   35 1   
    13    4   36 1   
    14    5   29 1   
    15    6    7 1   
    16    6   26 1   
    17    6   38 1   
    18    6   53 1   
    19    7   24 1   
    20    7   25 1   
    21    8    9 1   
    22    8   11 1   
    23    8   40 1   
    24    9   22 1   
    25    9   41 1   
    26   10   11 1   
    27   10   23 1   
    28   10   43 1   
    29   10   44 1   
    30   11   42 1   
    31   11   45 1   
    32   12   17 1   
    33   13   14 1   
    34   13   16 1   
    35   14   19 1   
    36   15   59 1   
    37   16   18 1   
    38   16   59 1   
    39   17   47 1   
    40   17   48 1   
    41   18   46 1   
    42   18   49 1   
    43   19   20 1   
    44   19   21 1   
    45   22   50 1   
    46   22   59 1   
    47   22   60 1   
    48   23   24 1   
    49   23   51 1   
    50   23   52 1   
    51   24   39 1   
    52   26   27 1   
    53   26   28 1   
    54   26   54 1   
    55   27   37 1   
    56   27   55 1   
    57   27   61 1   
    58   28   56 1   
    59   28   57 1   
    60   29   58 1   
    61   30   31 1   
@<TRIPOS>SUBSTRUCTURE
     1 PS4         1 TEMP              0 ****  ****    0 ROOT
