@<TRIPOS>MOLECULE
PS4
   62    60     1     0     0
SMALL
bcc


@<TRIPOS>ATOM
      1 C1         21.9950 -314.4060 -182.7010 c3        1 PS4     -0.972000
      2 C7        -12.6400  275.7720  154.5160 c2        1 PS4     -0.234000
      3 C8        -13.9700  275.2610  154.4450 c2        1 PS4      0.290000
      4 C11       -13.4540  278.0420  153.8880 c3        1 PS4     -0.200000
      5 C12       -14.7940  277.4420  153.7830 c2        1 PS4      0.046000
      6 C15       -18.5370  272.8740  156.6820 c3        1 PS4     -0.241000
      7 C16       -18.4350  273.7250  155.4460 c2        1 PS4      0.320000
      8 C18        28.7320 -314.7830 -184.0110 cu        1 PS4     -0.122000
      9 C19        27.8970 -315.4730 -185.0450 cx        1 PS4     -0.092000
     10 C23       -21.7920  273.4140  153.7480 c3        1 PS4     -0.232000
     11 C24        28.3560 -314.0470 -185.0400 cu        1 PS4     -0.122000
     12 C27        28.6330 -319.1090 -185.1360 c2        1 PS4     -0.140000
     13 C30        24.0300 -317.3270 -183.0200 c2        1 PS4      0.081000
     14 C31        23.6350 -316.3430 -182.2120 c2        1 PS4     -0.872000
     15 O32        26.6230 -318.1400 -184.4190 os        1 PS4     -0.125000
     16 C28        24.5140 -317.1390 -184.4000 c2        1 PS4     -0.468000
     17 C29        28.0350 -318.1970 -184.3690 c2        1 PS4     -0.117000
     18 C26        23.6660 -317.2030 -185.4340 c1        1 PS4      0.429000
     19 S4         23.6200 -314.6670 -182.4040 s6        1 PS4      2.872000
     20 O2         24.3850 -314.3640 -183.5530 o         1 PS4     -0.949000
     21 O3         24.0300 -314.0750 -181.2130 o         1 PS4     -0.949000
     22 N20        26.5010 -315.7720 -184.8190 n7        1 PS4     -0.187000
     23 C22       -20.7750  273.2000  154.8570 c3        1 PS4     -0.029000
     24 N17       -19.5130  273.8510  154.6130 ns        1 PS4     -0.363000
     25 O5        -17.3690  274.3340  155.1570 o         1 PS4     -0.484000
     26 C14       -13.4700  272.8870  155.1020 c1        1 PS4      0.415000
     27 N21       -16.9330  277.5340  155.9170 n9        1 PS4     -0.428000
     28 C13       -14.2520  273.9150  154.7910 c2        1 PS4     -0.538000
     29 C10       -15.0270  276.1240  154.0360 c2        1 PS4     -0.203000
     30 C9        -12.3800  277.0910  154.2520 c2        1 PS4      0.050000
     31 Cl6       -10.8200  277.6960  154.3420 cl        1 PS4      0.109000
     32 H1         21.7680 -314.2300 -183.7850 h1        1 PS4      0.181333
     33 H1A        21.6200 -313.4900 -182.1640 h1        1 PS4      0.181333
     34 H1B        21.3090 -315.2280 -182.3750 h1        1 PS4      0.181333
     35 H11       -13.4950  278.8770  154.6590 hc        1 PS4      0.199000
     36 H12       -13.1970  278.5550  152.9090 hc        1 PS4      0.199000
     37 H15       -17.5810  272.9450  157.2570 hc        1 PS4      0.115000
     38 H15A      -18.7170  271.8070  156.4030 hc        1 PS4      0.115000
     39 H18       -19.4260  274.4090  153.7950 hn        1 PS4      0.236000
     40 H19        29.2490 -314.9250 -183.0800 ha        1 PS4      0.226500
     41 H19A       28.3390 -316.2150 -185.7500 h1        1 PS4      0.161000
     42 H23       -22.0280  274.4970  153.6170 hc        1 PS4      0.094667
     43 H23A      -22.7330  272.8770  154.0220 hc        1 PS4      0.094667
     44 H24       -21.4230  273.0080  152.7750 hc        1 PS4      0.094667
     45 H24A       28.3260 -313.1320 -185.6030 ha        1 PS4      0.226500
     46 H27        29.7140 -319.2970 -185.0430 ha        1 PS4      0.164500
     47 H30        24.0260 -318.3890 -182.6990 ha        1 PS4      0.170000
     48 H29        23.2990 -316.6670 -181.1990 h4        1 PS4      0.207000
     49 H26        28.0960 -319.7280 -185.8700 ha        1 PS4      0.164500
     50 HN20       28.4830 -317.5570 -183.5970 h4        1 PS4      0.174000
     51 H22       -21.2030  273.5850  155.8290 h1        1 PS4      0.087000
     52 H22A      -20.5960  272.0910  154.9850 h1        1 PS4      0.087000
     53 H14       -19.3780  273.2220  157.3310 hc        1 PS4      0.115000
     54 HN21      -17.1430  276.5590  155.8250 hn        1 PS4      0.142333
     55 HN2A      -17.7520  278.0620  155.6980 hn        1 PS4      0.142333
     56 H13       -15.6220  278.1210  153.5040 ha        1 PS4      0.188000
     57 H13A      -15.3570  273.6520  154.8330 ha        1 PS4      0.276000
     58 H10       -16.0510  275.7030  153.9700 ha        1 PS4      0.213000
     59 C25        25.9780 -316.9590 -184.5510 c2        1 PS4      0.368000
     60 H202       25.8700 -314.9690 -184.8050 hn        1 PS4      0.326000
     61 H213      -16.6820  277.7210  156.8660 hn        1 PS4      0.142333
     62 H7        -11.8230  275.0830  154.7990 ha        1 PS4      0.184000
@<TRIPOS>BOND
     1    1   19 1   
     2    1   32 1   
     3    1   33 1   
     4    1   34 1   
     5    2    3 1   
     6    2   30 1   
     7    2   62 1   
     8    3   28 1   
     9    3   29 1   
    10    4    5 1   
    11    4   30 1   
    12    4   35 1   
    13    4   36 1   
    14    5   29 1   
    15    5   56 1   
    16    6    7 1   
    17    6   37 1   
    18    6   38 1   
    19    6   53 1   
    20    7   24 1   
    21    7   25 1   
    22    8    9 1   
    23    8   11 1   
    24    8   40 1   
    25    9   11 1   
    26    9   22 1   
    27    9   41 1   
    28   10   23 1   
    29   10   42 1   
    30   10   43 1   
    31   10   44 1   
    32   11   45 1   
    33   12   17 1   
    34   12   46 1   
    35   12   49 1   
    36   13   14 1   
    37   13   16 1   
    38   13   47 1   
    39   14   19 1   
    40   14   48 1   
    41   15   17 1   
    42   15   59 1   
    43   16   18 1   
    44   16   59 1   
    45   17   50 1   
    46   19   20 1   
    47   19   21 1   
    48   22   59 1   
    49   22   60 1   
    50   23   24 1   
    51   23   51 1   
    52   23   52 1   
    53   24   39 1   
    54   26   28 1   
    55   27   54 1   
    56   27   55 1   
    57   27   61 1   
    58   28   57 1   
    59   29   58 1   
    60   30   31 1   
@<TRIPOS>SUBSTRUCTURE
     1 PS4         1 TEMP              0 ****  ****    0 ROOT
