@<TRIPOS>MOLECULE
PS5
    5     4     1     0     0
SMALL
bcc


@<TRIPOS>ATOM
      1 S1         -3.2070    0.3240    0.4950 s         1 PS5     -0.900000
      2 S2         -1.6370   -0.6940   -0.1250 ss        1 PS5      0.011000
      3 S3         -0.0000   -0.0030   -0.7350 ss        1 PS5     -0.221000
      4 S4          1.6360    0.6930   -0.1310 ss        1 PS5      0.011000
      5 S5          3.2070   -0.3210    0.4960 s         1 PS5     -0.900000
@<TRIPOS>BOND
     1    1    2 1   
     2    2    3 1   
     3    3    4 1   
     4    4    5 1   
@<TRIPOS>SUBSTRUCTURE
     1 PS5         1 TEMP              0 ****  ****    0 ROOT
