@<TRIPOS>MOLECULE
PS5
    5     4     1     0     0
SMALL
bcc


@<TRIPOS>ATOM
      1 S1         -2.5050    1.6740   -1.5340 s         1 PS5     -0.879000
      2 S2         -0.5580    1.0500   -1.3750 ss        1 PS5      0.002000
      3 S3         -0.3470   -0.1070    0.3040 ss        1 PS5     -0.245000
      4 S4          1.5990   -0.7310    0.4630 ss        1 PS5      0.002000
      5 S5          1.8110   -1.8870    2.1420 s         1 PS5     -0.879000
@<TRIPOS>BOND
     1    1    2 1   
     2    2    3 1   
     3    3    4 1   
     4    4    5 1   
@<TRIPOS>SUBSTRUCTURE
     1 PS5         1 TEMP              0 ****  ****    0 ROOT
