@<TRIPOS>MOLECULE
PS5
    5     4     1     0     0
SMALL
bcc


@<TRIPOS>ATOM
      1 S1         -3.2130    0.2810    0.4800 s         1 PS5     -0.900000
      2 S2         -1.6310   -0.6970   -0.1740 ss        1 PS5      0.011000
      3 S3          0.0070    0.0320   -0.7340 ss        1 PS5     -0.221000
      4 S4          1.6330    0.7080   -0.0830 ss        1 PS5      0.011000
      5 S5          3.2040   -0.3250    0.5110 s         1 PS5     -0.900000
@<TRIPOS>BOND
     1    1    2 1   
     2    2    3 1   
     3    3    4 1   
     4    4    5 1   
@<TRIPOS>SUBSTRUCTURE
     1 PS5         1 TEMP              0 ****  ****    0 ROOT
