@<TRIPOS>MOLECULE
PS6
   86    85     1     0     0
SMALL
bcc


@<TRIPOS>ATOM
      1 O2          3.2400    2.2240   -0.4080 os        1 PS6     -0.570200
      2 O1          5.5510    2.3180   -1.4420 os        1 PS6     -0.599200
      3 P           4.5730    3.2160   -0.4870 p5        1 PS6      1.429800
      4 O4          4.1540    4.4010   -1.2590 o         1 PS6     -0.837000
      5 O3          5.1190    3.2550    0.8870 o         1 PS6     -0.837000
      6 C2          3.3730    1.2040    0.5290 c3        1 PS6      0.166400
      7 C3          2.1380    0.2910    0.4360 c3        1 PS6      0.132100
      8 O11         2.5130   -0.9440    1.0740 os        1 PS6     -0.444900
      9 O12         1.7000   -2.1630   -0.6310 o         1 PS6     -0.564000
     10 C1          2.4260   -2.1070    0.3650 c         1 PS6      0.649100
     11 C4          0.9790    0.9000    1.2200 c3        1 PS6      0.126400
     12 C5         -1.3570    0.4010    1.4330 c         1 PS6      0.631100
     13 O51        -1.3420    0.9840    2.5220 o         1 PS6     -0.573000
     14 O52        -0.2260    0.3060    0.6940 os        1 PS6     -0.420900
     15 C13         3.2380   -3.2110    0.9760 c3        1 PS6     -0.120400
     16 C14         4.4920   -3.4530    0.1590 c3        1 PS6     -0.106400
     17 C15         5.2580   -4.6410    0.6990 c3        1 PS6     -0.051400
     18 N           6.4660    0.0480   -2.9510 n3        1 PS6     -0.895800
     19 CA          6.3920    0.0470   -1.5000 c3        1 PS6      0.027500
     20 CB          6.4820    1.4500   -0.8550 c3        1 PS6      0.152400
     21 C           7.4980   -0.8410   -0.8600 c         1 PS6      0.917600
     22 OXT         8.6900   -0.7280   -1.2670 o         1 PS6     -0.862800
     23 O           7.1490   -1.6530    0.0480 o         1 PS6     -0.862800
     24 C16         6.5640   -4.8100   -0.0490 c3        1 PS6     -0.110400
     25 C17         7.3980   -5.9190    0.5360 c3        1 PS6     -0.077100
     26 C6         -2.5220   -0.2820    0.7770 c3        1 PS6     -0.132400
     27 C7         -3.7950    0.5140    0.9670 c3        1 PS6     -0.078400
     28 C8         -4.9900   -0.2410    0.4280 c3        1 PS6     -0.078400
     29 C9         -6.2640    0.5600    0.5970 c3        1 PS6     -0.079400
     30 C10        -7.4630   -0.1950    0.0630 c3        1 PS6     -0.079400
     31 C18        -8.7360    0.6060    0.2310 c3        1 PS6     -0.079400
     32 C19        -9.9350   -0.1480   -0.3020 c3        1 PS6     -0.078400
     33 C20       -11.2080    0.6530   -0.1340 c3        1 PS6     -0.079400
     34 C21       -12.4070   -0.1010   -0.6670 c3        1 PS6     -0.078400
     35 C22       -13.6810    0.7000   -0.4990 c3        1 PS6     -0.079400
     36 C23       -14.8800   -0.0540   -1.0320 c3        1 PS6     -0.079400
     37 C24       -16.1540    0.7460   -0.8640 c3        1 PS6     -0.080400
     38 C25       -17.3510   -0.0010   -1.3940 c3        1 PS6     -0.092100
     39 H2          4.2960    0.5990    0.3040 h1        1 PS6      0.051700
     40 H2A         3.4720    1.6440    1.5580 h1        1 PS6      0.051700
     41 H3          1.8470    0.1230   -0.6360 h1        1 PS6      0.105700
     42 H4          1.0590    0.6890    2.3160 h1        1 PS6      0.072200
     43 H4A         0.9330    2.0040    1.0290 h1        1 PS6      0.072200
     44 H13         3.5160   -2.9360    2.0270 hc        1 PS6      0.053200
     45 H13A        2.6010   -4.1330    1.0040 hc        1 PS6      0.053200
     46 H14         4.2140   -3.6330   -0.9120 hc        1 PS6      0.096700
     47 H14A        5.1630   -2.5400    0.1800 hc        1 PS6      0.096700
     48 H15         5.4720   -4.4850    1.7890 hc        1 PS6      0.010200
     49 H15A        4.6390   -5.5740    0.6120 hc        1 PS6      0.010200
     50 HA          5.3900   -0.3980   -1.2340 h1        1 PS6      0.040700
     51 HB          7.5160    1.8610   -1.0390 h1        1 PS6      0.037200
     52 HBA         6.3080    1.3800    0.2530 h1        1 PS6      0.037200
     53 H16         6.3500   -5.0280   -1.1280 hc        1 PS6      0.084200
     54 H16A        7.1320   -3.8310   -0.0160 hc        1 PS6      0.084200
     55 H17         8.3490   -6.0310   -0.0390 hc        1 PS6      0.012033
     56 H17A        7.6560   -5.6980    1.6000 hc        1 PS6      0.012033
     57 H17B        6.8520   -6.8940    0.5050 hc        1 PS6      0.012033
     58 H6         -2.3050   -0.4270   -0.3150 hc        1 PS6      0.074700
     59 H6A        -2.6210   -1.2980    1.2440 hc        1 PS6      0.074700
     60 H7         -3.9380    0.7340    2.0580 hc        1 PS6      0.054700
     61 H7A        -3.7010    1.5010    0.4410 hc        1 PS6      0.054700
     62 H8         -4.8320   -0.4710   -0.6590 hc        1 PS6      0.038700
     63 H8A        -5.0890   -1.2220    0.9630 hc        1 PS6      0.038700
     64 H9         -6.4190    0.7940    1.6830 hc        1 PS6      0.041200
     65 H9A        -6.1650    1.5390    0.0590 hc        1 PS6      0.041200
     66 H10        -7.3060   -0.4290   -1.0230 hc        1 PS6      0.038200
     67 H10A       -7.5610   -1.1740    0.6010 hc        1 PS6      0.038200
     68 H18        -8.8920    0.8410    1.3170 hc        1 PS6      0.039200
     69 H18A       -8.6370    1.5850   -0.3070 hc        1 PS6      0.039200
     70 H19        -9.7790   -0.3820   -1.3880 hc        1 PS6      0.038700
     71 H19A      -10.0330   -1.1270    0.2360 hc        1 PS6      0.038700
     72 H20       -11.3640    0.8880    0.9520 hc        1 PS6      0.039200
     73 H20A      -11.1100    1.6320   -0.6720 hc        1 PS6      0.039200
     74 H21       -12.2510   -0.3360   -1.7530 hc        1 PS6      0.038700
     75 H21A      -12.5050   -1.0810   -0.1290 hc        1 PS6      0.038700
     76 H22       -13.8360    0.9350    0.5870 hc        1 PS6      0.039200
     77 H22A      -13.5820    1.6790   -1.0380 hc        1 PS6      0.039200
     78 H23       -14.7240   -0.2890   -2.1180 hc        1 PS6      0.039200
     79 H23A      -14.9780   -1.0340   -0.4940 hc        1 PS6      0.039200
     80 H24       -16.3070    0.9810    0.2220 hc        1 PS6      0.038200
     81 H24A      -16.0530    1.7260   -1.4020 hc        1 PS6      0.038200
     82 H25       -18.2780    0.6060   -1.2610 hc        1 PS6      0.030367
     83 H25A      -17.2270   -0.2220   -2.4820 hc        1 PS6      0.030367
     84 H25B      -17.4820   -0.9690   -0.8530 hc        1 PS6      0.030367
     85 HN          6.0290    0.8850   -3.2940 hn        1 PS6      0.333800
     86 HNA         7.4340    0.0710   -3.2220 hn        1 PS6      0.333800
@<TRIPOS>BOND
     1    1    3 1   
     2    1    6 1   
     3    2    3 1   
     4    2   20 1   
     5    3    4 1   
     6    3    5 1   
     7    6    7 1   
     8    6   39 1   
     9    6   40 1   
    10    7    8 1   
    11    7   11 1   
    12    7   41 1   
    13    8   10 1   
    14    9   10 2   
    15   10   15 1   
    16   11   14 1   
    17   11   42 1   
    18   11   43 1   
    19   12   13 2   
    20   12   14 1   
    21   12   26 1   
    22   15   16 1   
    23   15   44 1   
    24   15   45 1   
    25   16   17 1   
    26   16   46 1   
    27   16   47 1   
    28   17   24 1   
    29   17   48 1   
    30   17   49 1   
    31   18   19 1   
    32   18   85 1   
    33   18   86 1   
    34   19   20 1   
    35   19   21 1   
    36   19   50 1   
    37   20   51 1   
    38   20   52 1   
    39   21   22 1   
    40   21   23 1   
    41   24   25 1   
    42   24   53 1   
    43   24   54 1   
    44   25   55 1   
    45   25   56 1   
    46   25   57 1   
    47   26   27 1   
    48   26   58 1   
    49   26   59 1   
    50   27   28 1   
    51   27   60 1   
    52   27   61 1   
    53   28   29 1   
    54   28   62 1   
    55   28   63 1   
    56   29   30 1   
    57   29   64 1   
    58   29   65 1   
    59   30   31 1   
    60   30   66 1   
    61   30   67 1   
    62   31   32 1   
    63   31   68 1   
    64   31   69 1   
    65   32   33 1   
    66   32   70 1   
    67   32   71 1   
    68   33   34 1   
    69   33   72 1   
    70   33   73 1   
    71   34   35 1   
    72   34   74 1   
    73   34   75 1   
    74   35   36 1   
    75   35   76 1   
    76   35   77 1   
    77   36   37 1   
    78   36   78 1   
    79   36   79 1   
    80   37   38 1   
    81   37   80 1   
    82   37   81 1   
    83   38   82 1   
    84   38   83 1   
    85   38   84 1   
@<TRIPOS>SUBSTRUCTURE
     1 PS6         1 TEMP              0 ****  ****    0 ROOT
