@<TRIPOS>MOLECULE
PS6
   87    86     1     0     0
SMALL
bcc


@<TRIPOS>ATOM
      1 O2         -0.7040    0.8910   -0.2960 os        1 PS6     -0.561200
      2 O1          1.2300   -0.1540   -1.3960 os        1 PS6     -0.605200
      3 P           0.8790    1.2260   -0.5630 p5        1 PS6      1.452800
      4 O4          1.5850    1.2400    0.7230 o         1 PS6     -0.823000
      5 O3          0.9400    2.2750   -1.6170 o         1 PS6     -0.823000
      6 C2         -0.8840   -0.1430    0.6290 c3        1 PS6      0.158400
      7 C3         -2.3900   -0.3250    0.8570 c3        1 PS6      0.134100
      8 O11        -2.5360   -1.4800    1.7080 os        1 PS6     -0.441900
      9 O12        -3.7750   -2.5230    0.1440 o         1 PS6     -0.545000
     10 C1         -3.2380   -2.5560    1.2520 c         1 PS6      0.640100
     11 C4         -2.9610    0.8720    1.6130 c3        1 PS6      0.128400
     12 C5         -5.1540    1.6800    2.1310 c         1 PS6      0.632100
     13 O51        -4.6240    2.3590    3.0150 o         1 PS6     -0.552000
     14 O52        -4.3790    0.8650    1.3630 os        1 PS6     -0.437900
     15 C13        -3.2600   -3.6730    2.2550 c3        1 PS6     -0.129400
     16 C14        -2.9910   -5.0030    1.5830 c3        1 PS6     -0.080400
     17 C15        -3.1440   -6.1430    2.5660 c3        1 PS6     -0.077400
     18 N           1.7300    1.1370   -4.0290 n4        1 PS6     -0.861600
     19 CA          2.2670   -0.1770   -3.5770 c3        1 PS6     -0.064500
     20 CB          2.4600   -0.2190   -2.0510 c3        1 PS6      0.195400
     21 C           3.6310   -0.4990   -4.3050 c         1 PS6      0.921600
     22 OXT         4.0870    0.4050   -5.0610 o         1 PS6     -0.798300
     23 O           4.1210   -1.6280   -4.0900 o         1 PS6     -0.798300
     24 C16        -2.8580   -7.4750    1.9050 c3        1 PS6     -0.081400
     25 C17        -3.0110   -8.6170    2.8760 c3        1 PS6     -0.091100
     26 C6         -6.6060    1.5950    1.7690 c3        1 PS6     -0.129400
     27 C7         -7.2570    2.9610    1.8170 c3        1 PS6     -0.079400
     28 C8         -8.7490    2.8540    1.5880 c3        1 PS6     -0.078400
     29 C9         -9.4020    4.2200    1.6150 c3        1 PS6     -0.079400
     30 C10       -10.8960    4.1180    1.3910 c3        1 PS6     -0.078400
     31 C18       -11.5500    5.4830    1.4170 c3        1 PS6     -0.079400
     32 C19       -13.0430    5.3810    1.1940 c3        1 PS6     -0.078400
     33 C20       -13.6970    6.7470    1.2200 c3        1 PS6     -0.079400
     34 C21       -15.1900    6.6460    0.9970 c3        1 PS6     -0.078400
     35 C22       -15.8440    8.0110    1.0230 c3        1 PS6     -0.079400
     36 C23       -17.3370    7.9100    0.8010 c3        1 PS6     -0.079400
     37 C24       -17.9920    9.2750    0.8260 c3        1 PS6     -0.080400
     38 C25       -19.4790    9.1800    0.6050 c3        1 PS6     -0.092100
     39 H2         -0.3580    0.1190    1.5880 h1        1 PS6      0.055700
     40 H2A        -0.4460   -1.0890    0.2100 h1        1 PS6      0.055700
     41 H3         -2.9260   -0.4680   -0.1200 h1        1 PS6      0.106700
     42 H4         -2.5310    1.8210    1.1980 h1        1 PS6      0.078200
     43 H4A        -2.7700    0.8010    2.7140 h1        1 PS6      0.078200
     44 H13        -4.2750   -3.6740    2.7340 hc        1 PS6      0.072700
     45 H13A       -2.4990   -3.4770    3.0560 hc        1 PS6      0.072700
     46 H14        -3.7020   -5.1370    0.7240 hc        1 PS6      0.059200
     47 H14A       -1.9530   -5.0050    1.1570 hc        1 PS6      0.059200
     48 H15        -4.1850   -6.1460    2.9830 hc        1 PS6      0.038200
     49 H15A       -2.4420   -5.9940    3.4290 hc        1 PS6      0.038200
     50 HA          1.5250   -0.9750   -3.8580 hx        1 PS6      0.084700
     51 HB          2.9400   -1.2120   -1.8210 h1        1 PS6      0.058700
     52 HBA         3.1290    0.6160   -1.7070 h1        1 PS6      0.058700
     53 H16        -1.8150   -7.4700    1.4910 hc        1 PS6      0.042700
     54 H16A       -3.5560   -7.6190    1.0380 hc        1 PS6      0.042700
     55 H17        -4.0520   -8.6540    3.2800 hc        1 PS6      0.030367
     56 H17A       -2.3060   -8.5030    3.7340 hc        1 PS6      0.030367
     57 H17B       -2.7960   -9.5890    2.3690 hc        1 PS6      0.030367
     58 H6         -7.0950    0.9030    2.5060 hc        1 PS6      0.074700
     59 H6A        -6.7140    1.1410    0.7490 hc        1 PS6      0.074700
     60 H7         -7.0520    3.4370    2.8130 hc        1 PS6      0.057200
     61 H7A        -6.7990    3.6210    1.0340 hc        1 PS6      0.057200
     62 H8         -9.2070    2.2030    2.3780 hc        1 PS6      0.039200
     63 H8A        -8.9450    2.3630    0.5980 hc        1 PS6      0.039200
     64 H9         -9.2020    4.7130    2.6020 hc        1 PS6      0.042200
     65 H9A        -8.9470    4.8700    0.8220 hc        1 PS6      0.042200
     66 H10       -11.0960    3.6240    0.4040 hc        1 PS6      0.038700
     67 H10A      -11.3520    3.4670    2.1840 hc        1 PS6      0.038700
     68 H18       -11.0940    6.1330    0.6240 hc        1 PS6      0.040200
     69 H18A      -11.3490    5.9770    2.4040 hc        1 PS6      0.040200
     70 H19       -13.4990    4.7310    1.9870 hc        1 PS6      0.039200
     71 H19A      -13.2430    4.8870    0.2070 hc        1 PS6      0.039200
     72 H20       -13.2410    7.3960    0.4270 hc        1 PS6      0.039700
     73 H20A      -13.4960    7.2410    2.2070 hc        1 PS6      0.039700
     74 H21       -15.3910    6.1510    0.0100 hc        1 PS6      0.039200
     75 H21A      -15.6460    5.9960    1.7900 hc        1 PS6      0.039200
     76 H22       -15.6430    8.5050    2.0100 hc        1 PS6      0.039200
     77 H22A      -15.3880    8.6610    0.2300 hc        1 PS6      0.039200
     78 H23       -17.7930    7.2600    1.5940 hc        1 PS6      0.039200
     79 H23A      -17.5380    7.4160   -0.1860 hc        1 PS6      0.039200
     80 H24       -17.7880    9.7680    1.8130 hc        1 PS6      0.038200
     81 H24A      -17.5340    9.9240    0.0330 hc        1 PS6      0.038200
     82 H25       -19.9570    8.5570    1.4000 hc        1 PS6      0.031367
     83 H25A      -19.9420   10.1960    0.6280 hc        1 PS6      0.031367
     84 H25B      -19.7020    8.7130   -0.3850 hc        1 PS6      0.031367
     85 HNA         2.5170    1.6680   -4.4310 hn        1 PS6      0.453800
     86 H26         1.0290    1.0020   -4.7460 hn        1 PS6      0.453800
     87 HN          1.3180    1.6610   -3.2110 hn        1 PS6      0.453800
@<TRIPOS>BOND
     1    1    3 1   
     2    1    6 1   
     3    2    3 1   
     4    2   20 1   
     5    3    4 1   
     6    3    5 1   
     7    6    7 1   
     8    6   39 1   
     9    6   40 1   
    10    7    8 1   
    11    7   11 1   
    12    7   41 1   
    13    8   10 1   
    14    9   10 2   
    15   10   15 1   
    16   11   14 1   
    17   11   42 1   
    18   11   43 1   
    19   12   13 2   
    20   12   14 1   
    21   12   26 1   
    22   15   16 1   
    23   15   44 1   
    24   15   45 1   
    25   16   17 1   
    26   16   46 1   
    27   16   47 1   
    28   17   24 1   
    29   17   48 1   
    30   17   49 1   
    31   18   19 1   
    32   18   85 1   
    33   18   86 1   
    34   18   87 1   
    35   19   20 1   
    36   19   21 1   
    37   19   50 1   
    38   20   51 1   
    39   20   52 1   
    40   21   22 1   
    41   21   23 1   
    42   24   25 1   
    43   24   53 1   
    44   24   54 1   
    45   25   55 1   
    46   25   56 1   
    47   25   57 1   
    48   26   27 1   
    49   26   58 1   
    50   26   59 1   
    51   27   28 1   
    52   27   60 1   
    53   27   61 1   
    54   28   29 1   
    55   28   62 1   
    56   28   63 1   
    57   29   30 1   
    58   29   64 1   
    59   29   65 1   
    60   30   31 1   
    61   30   66 1   
    62   30   67 1   
    63   31   32 1   
    64   31   68 1   
    65   31   69 1   
    66   32   33 1   
    67   32   70 1   
    68   32   71 1   
    69   33   34 1   
    70   33   72 1   
    71   33   73 1   
    72   34   35 1   
    73   34   74 1   
    74   34   75 1   
    75   35   36 1   
    76   35   76 1   
    77   35   77 1   
    78   36   37 1   
    79   36   78 1   
    80   36   79 1   
    81   37   38 1   
    82   37   80 1   
    83   37   81 1   
    84   38   82 1   
    85   38   83 1   
    86   38   84 1   
@<TRIPOS>SUBSTRUCTURE
     1 PS6         1 TEMP              0 ****  ****    0 ROOT
