@<TRIPOS>MOLECULE
PS6
   86    84     1     0     0
SMALL
bcc


@<TRIPOS>ATOM
      1 O2          5.8730    2.2620    2.4280 os        1 PS6     -0.729000
      2 O1          8.2050    3.1670    3.0870 os        1 PS6     -0.762000
      3 P           7.3380    1.8610    2.9000 p5        1 PS6      1.897000
      4 O4          7.2600    1.1150    4.2170 o         1 PS6     -0.837500
      5 O3          7.9730    0.9800    1.8650 o         1 PS6     -0.837500
      6 C2          5.1160    1.3120    1.6600 c3        1 PS6      0.053000
      7 C3          3.6280    1.6400    1.7660 c3        1 PS6     -0.018000
      8 O11         3.4150    2.9880    1.4120 os        1 PS6     -0.271000
      9 O12         2.7520    3.5440    3.5770 o         1 PS6     -0.387000
     10 C1          2.6070    3.7370    2.3770 c2        1 PS6      0.313000
     11 C4          2.8400    0.7320    0.8170 c3        1 PS6     -0.058000
     12 C5          1.7230   -1.4100    0.7960 c1        1 PS6      0.309000
     13 O51         2.3320   -1.7240   -0.1730 o         1 PS6     -0.390000
     14 O52         2.1470   -0.2700    1.5770 o         1 PS6     -0.261000
     15 C13         1.5520    4.7540    1.8760 c3        1 PS6     -0.157000
     16 C14         1.8420    6.1440    2.4950 c3        1 PS6     -0.162000
     17 C15         0.6200    7.0670    2.3000 c3        1 PS6     -0.152000
     18 N          10.1790    5.3230    4.0220 n3        1 PS6     -0.344000
     19 CA         10.3840    4.1850    3.2100 c3        1 PS6     -0.122000
     20 CB          9.4880    3.0480    3.6910 c3        1 PS6      0.016000
     21 C          11.8240    3.7600    3.2980 c2        1 PS6      0.329000
     22 OXT        12.3270    3.4540    4.4200 o         1 PS6     -0.595000
     23 O          12.5430    3.7630    2.2680 o         1 PS6     -0.595000
     24 C16         1.0040    8.4960    2.6410 c3        1 PS6     -0.164000
     25 C17        -0.2550    9.3910    2.5860 c3        1 PS6     -0.206000
     26 C6          0.4920   -2.1980    1.2090 c3        1 PS6     -0.165000
     27 C7          0.0840   -3.1640    0.0590 c3        1 PS6     -0.155000
     28 C8         -1.3080   -3.7000    0.3230 c3        1 PS6     -0.158000
     29 C9         -1.7720   -4.5280   -0.8700 c3        1 PS6     -0.157000
     30 C10        -3.3010   -4.7320   -0.7910 c3        1 PS6     -0.158000
     31 C18        -3.8210   -5.3010   -2.1540 c3        1 PS6     -0.157000
     32 C19        -5.3900   -5.2690   -2.1760 c3        1 PS6     -0.158000
     33 C20        -5.8890   -5.5140   -3.6240 c3        1 PS6     -0.157000
     34 C21        -7.4320   -5.4520   -3.6560 c3        1 PS6     -0.158000
     35 C22        -7.8980   -5.3570   -5.0820 c3        1 PS6     -0.158000
     36 C23        -9.4300   -5.2590   -5.1160 c3        1 PS6     -0.158000
     37 C24        -9.9030   -5.1310   -6.5580 c3        1 PS6     -0.159000
     38 C25       -11.4410   -4.9590   -6.5790 c3        1 PS6     -0.210000
     39 H2          5.3970    1.3560    0.7080 h1        1 PS6      0.085000
     40 H2A         5.2790    0.3980    2.0110 h1        1 PS6      0.085000
     41 H3          3.3250    1.4920    2.6870 h1        1 PS6      0.138000
     42 H4          2.1920    1.2670    0.3160 h1        1 PS6      0.156000
     43 H4A         3.4640    0.2930    0.1860 h1        1 PS6      0.156000
     44 H13         0.6650    4.4590    2.1440 hc        1 PS6      0.101500
     45 H13A        1.5950    4.8150    0.9010 hc        1 PS6      0.101500
     46 H14         2.6250    6.5410    2.0520 hc        1 PS6      0.106500
     47 H14A        2.0250    6.0420    3.4590 hc        1 PS6      0.106500
     48 H15        -0.0990    6.7780    2.8860 hc        1 PS6      0.069000
     49 H15A        0.3200    7.0240    1.3710 hc        1 PS6      0.069000
     50 HN          9.8670    6.0120    3.5080 hn        1 PS6      0.130000
     51 HNA        10.9800    5.5700    4.4140 hn        1 PS6      0.130000
     52 HA         10.1640    4.4030    2.2830 h1        1 PS6      0.090000
     53 HB          9.3980    3.0930    4.6490 h1        1 PS6      0.075500
     54 HBA         9.8850    2.1980    3.4430 h1        1 PS6      0.075500
     55 H16         1.6690    8.8220    1.9900 hc        1 PS6      0.090500
     56 H16A        1.3820    8.5260    3.5280 hc        1 PS6      0.090500
     57 H17        -0.8490    9.1660    3.3380 hc        1 PS6      0.064000
     58 H17A        0.0090   10.3330    2.6480 hc        1 PS6      0.064000
     59 H17B       -0.7310    9.2380    1.7340 hc        1 PS6      0.064000
     60 H6         -0.2470   -1.5800    1.3920 hc        1 PS6      0.119000
     61 H6A         0.6910   -2.7160    2.0130 hc        1 PS6      0.119000
     62 H7          0.7180   -3.9100    0.0160 hc        1 PS6      0.091000
     63 H7A         0.0910   -2.6820   -0.7890 hc        1 PS6      0.091000
     64 H8         -1.9190   -2.9590    0.4580 hc        1 PS6      0.079000
     65 H8A        -1.2950   -4.2580    1.1190 hc        1 PS6      0.079000
     66 H9         -1.5480   -4.0610   -1.6980 hc        1 PS6      0.078500
     67 H9A        -1.3270   -5.3940   -0.8560 hc        1 PS6      0.078500
     68 H10        -3.7330   -3.8790   -0.6080 hc        1 PS6      0.078000
     69 H10A       -3.5090   -5.3630   -0.0740 hc        1 PS6      0.078000
     70 H18        -3.4740   -4.7550   -2.8880 hc        1 PS6      0.078000
     71 H18A       -3.5130   -6.2220   -2.2590 hc        1 PS6      0.078000
     72 H19        -5.7370   -5.9630   -1.5930 hc        1 PS6      0.078000
     73 H19A       -5.7040   -4.3970   -1.8670 hc        1 PS6      0.078000
     74 H20        -5.5200   -4.8180   -4.2200 hc        1 PS6      0.078000
     75 H20A       -5.5910   -6.3940   -3.9270 hc        1 PS6      0.078000
     76 H21        -7.7380   -4.6640   -3.1580 hc        1 PS6      0.078000
     77 H21A       -7.8010   -6.2650   -3.2450 hc        1 PS6      0.078000
     78 H22        -7.5090   -4.5530   -5.5020 hc        1 PS6      0.078000
     79 H22A       -7.6100   -6.1570   -5.5740 hc        1 PS6      0.078000
     80 H23        -9.7230   -4.4650   -4.6030 hc        1 PS6      0.078000
     81 H23A       -9.8200   -6.0730   -4.7140 hc        1 PS6      0.078000
     82 H24        -9.4870   -4.3580   -6.9670 hc        1 PS6      0.077000
     83 H24A       -9.6560   -5.9360   -7.0560 hc        1 PS6      0.077000
     84 H25       -11.6850   -4.1260   -6.1080 hc        1 PS6      0.070000
     85 H25A      -11.7600   -4.9140   -7.5220 hc        1 PS6      0.070000
     86 H25B      -11.8620   -5.7240   -6.1280 hc        1 PS6      0.070000
@<TRIPOS>BOND
     1    1    3 1   
     2    1    6 1   
     3    2    3 1   
     4    2   20 1   
     5    3    4 1   
     6    3    5 1   
     7    6    7 1   
     8    6   39 1   
     9    6   40 1   
    10    7    8 1   
    11    7   11 1   
    12    7   41 1   
    13    8   10 1   
    14    9   10 1   
    15   10   15 1   
    16   11   14 1   
    17   11   42 1   
    18   11   43 1   
    19   12   13 1   
    20   12   26 1   
    21   15   16 1   
    22   15   44 1   
    23   15   45 1   
    24   16   17 1   
    25   16   46 1   
    26   16   47 1   
    27   17   24 1   
    28   17   48 1   
    29   17   49 1   
    30   18   19 1   
    31   18   50 1   
    32   18   51 1   
    33   19   20 1   
    34   19   21 1   
    35   19   52 1   
    36   20   53 1   
    37   20   54 1   
    38   21   22 1   
    39   21   23 1   
    40   24   25 1   
    41   24   55 1   
    42   24   56 1   
    43   25   57 1   
    44   25   58 1   
    45   25   59 1   
    46   26   27 1   
    47   26   60 1   
    48   26   61 1   
    49   27   28 1   
    50   27   62 1   
    51   27   63 1   
    52   28   29 1   
    53   28   64 1   
    54   28   65 1   
    55   29   30 1   
    56   29   66 1   
    57   29   67 1   
    58   30   31 1   
    59   30   68 1   
    60   30   69 1   
    61   31   32 1   
    62   31   70 1   
    63   31   71 1   
    64   32   33 1   
    65   32   72 1   
    66   32   73 1   
    67   33   34 1   
    68   33   74 1   
    69   33   75 1   
    70   34   35 1   
    71   34   76 1   
    72   34   77 1   
    73   35   36 1   
    74   35   78 1   
    75   35   79 1   
    76   36   37 1   
    77   36   80 1   
    78   36   81 1   
    79   37   38 1   
    80   37   82 1   
    81   37   83 1   
    82   38   84 1   
    83   38   85 1   
    84   38   86 1   
@<TRIPOS>SUBSTRUCTURE
     1 PS6         1 TEMP              0 ****  ****    0 ROOT
