@<TRIPOS>MOLECULE
PS6
   87    86     1     0     0
SMALL
bcc


@<TRIPOS>ATOM
      1 O2         -0.6490    0.8870   -0.3170 os        1 PS6     -0.561200
      2 O1          1.3040   -0.1780   -1.3640 os        1 PS6     -0.605200
      3 P           0.9430    1.2100   -0.5470 p5        1 PS6      1.452800
      4 O4          1.6170    1.2260    0.7550 o         1 PS6     -0.823000
      5 O3          1.0360    2.2510   -1.6050 o         1 PS6     -0.823000
      6 C2         -0.8590   -0.1420    0.6080 c3        1 PS6      0.158400
      7 C3         -2.3710   -0.3100    0.8040 c3        1 PS6      0.134100
      8 O11        -2.5460   -1.4610    1.6540 os        1 PS6     -0.441900
      9 O12        -3.7600   -2.4970    0.0660 o         1 PS6     -0.545000
     10 C1         -3.2470   -2.5320    1.1850 c         1 PS6      0.640100
     11 C4         -2.9460    0.8940    1.5450 c3        1 PS6      0.128400
     12 C5         -5.1440    1.7100    2.0290 c         1 PS6      0.632100
     13 O51        -4.6280    2.3780    2.9290 o         1 PS6     -0.552000
     14 O52        -4.3590    0.9000    1.2670 os        1 PS6     -0.437900
     15 C13        -3.3020   -3.6460    2.1900 c3        1 PS6     -0.129400
     16 C14        -3.0380   -4.9810    1.5260 c3        1 PS6     -0.080400
     17 C15        -3.2240   -6.1160    2.5090 c3        1 PS6     -0.077400
     18 N           1.8770    1.0950   -3.9910 n4        1 PS6     -0.861600
     19 CA          2.3950   -0.2210   -3.5190 c3        1 PS6     -0.064500
     20 CB          2.5500   -0.2550   -1.9880 c3        1 PS6      0.195400
     21 C           3.7730   -0.5560   -4.2110 c         1 PS6      0.921600
     22 OXT         4.2540    0.3410   -4.9600 o         1 PS6     -0.798300
     23 O           4.2510   -1.6860   -3.9770 o         1 PS6     -0.798300
     24 C16        -2.9430   -7.4540    1.8570 c3        1 PS6     -0.081400
     25 C17        -3.1310   -8.5910    2.8270 c3        1 PS6     -0.091100
     26 C6         -6.5900    1.6340    1.6390 c3        1 PS6     -0.129400
     27 C7         -7.2530    2.9900    1.7480 c3        1 PS6     -0.079400
     28 C8         -8.7410    2.8840    1.4920 c3        1 PS6     -0.078400
     29 C9         -9.4090    4.2390    1.5860 c3        1 PS6     -0.079400
     30 C10       -10.8980    4.1350    1.3370 c3        1 PS6     -0.078400
     31 C18       -11.5660    5.4900    1.4330 c3        1 PS6     -0.079400
     32 C19       -13.0560    5.3860    1.1860 c3        1 PS6     -0.078400
     33 C20       -13.7260    6.7400    1.2840 c3        1 PS6     -0.079400
     34 C21       -15.2160    6.6360    1.0380 c3        1 PS6     -0.078400
     35 C22       -15.8850    7.9890    1.1370 c3        1 PS6     -0.079400
     36 C23       -17.3750    7.8850    0.8920 c3        1 PS6     -0.079400
     37 C24       -18.0460    9.2390    0.9910 c3        1 PS6     -0.080400
     38 C25       -19.5300    9.1400    0.7470 c3        1 PS6     -0.092100
     39 H2         -0.3510    0.1190    1.5770 h1        1 PS6      0.055700
     40 H2A        -0.4200   -1.0940    0.2020 h1        1 PS6      0.055700
     41 H3         -2.8870   -0.4500   -0.1840 h1        1 PS6      0.106700
     42 H4         -2.5000    1.8380    1.1360 h1        1 PS6      0.078200
     43 H4A        -2.7760    0.8250    2.6500 h1        1 PS6      0.078200
     44 H13        -2.5540   -3.4580    3.0050 hc        1 PS6      0.072700
     45 H13A       -4.3260   -3.6330    2.6500 hc        1 PS6      0.072700
     46 H14        -1.9920   -4.9980    1.1210 hc        1 PS6      0.059700
     47 H14A       -3.7340   -5.1080    0.6550 hc        1 PS6      0.059700
     48 H15        -4.2740   -6.1050    2.9060 hc        1 PS6      0.038200
     49 H15A       -2.5380   -5.9740    3.3850 hc        1 PS6      0.038200
     50 HA          1.6540   -1.0150   -3.8140 hx        1 PS6      0.084700
     51 HB          3.0170   -1.2500   -1.7400 h1        1 PS6      0.058700
     52 HBA         3.2160    0.5770   -1.6320 h1        1 PS6      0.058700
     53 H16        -3.6260   -7.5910    0.9770 hc        1 PS6      0.042700
     54 H16A       -1.8920   -7.4630    1.4640 hc        1 PS6      0.042700
     55 H17        -2.9170   -9.5670    2.3270 hc        1 PS6      0.030367
     56 H17A       -2.4410   -8.4840    3.6990 hc        1 PS6      0.030367
     57 H17B       -4.1790   -8.6140    3.2120 hc        1 PS6      0.030367
     58 H6         -6.6760    1.2360    0.5930 hc        1 PS6      0.075200
     59 H6A        -7.0840    0.8990    2.3280 hc        1 PS6      0.075200
     60 H7         -6.7900    3.6950    1.0090 hc        1 PS6      0.057700
     61 H7A        -7.0670    3.4150    2.7710 hc        1 PS6      0.057700
     62 H8         -9.2030    2.1840    2.2380 hc        1 PS6      0.039200
     63 H8A        -8.9180    2.4460    0.4740 hc        1 PS6      0.039200
     64 H9         -9.2260    4.6780    2.6020 hc        1 PS6      0.042200
     65 H9A        -8.9490    4.9370    0.8370 hc        1 PS6      0.042200
     66 H10       -11.0800    3.6970    0.3200 hc        1 PS6      0.038700
     67 H10A      -11.3570    3.4360    2.0850 hc        1 PS6      0.038700
     68 H18       -11.3830    5.9280    2.4490 hc        1 PS6      0.040200
     69 H18A      -11.1090    6.1890    0.6840 hc        1 PS6      0.040200
     70 H19       -13.5140    4.6850    1.9330 hc        1 PS6      0.039200
     71 H19A      -13.2390    4.9490    0.1690 hc        1 PS6      0.039200
     72 H20       -13.5420    7.1780    2.3010 hc        1 PS6      0.039700
     73 H20A      -13.2690    7.4400    0.5360 hc        1 PS6      0.039700
     74 H21       -15.3990    6.1990    0.0210 hc        1 PS6      0.039200
     75 H21A      -15.6720    5.9350    1.7860 hc        1 PS6      0.039200
     76 H22       -15.4290    8.6900    0.3900 hc        1 PS6      0.039200
     77 H22A      -15.7010    8.4270    2.1540 hc        1 PS6      0.039200
     78 H23       -17.5590    7.4490   -0.1250 hc        1 PS6      0.039200
     79 H23A      -17.8310    7.1850    1.6400 hc        1 PS6      0.039200
     80 H24       -17.5870    9.9390    0.2430 hc        1 PS6      0.038200
     81 H24A      -17.8590    9.6750    2.0080 hc        1 PS6      0.038200
     82 H25       -20.0050   10.1480    0.8250 hc        1 PS6      0.031367
     83 H25A      -20.0090    8.4660    1.4980 hc        1 PS6      0.031367
     84 H25B      -19.7360    8.7310   -0.2710 hc        1 PS6      0.031367
     85 HNA         2.6780    1.6180   -4.3760 hn        1 PS6      0.453800
     86 H26         1.4500    1.6250   -3.1860 hn        1 PS6      0.453800
     87 HN          1.1930    0.9610   -4.7240 hn        1 PS6      0.453800
@<TRIPOS>BOND
     1    1    3 1   
     2    1    6 1   
     3    2    3 1   
     4    2   20 1   
     5    3    4 1   
     6    3    5 1   
     7    6    7 1   
     8    6   39 1   
     9    6   40 1   
    10    7    8 1   
    11    7   11 1   
    12    7   41 1   
    13    8   10 1   
    14    9   10 2   
    15   10   15 1   
    16   11   14 1   
    17   11   42 1   
    18   11   43 1   
    19   12   13 2   
    20   12   14 1   
    21   12   26 1   
    22   15   16 1   
    23   15   44 1   
    24   15   45 1   
    25   16   17 1   
    26   16   46 1   
    27   16   47 1   
    28   17   24 1   
    29   17   48 1   
    30   17   49 1   
    31   18   19 1   
    32   18   85 1   
    33   18   86 1   
    34   18   87 1   
    35   19   20 1   
    36   19   21 1   
    37   19   50 1   
    38   20   51 1   
    39   20   52 1   
    40   21   22 1   
    41   21   23 1   
    42   24   25 1   
    43   24   53 1   
    44   24   54 1   
    45   25   55 1   
    46   25   56 1   
    47   25   57 1   
    48   26   27 1   
    49   26   58 1   
    50   26   59 1   
    51   27   28 1   
    52   27   60 1   
    53   27   61 1   
    54   28   29 1   
    55   28   62 1   
    56   28   63 1   
    57   29   30 1   
    58   29   64 1   
    59   29   65 1   
    60   30   31 1   
    61   30   66 1   
    62   30   67 1   
    63   31   32 1   
    64   31   68 1   
    65   31   69 1   
    66   32   33 1   
    67   32   70 1   
    68   32   71 1   
    69   33   34 1   
    70   33   72 1   
    71   33   73 1   
    72   34   35 1   
    73   34   74 1   
    74   34   75 1   
    75   35   36 1   
    76   35   76 1   
    77   35   77 1   
    78   36   37 1   
    79   36   78 1   
    80   36   79 1   
    81   37   38 1   
    82   37   80 1   
    83   37   81 1   
    84   38   82 1   
    85   38   83 1   
    86   38   84 1   
@<TRIPOS>SUBSTRUCTURE
     1 PS6         1 TEMP              0 ****  ****    0 ROOT
