@<TRIPOS>MOLECULE
PS7
   88    88     1     0     0
SMALL
bcc


@<TRIPOS>ATOM
      1 CAA         0.0000    0.0000    0.0000 c3        1 PS7      0.087600
      2 CAB         2.2610    0.0000    1.3050 c3        1 PS7      0.087600
      3 CAC         3.5920   -3.8920  -10.1990 c3        1 PS7      0.060600
      4 CAD         6.1450   -3.8100  -10.7400 c3        1 PS7      0.060600
      5 CAE         1.6060    0.3400   -5.7530 c3        1 PS7      0.064100
      6 CAF         1.3060    0.8140  -13.1000 c3        1 PS7      0.063100
      7 CAG        -3.3870    2.9840   -7.7130 c3        1 PS7      0.067100
      8 CAH        -3.1460    1.0320  -11.8230 c3        1 PS7      0.038900
      9 OAI        -9.2350   -5.6330   -9.2800 o         1 PS7     -0.697500
     10 OAJ        -7.4400   -2.4560  -12.2540 o         1 PS7     -0.700000
     11 OAK        -9.1880   -4.9190  -11.7000 o         1 PS7     -0.697500
     12 OAL       -10.7870   -3.7060  -10.1690 o         1 PS7     -0.697500
     13 OAM        -8.5380   -0.8160  -10.6800 o         1 PS7     -0.700000
     14 CAN         2.1630   -0.0010   -1.1350 c2        1 PS7     -0.249200
     15 CAO         4.5530   -2.2310  -11.7080 c2        1 PS7     -0.166200
     16 CAP         0.0370    1.9090   -4.7340 c2        1 PS7     -0.195200
     17 CAQ         0.9560    0.4490  -10.7120 c2        1 PS7     -0.125200
     18 CAR        -2.9650    0.5920   -7.9530 c2        1 PS7     -0.066200
     19 CAS         1.4090   -0.0010   -2.4400 c3        1 PS7      0.023800
     20 CAT         3.1620   -1.6800  -11.8910 c3        1 PS7      0.002800
     21 CAU        -0.6630    1.9820   -6.0660 c3        1 PS7      0.009800
     22 CAV        -0.4730    0.8810  -10.9140 c3        1 PS7     -0.014200
     23 CAW         1.8700    1.1810   -3.2950 c3        1 PS7      0.038800
     24 CAX         3.1560   -0.1870  -11.5560 c3        1 PS7      0.042800
     25 CAY        -2.1340    1.5980   -5.8900 c3        1 PS7      0.042800
     26 CAZ        -5.2620   -0.7440  -10.8070 c3        1 PS7      0.331400
     27 CBA        -1.4140   -0.1720  -10.3230 c3        1 PS7      0.020600
     28 OBB        -6.1150   -1.7330  -10.2300 os        1 PS7     -0.494200
     29 OBC        -8.1890   -3.3340  -10.0090 os        1 PS7     -0.465800
     30 CBD         1.5070    0.0000    0.0000 c2        1 PS7     -0.256400
     31 CBE         4.7530   -3.2590  -10.9220 c2        1 PS7     -0.158400
     32 CBF         1.1180    1.1800   -4.6010 c2        1 PS7     -0.188400
     33 CBG         1.7650    0.3620  -11.7370 c2        1 PS7     -0.192400
     34 CBH        -2.8340    1.6700   -7.2230 c2        1 PS7     -0.203400
     35 CBI        -3.6660    0.6640   -9.2860 cx        1 PS7     -0.101500
     36 CBJ        -3.9650   -0.6550  -10.0000 cx        1 PS7     -0.036700
     37 CBK        -2.8650    0.2680  -10.5280 cx        1 PS7     -0.169000
     38 PBL        -9.3470   -4.4090  -10.3200 p5        1 PS7      0.793900
     39 PBM        -7.5680   -2.0930  -10.8250 p5        1 PS7      0.910800
     40 HAA        -0.3610   -0.0780    1.0180 hc        1 PS7     -0.012133
     41 HAAA       -0.3610    0.9210   -0.4410 hc        1 PS7     -0.012133
     42 HAAB       -0.3610   -0.8430   -0.5770 hc        1 PS7     -0.012133
     43 HAB         1.8270    0.7350    1.9720 hc        1 PS7     -0.012133
     44 HABA        3.3000    0.2470    1.1220 hc        1 PS7     -0.012133
     45 HABB        2.1970   -0.9820    1.7580 hc        1 PS7     -0.012133
     46 HAC         3.9340   -4.7710   -9.6670 hc        1 PS7      0.005867
     47 HACA        3.1750   -3.1820   -9.4940 hc        1 PS7      0.005867
     48 HACB        2.8320   -4.1770  -10.9170 hc        1 PS7      0.005867
     49 HAD         6.2610   -4.1680   -9.7240 hc        1 PS7      0.005867
     50 HADA        6.3020   -4.6280  -11.4320 hc        1 PS7      0.005867
     51 HADB        6.8700   -3.0280  -10.9330 hc        1 PS7      0.005867
     52 HAE         2.5190   -0.1690   -5.4670 hc        1 PS7      0.001700
     53 HAEA        0.8510   -0.3910   -6.0130 hc        1 PS7      0.001700
     54 HAEB        1.8010    0.9780   -6.6070 hc        1 PS7      0.001700
     55 HAF         2.1470    0.8130  -13.7830 hc        1 PS7      0.005033
     56 HAFA        0.5430    0.1390  -13.4670 hc        1 PS7      0.005033
     57 HAFB        0.9000    1.8160  -13.0300 hc        1 PS7      0.005033
     58 HAG        -3.2080    3.7510   -6.9690 hc        1 PS7      0.000700
     59 HAGA       -2.8970    3.2580   -8.6390 hc        1 PS7      0.000700
     60 HAGB       -4.4520    2.8870   -7.8820 hc        1 PS7      0.000700
     61 HAH        -2.8810    0.4140  -12.6720 hc        1 PS7      0.002700
     62 HAHA       -4.1990    1.2830  -11.8730 hc        1 PS7      0.002700
     63 HAHB       -2.5570    1.9410  -11.8410 hc        1 PS7      0.002700
     64 HAN         3.2460   -0.0010   -1.1350 ha        1 PS7      0.090000
     65 HAO         5.3880   -1.7760  -12.2270 ha        1 PS7      0.095000
     66 HAP        -0.3140    2.5120   -3.9050 ha        1 PS7      0.098000
     67 HAQ         1.2880    0.1230   -9.7330 ha        1 PS7      0.101000
     68 HAR        -2.5680   -0.3520   -7.6010 ha        1 PS7      0.103000
     69 HAS         0.3480    0.0880   -2.2440 hc        1 PS7      0.018200
     70 HASA        1.6030   -0.9270   -2.9680 hc        1 PS7      0.018200
     71 HAT         2.8510   -1.8210  -12.9190 hc        1 PS7      0.031700
     72 HATA        2.4780   -2.2010  -11.2320 hc        1 PS7      0.031700
     73 HAU        -0.5970    2.9910   -6.4540 hc        1 PS7      0.017200
     74 HAUA       -0.1920    1.2970   -6.7600 hc        1 PS7      0.017200
     75 HAV        -0.6370    1.8300  -10.4190 hc        1 PS7      0.028200
     76 HAVA       -0.6720    0.9880  -11.9740 hc        1 PS7      0.028200
     77 HAW         2.9320    1.0920   -3.4910 hc        1 PS7      0.003200
     78 HAWA        1.6760    2.1060   -2.7670 hc        1 PS7      0.003200
     79 HAX         3.8390    0.3340  -12.2150 hc        1 PS7      0.007700
     80 HAXA        3.4690   -0.0470  -10.5280 hc        1 PS7      0.007700
     81 HAY        -2.2000    0.5890   -5.5020 hc        1 PS7      0.012200
     82 HAYA       -2.6060    2.2840   -5.1970 hc        1 PS7      0.012200
     83 HAZ        -5.0320   -1.0170  -11.8300 h1        1 PS7     -0.023800
     84 HAZA       -5.7620    0.2170  -10.7940 h1        1 PS7     -0.023800
     85 HBA        -1.2510   -1.1210  -10.8180 hc        1 PS7      0.016700
     86 HBAA       -1.2160   -0.2790   -9.2630 hc        1 PS7      0.016700
     87 HBI        -4.4000    1.4440   -9.4500 hc        1 PS7      0.075700
     88 HBJ        -3.6070   -1.5400   -9.4870 hc        1 PS7      0.054700
@<TRIPOS>BOND
     1    1   30 1   
     2    1   40 1   
     3    1   41 1   
     4    1   42 1   
     5    2   30 1   
     6    2   43 1   
     7    2   44 1   
     8    2   45 1   
     9    3   31 1   
    10    3   46 1   
    11    3   47 1   
    12    3   48 1   
    13    4   31 1   
    14    4   49 1   
    15    4   50 1   
    16    4   51 1   
    17    5   32 1   
    18    5   52 1   
    19    5   53 1   
    20    5   54 1   
    21    6   33 1   
    22    6   55 1   
    23    6   56 1   
    24    6   57 1   
    25    7   34 1   
    26    7   58 1   
    27    7   59 1   
    28    7   60 1   
    29    8   37 1   
    30    8   61 1   
    31    8   62 1   
    32    8   63 1   
    33    9   38 1   
    34   10   39 1   
    35   11   38 1   
    36   12   38 1   
    37   13   39 1   
    38   14   19 1   
    39   14   30 2   
    40   14   64 1   
    41   15   20 1   
    42   15   31 2   
    43   15   65 1   
    44   16   21 1   
    45   16   32 2   
    46   16   66 1   
    47   17   22 1   
    48   17   33 2   
    49   17   67 1   
    50   18   34 2   
    51   18   35 1   
    52   18   68 1   
    53   19   23 1   
    54   19   69 1   
    55   19   70 1   
    56   20   24 1   
    57   20   71 1   
    58   20   72 1   
    59   21   25 1   
    60   21   73 1   
    61   21   74 1   
    62   22   27 1   
    63   22   75 1   
    64   22   76 1   
    65   23   32 1   
    66   23   77 1   
    67   23   78 1   
    68   24   33 1   
    69   24   79 1   
    70   24   80 1   
    71   25   34 1   
    72   25   81 1   
    73   25   82 1   
    74   26   28 1   
    75   26   36 1   
    76   26   83 1   
    77   26   84 1   
    78   27   37 1   
    79   27   85 1   
    80   27   86 1   
    81   28   39 1   
    82   29   38 1   
    83   29   39 1   
    84   35   36 1   
    85   35   37 1   
    86   35   87 1   
    87   36   37 1   
    88   36   88 1   
@<TRIPOS>SUBSTRUCTURE
     1 PS7         1 TEMP              0 ****  ****    0 ROOT
