@<TRIPOS>MOLECULE
PS8
   56    56     1     0     0
SMALL
bcc


@<TRIPOS>ATOM
      1 CAA        -0.6990   -0.4450   -1.1920 c3        1 PS8     -0.179000
      2 CAB         4.3460    0.4030   -0.8830 c3        1 PS8     -0.177000
      3 CAC         3.1700   -0.7260    1.7140 c1        1 PS8     -0.004000
      4 OAD         1.0240    1.8500   -4.7780 o         1 PS8     -0.914000
      5 OAE        -0.1390    2.1590   -2.7510 o         1 PS8     -0.914000
      6 CAH         5.8590    6.7550   -3.5520 c2        1 PS8      0.004000
      7 CAI         5.1170    6.3530   -2.4710 c2        1 PS8     -0.150000
      8 CAJ         4.4440    4.1710   -3.4560 ca        1 PS8     -0.160000
      9 CAK         2.9560    5.2590   -1.9150 ca        1 PS8     -0.160000
     10 CAL         6.3530    7.9600   -0.9200 c1        1 PS8     -0.197000
     11 CAM         9.0310    8.6530   -6.4680 c1        1 PS8     -0.209000
     12 CAN         8.9020   10.5310   -0.9960 c2        1 PS8     -0.224000
     13 CAO         7.8290    8.4430   -3.9070 cv        1 PS8     -0.004000
     14 CAP         8.9170   10.0070   -2.2310 c2        1 PS8     -0.052000
     15 NAQ         6.7330    7.8120   -3.3970 na        1 PS8     -0.179000
     16 NAR         1.0990   -0.7030    0.5340 n2        1 PS8     -0.012000
     17 NAS         8.5870    9.4180   -7.4120 n3        1 PS8     -0.201000
     18 NAT         1.7960    0.5800   -2.8100 nh        1 PS8     -0.803000
     19 CAU         0.6850   -0.3530   -0.6880 c2        1 PS8     -0.047000
     20 CAV         2.9370    0.0620   -0.6430 c2        1 PS8     -0.085000
     21 CAW         3.5160    3.1460   -3.6030 ca        1 PS8      0.048000
     22 CAX         2.0320    4.2210   -2.0810 ca        1 PS8      0.048000
     23 CAY         5.2500    6.9890   -1.1090 c3        1 PS8     -0.097000
     24 CBA         6.9860    8.3150   -2.0400 cv        1 PS8     -0.150000
     25 CBB         1.8390    0.1580   -1.4920 c2        1 PS8     -0.035000
     26 CBC         2.2530    3.1510   -2.9690 ca        1 PS8     -0.798000
     27 NBD         8.0910    8.9740   -2.6600 na        1 PS8     -0.098000
     28 NBE         2.4560   -0.4760    0.6190 na        1 PS8     -0.088000
     29 C11         4.1640    5.2630   -2.6190 ca        1 PS8      0.065000
     30 SBF         1.0970    1.9410   -3.3730 s6        1 PS8      2.842000
     31 HAA1       -0.7100   -1.0480   -2.1350 hc        1 PS8      0.113667
     32 HAA2       -1.0810    0.5850   -1.4210 hc        1 PS8      0.113667
     33 HAA3       -1.3820   -0.9260   -0.4490 hc        1 PS8      0.113667
     34 HAB1        4.5000    0.6580   -1.9620 hc        1 PS8      0.103667
     35 HAB2        5.0210   -0.4520   -0.6200 hc        1 PS8      0.103667
     36 HAB3        4.6440    1.2880   -0.2640 hc        1 PS8      0.103667
     37 HAC1        4.2540   -0.4860    1.5910 ha        1 PS8      0.032000
     38 HAC2        6.6560   -1.6500    0.6000 ha        1 PS8      0.001250
     39 HAC3        6.2070   -1.5360    1.0940 ha        1 PS8      0.001250
     40 HAH         5.7730    6.3020   -4.5550 h4        1 PS8      0.143000
     41 HAY         4.2900    7.5260   -0.8640 hc        1 PS8      0.116000
     42 HAJ         5.4100    4.1230   -3.9830 ha        1 PS8      0.161500
     43 HAK         2.7290    6.0870   -1.2220 ha        1 PS8      0.161500
     44 HAL         5.3830    6.1710   -0.3470 hc        1 PS8      0.116000
     45 HAM1        8.3270    8.5350   -4.9440 h5        1 PS8      0.322000
     46 HAM2        6.2910   10.7000   -5.7650 ha        1 PS8      0.001250
     47 HAO1        6.5700   10.2510   -5.3410 ha        1 PS8      0.001250
     48 HAO2        9.9210    8.0300   -6.6760 ha        1 PS8      0.087000
     49 HAS         8.9760    9.5030   -8.3300 hn        1 PS8      0.208500
     50 HAN1        9.6200   10.3500   -3.0140 h4        1 PS8      0.135000
     51 HAN2        7.7830    9.9890   -7.2450 hn        1 PS8      0.208500
     52 HAP1        9.6010   11.3290   -0.7220 ha        1 PS8      0.142000
     53 HAP2        8.2100   10.1940   -0.2090 ha        1 PS8      0.142000
     54 HAT         2.2980   -0.0200   -3.4300 hn        1 PS8      0.256000
     55 CL1         4.0050    1.8400   -4.5890 cl        1 PS8      0.019000
     56 CL2         0.6380    4.3430   -1.1210 cl        1 PS8      0.019000
@<TRIPOS>BOND
     1    1   19 1   
     2    1   31 1   
     3    1   32 1   
     4    1   33 1   
     5    2   20 1   
     6    2   34 1   
     7    2   35 1   
     8    2   36 1   
     9    3   28 1   
    10    3   37 1   
    11    4   30 1   
    12    5   30 1   
    13    6    7 1   
    14    6   15 1   
    15    6   40 1   
    16    7   23 1   
    17    7   29 1   
    18    8   21 1   
    19    8   29 1   
    20    8   42 1   
    21    9   22 1   
    22    9   29 1   
    23    9   43 1   
    24   10   23 1   
    25   10   24 1   
    26   11   17 1   
    27   11   48 1   
    28   12   14 1   
    29   12   52 1   
    30   12   53 1   
    31   13   15 1   
    32   13   27 1   
    33   13   45 1   
    34   14   27 1   
    35   14   50 1   
    36   15   24 1   
    37   16   19 1   
    38   16   28 1   
    39   17   49 1   
    40   17   51 1   
    41   18   25 1   
    42   18   30 1   
    43   18   54 1   
    44   19   25 1   
    45   20   25 1   
    46   20   28 1   
    47   21   26 1   
    48   21   55 1   
    49   22   26 1   
    50   22   56 1   
    51   23   41 1   
    52   23   44 1   
    53   24   27 1   
    54   26   30 1   
    55   38   39 1   
    56   46   47 1   
@<TRIPOS>SUBSTRUCTURE
     1 PS8         1 TEMP              0 ****  ****    0 ROOT
