@<TRIPOS>MOLECULE
PS8
   56    58     1     0     0
SMALL
bcc


@<TRIPOS>ATOM
      1 CAA        -0.4180   -0.8920   -0.7460 c3        1 PS8     -0.130400
      2 CAB         2.7210    0.9760   -0.0890 cx        1 PS8     -0.124400
      3 CAC         3.7430   -1.6750    1.5760 c3        1 PS8      0.180100
      4 OAD         0.6670    1.5490   -4.3480 o         1 PS8     -0.633800
      5 OAE        -0.1140    2.0270   -2.1680 o         1 PS8     -0.633800
      6 CAH         5.7910    6.4440   -4.3420 ca        1 PS8      0.436200
      7 CAI         5.1390    6.1480   -3.1240 cp        1 PS8     -0.200300
      8 CAJ         4.3140    3.8990   -3.7740 ca        1 PS8     -0.154000
      9 CAK         3.0170    5.2170   -2.2390 ca        1 PS8     -0.154000
     10 CAL         6.4300    7.9310   -2.1280 ca        1 PS8     -0.220300
     11 CAM         8.8530    9.1230   -5.8630 c2        1 PS8      0.092000
     12 CAN         9.5590   10.7460   -2.3920 c3        1 PS8     -0.159000
     13 CAO         8.2260    9.7520   -4.8360 c2        1 PS8     -0.176000
     14 CAP         8.5600    9.6640   -2.4190 c1        1 PS8     -0.094100
     15 NAQ         6.7050    7.4100   -4.4980 nb        1 PS8     -0.705000
     16 NAR         1.6570   -1.7410    0.3570 n2        1 PS8     -0.424400
     17 NAS         9.4880    7.9000   -5.8410 nh        1 PS8     -0.818600
     18 NAT         1.7960    0.4590   -2.4440 n3        1 PS8     -0.860100
     19 CAU         1.0250   -0.8950   -0.4360 c2        1 PS8      0.350300
     20 CAV         3.3370   -0.3540   -0.4560 cx        1 PS8      0.081500
     21 CAW         3.3520    2.8930   -3.6960 ca        1 PS8      0.121900
     22 CAX         2.0610    4.1960   -2.1730 ca        1 PS8      0.121900
     23 CAY         5.4860    6.9200   -2.0040 ca        1 PS8     -0.067000
     24 CBA         7.0270    8.1640   -3.4010 ca        1 PS8      0.650200
     25 CBB         1.9850    0.1060   -1.0990 cx        1 PS8      0.088900
     26 CBC         2.1810    3.0060   -2.9150 ca        1 PS8     -0.329500
     27 NBD         7.9920    9.2230   -3.5350 nh        1 PS8     -0.340900
     28 NBE         3.0180   -1.5650    0.3190 nh        1 PS8     -0.402700
     29 C11         4.1500    5.0840   -3.0450 cp        1 PS8      0.055000
     30 SBF         0.9850    1.7510   -2.9910 sy        1 PS8      1.502200
     31 HAA1       -0.5920   -1.4120   -1.7230 hc        1 PS8      0.067033
     32 HAA2       -0.7810    0.1650   -0.8330 hc        1 PS8      0.067033
     33 HAA3       -1.0130   -1.4170    0.0420 hc        1 PS8      0.067033
     34 HAB1        4.3040   -0.4120   -0.9780 h1        1 PS8      0.120700
     35 HAB2        2.2550    1.1280    0.9020 hc        1 PS8      0.089200
     36 HAB3        3.2360    1.8850   -0.4510 hc        1 PS8      0.089200
     37 HAC1        4.8350   -1.6880    1.3220 h1        1 PS8      0.046700
     38 HAC2        3.5410   -0.8230    2.2800 h1        1 PS8      0.046700
     39 HAC3        3.4680   -2.6380    2.0800 h1        1 PS8      0.046700
     40 HAH         5.5540    5.8730   -5.2600 h4        1 PS8      0.028100
     41 HAY         5.0180    6.7220   -1.0270 ha        1 PS8      0.147000
     42 HAJ         5.2090    3.7620   -4.4020 ha        1 PS8      0.160000
     43 HAK         2.8700    6.1420   -1.6560 ha        1 PS8      0.160000
     44 HAL         6.7360    8.5400   -1.2610 ha        1 PS8      0.189000
     45 HAM1        7.8500   10.7830   -4.9670 h4        1 PS8      0.152000
     46 HAM2        7.3340   13.0330   -5.2840 ha        1 PS8      0.001000
     47 HAO1        6.7510   12.7720   -5.5080 ha        1 PS8      0.001000
     48 HAO2        8.9450    9.6680   -6.8250 h4        1 PS8      0.142000
     49 HAS         9.4890    7.4150   -6.7110 hn        1 PS8      0.398300
     50 HAN1        9.8080   11.2260   -3.3720 hc        1 PS8      0.058033
     51 HAN2        9.2970    7.3080   -5.0640 hn        1 PS8      0.398300
     52 HAP1        9.1780   11.5340   -1.6920 hc        1 PS8      0.058033
     53 HAP2       10.4980   10.3180   -1.9540 hc        1 PS8      0.058033
     54 HAT         2.1620   -0.2200   -3.0760 hn        1 PS8      0.462800
     55 CL1         3.6810    1.4910   -4.6090 cl        1 PS8     -0.052400
     56 CL2         0.7580    4.5080   -1.1320 cl        1 PS8     -0.052400
@<TRIPOS>BOND
     1    1   19 1   
     2    1   31 1   
     3    1   32 1   
     4    1   33 1   
     5    2   20 1   
     6    2   25 1   
     7    2   35 1   
     8    2   36 1   
     9    3   28 1   
    10    3   37 1   
    11    3   38 1   
    12    3   39 1   
    13    4   30 2   
    14    5   30 2   
    15    6    7 ar  
    16    6   15 ar  
    17    6   40 1   
    18    7   23 ar  
    19    7   29 1   
    20    8   21 ar  
    21    8   29 ar  
    22    8   42 1   
    23    9   22 ar  
    24    9   29 ar  
    25    9   43 1   
    26   10   23 ar  
    27   10   24 ar  
    28   10   44 1   
    29   11   13 2   
    30   11   17 1   
    31   11   48 1   
    32   12   14 1   
    33   12   50 1   
    34   12   52 1   
    35   12   53 1   
    36   13   27 1   
    37   13   45 1   
    38   14   27 3   
    39   15   24 ar  
    40   16   19 2   
    41   16   28 1   
    42   17   49 1   
    43   17   51 1   
    44   18   25 1   
    45   18   30 1   
    46   18   54 1   
    47   19   25 1   
    48   20   25 1   
    49   20   28 1   
    50   20   34 1   
    51   21   26 ar  
    52   21   55 1   
    53   22   26 ar  
    54   22   56 1   
    55   23   41 1   
    56   24   27 1   
    57   26   30 1   
    58   46   47 1   
@<TRIPOS>SUBSTRUCTURE
     1 PS8         1 TEMP              0 ****  ****    0 ROOT
