@<TRIPOS>MOLECULE
PS8
   56    57     1     0     0
SMALL
bcc


@<TRIPOS>ATOM
      1 CAA        -0.5630   -0.6740   -0.5840 c3        1 PS8     -0.140400
      2 CAB         4.4380    0.2290   -1.2920 c3        1 PS8     -0.035800
      3 CAC         3.9000   -0.7830    1.5160 c3        1 PS8      0.040600
      4 OAD         0.4500    1.6340   -4.4860 o         1 PS8     -0.635800
      5 OAE        -0.2900    1.9840   -2.2760 o         1 PS8     -0.635800
      6 CAH         5.6230    6.4270   -4.2480 ca        1 PS8      0.434200
      7 CAI         5.0600    6.0020   -3.0240 cp        1 PS8     -0.197300
      8 CAJ         4.1420    3.8500   -3.8550 ca        1 PS8     -0.154500
      9 CAK         2.9890    5.0060   -2.0910 ca        1 PS8     -0.154500
     10 CAL         6.4650    7.6380   -1.9360 ca        1 PS8     -0.220300
     11 CAM         8.5980    9.2440   -5.6940 c2        1 PS8      0.091000
     12 CAN         9.6450   10.4050   -2.1260 c3        1 PS8     -0.158000
     13 CAO         8.0780    9.7460   -4.5450 c2        1 PS8     -0.175000
     14 CAP         8.6200    9.3480   -2.1980 c1        1 PS8     -0.095100
     15 NAQ         6.5460    7.3910   -4.3640 nb        1 PS8     -0.705000
     16 NAR         1.5690   -0.8630    0.7400 nc        1 PS8     -0.507800
     17 NAS         9.2050    8.0200   -5.8810 nv        1 PS8     -0.818600
     18 NAT         1.5580    0.3500   -2.6960 nu        1 PS8     -0.745500
     19 CAU         0.8940   -0.5460   -0.3980 cd        1 PS8      0.343600
     20 CAV         3.1080   -0.1120   -0.7660 cc        1 PS8     -0.090600
     21 CAW         3.1640    2.8580   -3.8200 ca        1 PS8      0.122400
     22 CAX         2.0130    4.0000   -2.0730 ca        1 PS8      0.122400
     23 CAY         5.5090    6.6330   -1.8550 ca        1 PS8     -0.069000
     24 CBA         6.9680    8.0080   -3.2170 ca        1 PS8      0.648200
     25 CBB         1.8380   -0.0450   -1.3990 cd        1 PS8     -0.073700
     26 CBC         2.0430    2.9120   -2.9640 ca        1 PS8     -0.319500
     27 NBD         7.9450    9.0600   -3.3040 nh        1 PS8     -0.340900
     28 NBE         2.8720   -0.6230    0.5180 na        1 PS8      0.096400
     29 C11         4.0550    4.9500   -2.9910 cp        1 PS8      0.050000
     30 SBF         0.7940    1.7130   -3.1210 sy        1 PS8      1.495200
     31 HAA1       -0.7700   -1.3690   -1.4360 hc        1 PS8      0.064033
     32 HAA2       -0.9980    0.3310   -0.8270 hc        1 PS8      0.064033
     33 HAA3       -1.0670   -1.0720    0.3300 hc        1 PS8      0.064033
     34 HAB1        4.9690    0.9380   -0.6080 hc        1 PS8      0.055033
     35 HAB2        4.3370    0.7110   -2.2970 hc        1 PS8      0.055033
     36 HAB3        5.0660   -0.6920   -1.4000 hc        1 PS8      0.055033
     37 HAC1        4.8080   -1.2250    1.0280 h1        1 PS8      0.059033
     38 HAC2        4.1630    0.2190    1.9500 h1        1 PS8      0.059033
     39 HAC3        3.5470   -1.4600    2.3390 h1        1 PS8      0.059033
     40 HAH         5.3040    5.9680   -5.2030 h4        1 PS8      0.029100
     41 HAY         5.1110    6.3320   -0.8730 ha        1 PS8      0.147000
     42 HAJ         4.9900    3.7690   -4.5530 ha        1 PS8      0.158000
     43 HAK         2.9090    5.8560   -1.3930 ha        1 PS8      0.158000
     44 HAL         6.8500    8.1390   -1.0320 ha        1 PS8      0.188000
     45 HAM1        7.7160   10.7890   -4.5140 h4        1 PS8      0.152000
     46 HAM2        6.6060   12.8440   -4.6210 ha        1 PS8      0.001000
     47 HAO1        8.6180    9.9030   -6.5860 h4        1 PS8      0.142000
     48 HAO2        7.2450   13.0690   -4.6060 ha        1 PS8      0.001000
     49 HAS         9.1140    7.6470   -6.8000 hn        1 PS8      0.397800
     50 HAN1        9.8210   10.9990   -3.0580 hc        1 PS8      0.057033
     51 HAN2        9.0700    7.3390   -5.1680 hn        1 PS8      0.397800
     52 HAP1        9.3460   11.1040   -1.3030 hc        1 PS8      0.057033
     53 HAP2       10.6070    9.9120   -1.8300 hc        1 PS8      0.057033
     54 HAT         1.8910   -0.2870   -3.3870 hn        1 PS8      0.458800
     55 Cl1         3.4130    1.5420   -4.8760 cl        1 PS8     -0.053900
     56 Cl2         0.8130    4.1920   -0.8900 cl        1 PS8     -0.053900
@<TRIPOS>BOND
     1    1   19 1   
     2    1   31 1   
     3    1   32 1   
     4    1   33 1   
     5    2   20 1   
     6    2   34 1   
     7    2   35 1   
     8    2   36 1   
     9    3   28 1   
    10    3   37 1   
    11    3   38 1   
    12    3   39 1   
    13    4   30 2   
    14    5   30 2   
    15    6    7 ar  
    16    6   15 ar  
    17    6   40 1   
    18    7   23 ar  
    19    7   29 1   
    20    8   21 ar  
    21    8   29 ar  
    22    8   42 1   
    23    9   22 ar  
    24    9   29 ar  
    25    9   43 1   
    26   10   23 ar  
    27   10   24 ar  
    28   10   44 1   
    29   11   13 2   
    30   11   17 1   
    31   11   47 1   
    32   12   14 1   
    33   12   50 1   
    34   12   52 1   
    35   12   53 1   
    36   13   27 1   
    37   13   45 1   
    38   14   27 3   
    39   15   24 ar  
    40   16   19 2   
    41   16   28 1   
    42   17   49 1   
    43   17   51 1   
    44   18   25 1   
    45   18   30 1   
    46   18   54 1   
    47   19   25 1   
    48   20   25 2   
    49   20   28 1   
    50   21   26 ar  
    51   21   55 1   
    52   22   26 ar  
    53   22   56 1   
    54   23   41 1   
    55   24   27 1   
    56   26   30 1   
    57   46   48 1   
@<TRIPOS>SUBSTRUCTURE
     1 PS8         1 TEMP              0 ****  ****    0 ROOT
