@<TRIPOS>MOLECULE
PS8
   56    59     1     0     0
SMALL
bcc


@<TRIPOS>ATOM
      1 CAA        -6.5680    0.7240   -0.8780 c3        1 PS8     -0.141400
      2 CAB        -2.6790    1.7660    2.3020 c3        1 PS8     -0.035800
      3 CAC        -4.2100    4.2860    1.5890 c3        1 PS8      0.040600
      4 OAD        -3.5870   -2.7830   -0.2620 o         1 PS8     -0.636300
      5 OAE        -4.1030   -1.0410   -1.7630 o         1 PS8     -0.636300
      6 CAH         3.2780   -1.2150    0.2920 ca        1 PS8      0.454200
      7 CAI         2.4200   -0.2540   -0.2890 cp        1 PS8     -0.220300
      8 CAJ         0.3140   -1.1100    0.7080 ca        1 PS8     -0.157500
      9 CAK         0.2320   -0.0320   -1.4380 ca        1 PS8     -0.157500
     10 CAL         4.3950    1.0640   -0.7360 ca        1 PS8     -0.275300
     11 CAM         8.8980   -0.7810    0.0460 c3        1 PS8      0.147300
     12 CAN         8.6340    1.5950    0.1630 c3        1 PS8      0.147300
     13 CAO         7.3830   -0.9860    0.2700 c3        1 PS8      0.151300
     14 CAP         7.1110    1.4380    0.3840 c3        1 PS8      0.151300
     15 NAQ         4.6060   -1.0890    0.3850 nb        1 PS8     -0.717000
     16 NAR        -5.5950    2.7380    0.2750 nc        1 PS8     -0.507800
     17 NAS         9.4320    0.4590    0.5700 n3        1 PS8     -0.796200
     18 NAT        -4.1550   -0.5830    0.6950 nh        1 PS8     -0.745500
     19 CAU        -5.5980    1.4060   -0.0020 cd        1 PS8      0.342600
     20 CAV        -3.8420    1.8130    1.4030 cc        1 PS8     -0.091600
     21 CAW        -1.0610   -1.3220    0.6340 ca        1 PS8      0.123900
     22 CAX        -1.1490   -0.2540   -1.4940 ca        1 PS8      0.123900
     23 CAY         3.0190    0.9020   -0.8110 ca        1 PS8     -0.050000
     24 CBA         5.1910    0.0440   -0.1280 ca        1 PS8      0.643200
     25 CBB        -4.4800    0.7630    0.6910 cd        1 PS8     -0.071700
     26 CBC        -1.8400   -0.9420   -0.4800 ca        1 PS8     -0.323500
     27 NBD         6.6050    0.1760   -0.1390 nh        1 PS8     -0.733300
     28 NBE        -4.5730    2.9740    1.1140 na        1 PS8      0.095400
     29 C11         0.9830   -0.4680   -0.3440 cp        1 PS8      0.058000
     30 SBF        -3.5130   -1.4030   -0.5450 sy        1 PS8      1.495200
     31 HAA1       -6.0250    0.2330   -1.7270 hc        1 PS8      0.063700
     32 HAA2       -7.1060   -0.0650   -0.2940 hc        1 PS8      0.063700
     33 HAA3       -7.3240    1.4330   -1.2970 hc        1 PS8      0.063700
     34 HAB1       -1.9060    2.5150    1.9950 hc        1 PS8      0.055033
     35 HAB2       -2.9870    1.9910    3.3550 hc        1 PS8      0.055033
     36 HAB3       -2.2200    0.7470    2.2750 hc        1 PS8      0.055033
     37 HAC1       -3.9180    4.2080    2.6700 h1        1 PS8      0.058700
     38 HAC2       -3.3390    4.6750    0.9970 h1        1 PS8      0.058700
     39 HAC3       -5.0740    4.9950    1.4840 h1        1 PS8      0.058700
     40 HAH         2.8680   -2.1550    0.7100 h4        1 PS8      0.028100
     41 HAY         2.4000    1.6840   -1.2780 ha        1 PS8      0.143000
     42 HAJ         0.8790   -1.4380    1.5950 ha        1 PS8      0.158000
     43 HAK         0.7360    0.4840   -2.2720 ha        1 PS8      0.158000
     44 HAL         4.8610    1.9620   -1.1640 ha        1 PS8      0.151000
     45 HAM1        9.4360   -1.6450    0.5240 h1        1 PS8      0.063450
     46 HAM2        9.1110   -0.8020   -1.0600 h1        1 PS8      0.063450
     47 HAO1        7.0540   -1.8660   -0.3500 h1        1 PS8      0.049200
     48 HAO2        7.2050   -1.2370    1.3550 h1        1 PS8      0.049200
     49 HAS         9.4840    0.4150    1.5720 hn        1 PS8      0.351800
     50 HAN1        8.8260    1.7700   -0.9320 h1        1 PS8      0.063450
     51 HAN2        8.9700    2.5060    0.7310 h1        1 PS8      0.063450
     52 HAP1        6.8910    1.5310    1.4870 h1        1 PS8      0.049200
     53 HAP2        6.5970    2.2870   -0.1430 h1        1 PS8      0.049200
     54 HAT        -4.3370   -1.0330    1.5660 hn        1 PS8      0.457800
     55 CL1        -1.7660   -2.0620    2.0010 cl        1 PS8     -0.055400
     56 CL2        -1.9180    0.3800   -2.8680 cl        1 PS8     -0.055400
@<TRIPOS>BOND
     1    1   19 1   
     2    1   31 1   
     3    1   32 1   
     4    1   33 1   
     5    2   20 1   
     6    2   34 1   
     7    2   35 1   
     8    2   36 1   
     9    3   28 1   
    10    3   37 1   
    11    3   38 1   
    12    3   39 1   
    13    4   30 2   
    14    5   30 2   
    15    6    7 ar  
    16    6   15 ar  
    17    6   40 1   
    18    7   23 ar  
    19    7   29 1   
    20    8   21 ar  
    21    8   29 ar  
    22    8   42 1   
    23    9   22 ar  
    24    9   29 ar  
    25    9   43 1   
    26   10   23 ar  
    27   10   24 ar  
    28   10   44 1   
    29   11   13 1   
    30   11   17 1   
    31   11   45 1   
    32   11   46 1   
    33   12   14 1   
    34   12   17 1   
    35   12   50 1   
    36   12   51 1   
    37   13   27 1   
    38   13   47 1   
    39   13   48 1   
    40   14   27 1   
    41   14   52 1   
    42   14   53 1   
    43   15   24 ar  
    44   16   19 2   
    45   16   28 1   
    46   17   49 1   
    47   18   25 1   
    48   18   30 1   
    49   18   54 1   
    50   19   25 1   
    51   20   25 2   
    52   20   28 1   
    53   21   26 ar  
    54   21   55 1   
    55   22   26 ar  
    56   22   56 1   
    57   23   41 1   
    58   24   27 1   
    59   26   30 1   
@<TRIPOS>SUBSTRUCTURE
     1 PS8         1 TEMP              0 ****  ****    0 ROOT
