@<TRIPOS>MOLECULE
PSA
   29    29     1     0     0
SMALL
bcc


@<TRIPOS>ATOM
      1 N           0.1110    1.3070   -1.1430 n3        1 PSA     -0.894800
      2 CA         -0.1200    0.1440   -0.3010 c3        1 PSA      0.159500
      3 CB          0.8830    0.0600    0.8620 c3        1 PSA     -0.037100
      4 CG          2.2900   -0.0980    0.4070 ca        1 PSA     -0.046300
      5 CD1         3.0570    1.0220    0.0610 ca        1 PSA     -0.121500
      6 CD2         2.8720   -1.3700    0.3320 ca        1 PSA     -0.121500
      7 CE1         4.3810    0.8710   -0.3480 ca        1 PSA     -0.138000
      8 CE2         4.1960   -1.5190   -0.0760 ca        1 PSA     -0.138000
      9 CZ          4.9540   -0.3990   -0.4160 ca        1 PSA     -0.149000
     10 CH         -1.5530    0.0610    0.2970 c3        1 PSA      0.136100
     11 OH         -1.7600    1.2560    1.0360 oh        1 PSA     -0.662800
     12 CM         -2.6010   -0.1250   -0.7870 c3        1 PSA     -0.240400
     13 C          -3.9800   -0.4420   -0.1820 c         1 PSA      0.910600
     14 O          -4.3400    0.2110    0.8460 o         1 PSA     -0.844800
     15 OXT        -4.6890   -1.3200   -0.7430 o         1 PSA     -0.844800
     16 H          -0.5780    1.3130   -1.8730 hn        1 PSA      0.343300
     17 H2         -0.0220    2.1370   -0.5930 hn        1 PSA      0.343300
     18 HA          0.0190   -0.7690   -0.9530 h1        1 PSA      0.052700
     19 HB2         0.7810    0.9810    1.4970 hc        1 PSA      0.056200
     20 HB3         0.5930   -0.8180    1.4990 hc        1 PSA      0.056200
     21 HD1         2.6000    2.0220    0.0980 ha        1 PSA      0.133500
     22 HD2         2.2750   -2.2560    0.5940 ha        1 PSA      0.133500
     23 HE1         4.9730    1.7550   -0.6230 ha        1 PSA      0.117500
     24 HE2         4.6410   -2.5220   -0.1330 ha        1 PSA      0.117500
     25 HZ          5.9980   -0.5170   -0.7380 ha        1 PSA      0.115000
     26 HC         -1.5990   -0.8140    1.0060 h1        1 PSA      0.033700
     27 HH         -2.7080    1.2730    1.2660 ho        1 PSA      0.460000
     28 HM1        -2.7070    0.8130   -1.3870 hc        1 PSA      0.035200
     29 HM2        -2.2980   -0.9540   -1.4720 hc        1 PSA      0.035200
@<TRIPOS>BOND
     1    1    2 1   
     2    1   16 1   
     3    1   17 1   
     4    2    3 1   
     5    2   10 1   
     6    2   18 1   
     7    3    4 1   
     8    3   19 1   
     9    3   20 1   
    10    4    5 ar  
    11    4    6 ar  
    12    5    7 ar  
    13    5   21 1   
    14    6    8 ar  
    15    6   22 1   
    16    7    9 ar  
    17    7   23 1   
    18    8    9 ar  
    19    8   24 1   
    20    9   25 1   
    21   10   11 1   
    22   10   12 1   
    23   10   26 1   
    24   11   27 1   
    25   12   13 1   
    26   12   28 1   
    27   12   29 1   
    28   13   14 1   
    29   13   15 1   
@<TRIPOS>SUBSTRUCTURE
     1 PSA         1 TEMP              0 ****  ****    0 ROOT
