@<TRIPOS>MOLECULE
PSA
   29    27     1     0     0
SMALL
bcc


@<TRIPOS>ATOM
      1 N          -2.2060   -0.4210   -0.3050 n3        1 PSA     -0.327000
      2 CA         -0.7830   -0.4260   -0.3390 c3        1 PSA     -0.038000
      3 CB         -0.2450   -0.4140    1.0730 c3        1 PSA     -0.123000
      4 CG          0.4250    0.9140    1.3470 c2        1 PSA     -0.039000
      5 CD1        -0.3310    1.9970    1.7690 c2        1 PSA     -0.108000
      6 CD2         1.8000    1.0350    1.2250 c1        1 PSA     -0.135000
      7 CE1         0.2890    3.1990    2.0690 c1        1 PSA     -0.138000
      8 CE2         2.4200    2.2370    1.5250 c1        1 PSA     -0.143500
      9 CZ          1.6640    3.3190    1.9480 c1        1 PSA     -0.143500
     10 CH         -0.3000   -1.6670   -1.0510 c3        1 PSA      0.025000
     11 OH         -0.7160   -2.8090   -0.3380 oh        1 PSA     -0.390000
     12 CM         -0.8810   -1.7060   -2.4460 c3        1 PSA     -0.269000
     13 C          -0.0160   -2.5770   -3.3280 c2        1 PSA      0.330000
     14 O           0.2150   -3.7700   -3.0020 o         1 PSA     -0.579500
     15 OXT         0.4850   -2.1050   -4.3820 o         1 PSA     -0.579500
     16 H          -2.4920   -0.6180    0.5420 hn        1 PSA      0.138500
     17 H2         -2.5140    0.4070   -0.5460 hn        1 PSA      0.138500
     18 HA         -0.4650    0.3670   -0.8150 h1        1 PSA      0.092000
     19 HB2        -0.9810   -0.5440    1.7040 hc        1 PSA      0.095500
     20 HB3         0.4070   -1.1360    1.1800 hc        1 PSA      0.095500
     21 HD1        -1.3000    1.9120    1.8550 ha        1 PSA      0.138000
     22 HD2         2.3330    0.2720    0.9270 ha        1 PSA      0.129000
     23 HE1        -0.2430    3.9610    2.3670 ha        1 PSA      0.118000
     24 HE2         3.3910    2.3150    1.4620 ha        1 PSA      0.116000
     25 HZ          2.1010    4.1660    2.1590 ha        1 PSA      0.116000
     26 HC          0.6760   -1.6540   -1.1050 h1        1 PSA      0.073000
     27 HH         -0.0370   -3.3790   -0.2700 ho        1 PSA      0.259000
     28 HM1        -1.7870   -2.0730   -2.4130 hc        1 PSA      0.074500
     29 HM2        -0.9100   -0.7990   -2.8120 hc        1 PSA      0.074500
@<TRIPOS>BOND
     1    1    2 1   
     2    1   16 1   
     3    1   17 1   
     4    2    3 1   
     5    2   10 1   
     6    2   18 1   
     7    3    4 1   
     8    3   19 1   
     9    3   20 1   
    10    4    5 1   
    11    4    6 1   
    12    5    7 1   
    13    5   21 1   
    14    6   22 1   
    15    7   23 1   
    16    8    9 1   
    17    8   24 1   
    18    9   25 1   
    19   10   11 1   
    20   10   12 1   
    21   10   26 1   
    22   11   27 1   
    23   12   13 1   
    24   12   28 1   
    25   12   29 1   
    26   13   14 1   
    27   13   15 1   
@<TRIPOS>SUBSTRUCTURE
     1 PSA         1 TEMP              0 ****  ****    0 ROOT
