@<TRIPOS>MOLECULE
PSB
   57    61     1     0     0
SMALL
bcc


@<TRIPOS>ATOM
      1 N1         -2.1750   -1.9990    8.5050 nh        1 PSB     -0.930500
      2 C2         -1.4320   -1.1880    7.6480 ca        1 PSB      0.918900
      3 N3         -0.8400   -0.0430    8.2550 nb        1 PSB     -0.832000
      4 C4         -0.0400    0.7080    7.5070 ca        1 PSB      0.768600
      5 O5          0.5690    1.8170    8.0160 oh        1 PSB     -0.589300
      6 C6          0.2230    0.4070    6.1270 ca        1 PSB     -0.385600
      7 N7          0.9630    0.9580    5.1240 nc        1 PSB     -0.157400
      8 N8          0.7380    0.1600    4.0720 na        1 PSB      0.373000
      9 N9         -0.0960   -0.8980    4.2650 nc        1 PSB     -0.239400
     10 C10        -0.4720   -0.7990    5.5870 ca        1 PSB      0.330300
     11 N11        -1.3050   -1.5850    6.3490 nb        1 PSB     -0.741000
     12 C12         1.3490    0.4050    2.7850 ca        1 PSB      0.010800
     13 C13         2.6270    0.9930    2.7140 ca        1 PSB     -0.092000
     14 C14         3.2030    1.2260    1.4680 ca        1 PSB     -0.132000
     15 C15         2.5380    0.8700    0.2960 ca        1 PSB     -0.098000
     16 C16         1.2730    0.2820    0.3710 ca        1 PSB     -0.136600
     17 C17         0.6620    0.0550    1.6070 ca        1 PSB     -0.055000
     18 C18         0.5160   -0.0860   -0.8630 c         1 PSB      0.680700
     19 O19        -0.6970    0.1830   -0.9860 o         1 PSB     -0.615100
     20 N20         1.2070   -0.7860   -1.8320 n         1 PSB     -0.554900
     21 C21         0.6320   -1.0880   -3.1170 c3        1 PSB      0.118300
     22 C22         1.5160   -0.7000   -4.2720 ca        1 PSB     -0.072300
     23 C23         2.7140   -1.4030   -4.4480 ca        1 PSB     -0.138000
     24 C24         3.5770   -1.0870   -5.4940 ca        1 PSB     -0.111000
     25 C25         3.2440   -0.0640   -6.3810 ca        1 PSB     -0.133000
     26 C26         2.0450    0.6250   -6.2230 ca        1 PSB     -0.092000
     27 C27         1.1740    0.3240   -5.1670 ca        1 PSB     -0.022100
     28 S28        -0.1680    1.3730   -5.0110 ss        1 PSB     -0.142800
     29 C29        -1.5670    0.3990   -5.1060 ca        1 PSB     -0.039100
     30 C30        -1.7150   -0.5870   -6.0900 ca        1 PSB     -0.108000
     31 C31        -2.8960   -1.3150   -6.1940 ca        1 PSB     -0.135000
     32 C32        -3.9510   -1.0580   -5.3160 ca        1 PSB     -0.117000
     33 C33        -3.8150   -0.0790   -4.3370 ca        1 PSB     -0.116000
     34 C34        -2.6260    0.6510   -4.2190 ca        1 PSB     -0.082300
     35 C35        -2.5030    1.6990   -3.1550 c3        1 PSB      0.165700
     36 O36        -3.2950    1.4110   -2.0210 oh        1 PSB     -0.602800
     37 HN11       -2.4760   -1.6040    9.3640 hn        1 PSB      0.436300
     38 HN12       -2.7650   -2.6800    8.0870 hn        1 PSB      0.436300
     39 HO5         0.3250    1.9320    8.9520 ho        1 PSB      0.449000
     40 H13         3.1760    1.2780    3.6260 ha        1 PSB      0.164000
     41 H14         4.1970    1.6970    1.4120 ha        1 PSB      0.147000
     42 H15         3.0060    1.0710   -0.6800 ha        1 PSB      0.144000
     43 H17        -0.3500   -0.3870    1.6330 ha        1 PSB      0.184000
     44 H20         2.1860   -0.9120   -1.7300 hn        1 PSB      0.311500
     45 H211       -0.3720   -0.5730   -3.1970 h1        1 PSB      0.079200
     46 H212        0.4540   -2.2030   -3.1700 h1        1 PSB      0.079200
     47 H23         2.9710   -2.2180   -3.7540 ha        1 PSB      0.134000
     48 H24         4.5170   -1.6460   -5.6210 ha        1 PSB      0.136000
     49 H25         3.9220    0.1920   -7.2100 ha        1 PSB      0.138000
     50 H26         1.7720    1.4240   -6.9320 ha        1 PSB      0.150000
     51 H30        -0.8860   -0.7850   -6.7860 ha        1 PSB      0.137000
     52 H31        -2.9980   -2.0870   -6.9700 ha        1 PSB      0.133000
     53 H32        -4.8880   -1.6290   -5.3990 ha        1 PSB      0.134000
     54 H33        -4.6360    0.1310   -3.6310 ha        1 PSB      0.154000
     55 H351       -2.9020    2.6780   -3.5430 h1        1 PSB      0.066200
     56 H352       -1.4220    1.8220   -2.8600 h1        1 PSB      0.066200
     57 H36        -2.8330    0.7260   -1.5200 ho        1 PSB      0.423000
@<TRIPOS>BOND
     1    1    2 1   
     2    1   37 1   
     3    1   38 1   
     4    2    3 ar  
     5    2   11 ar  
     6    3    4 ar  
     7    4    5 1   
     8    4    6 ar  
     9    5   39 1   
    10    6    7 2   
    11    6   10 ar  
    12    7    8 1   
    13    8    9 1   
    14    8   12 1   
    15    9   10 2   
    16   10   11 ar  
    17   12   13 ar  
    18   12   17 ar  
    19   13   14 ar  
    20   13   40 1   
    21   14   15 ar  
    22   14   41 1   
    23   15   16 ar  
    24   15   42 1   
    25   16   17 ar  
    26   16   18 1   
    27   17   43 1   
    28   18   19 2   
    29   18   20 1   
    30   20   21 1   
    31   20   44 1   
    32   21   22 1   
    33   21   45 1   
    34   21   46 1   
    35   22   23 ar  
    36   22   27 ar  
    37   23   24 ar  
    38   23   47 1   
    39   24   25 ar  
    40   24   48 1   
    41   25   26 ar  
    42   25   49 1   
    43   26   27 ar  
    44   26   50 1   
    45   27   28 1   
    46   28   29 1   
    47   29   30 ar  
    48   29   34 ar  
    49   30   31 ar  
    50   30   51 1   
    51   31   32 ar  
    52   31   52 1   
    53   32   33 ar  
    54   32   53 1   
    55   33   34 ar  
    56   33   54 1   
    57   34   35 1   
    58   35   36 1   
    59   35   55 1   
    60   35   56 1   
    61   36   57 1   
@<TRIPOS>SUBSTRUCTURE
     1 PSB         1 TEMP              0 ****  ****    0 ROOT
