@<TRIPOS>MOLECULE
PSB
   58    62     1     0     0
SMALL
bcc


@<TRIPOS>ATOM
      1 N1          0.5230   -2.3820   -0.2030 nh        1 PSB     -0.942500
      2 C2          1.6880   -1.6480   -0.1880 ca        1 PSB      0.956900
      3 N3          2.0370   -1.0830    1.0770 nb        1 PSB     -0.825000
      4 C4          3.1510   -0.3710    1.1510 ca        1 PSB      0.776600
      5 O5          3.5590    0.2020    2.3180 oh        1 PSB     -0.584300
      6 C6          4.0040   -0.1560    0.0060 ca        1 PSB     -0.373600
      7 N7          5.1640    0.4990   -0.2340 nc        1 PSB     -0.140400
      8 N8          5.3980    0.2860   -1.5440 na        1 PSB      0.331000
      9 N9          4.4780   -0.4710   -2.2200 nc        1 PSB     -0.263400
     10 C10         3.5400   -0.7930   -1.2710 ca        1 PSB      0.357300
     11 N11         2.3880   -1.5340   -1.3610 nb        1 PSB     -0.766000
     12 C12         6.5510    0.8230   -2.2090 ca        1 PSB      0.049800
     13 C13         7.6930    1.2030   -1.4730 ca        1 PSB     -0.068000
     14 C14         8.8070    1.7160   -2.1380 ca        1 PSB     -0.113000
     15 C15         8.8200    1.8400   -3.5230 ca        1 PSB     -0.102000
     16 C16         7.6870    1.4580   -4.2540 ca        1 PSB     -0.188600
     17 C17         6.5430    0.9700   -3.6120 ca        1 PSB     -0.054000
     18 C18         7.6300    1.5970   -5.7160 c         1 PSB      0.590700
     19 O19         6.6930    1.9890   -6.3990 o         1 PSB     -0.434100
     20 N20         8.8780    1.1820   -6.4550 n4        1 PSB     -0.692800
     21 C21         8.5760    0.2490   -7.5810 c3        1 PSB      0.165100
     22 C22         9.8000   -0.2420   -8.2890 ca        1 PSB     -0.107300
     23 C23         9.9250   -1.6200   -8.4890 ca        1 PSB     -0.111000
     24 C24        11.0020   -2.1330   -9.2150 ca        1 PSB     -0.084000
     25 C25        11.9620   -1.2710   -9.7390 ca        1 PSB     -0.109000
     26 C26        11.8430    0.1060   -9.5360 ca        1 PSB     -0.063000
     27 C27        10.7740    0.6300   -8.8060 ca        1 PSB     -0.053100
     28 S28        10.7950    2.3090   -8.4580 ss        1 PSB     -0.165800
     29 C29         9.7660    3.0550   -9.6070 ca        1 PSB     -0.030100
     30 C30         9.6620    2.6100  -10.9260 ca        1 PSB     -0.105000
     31 C31         8.8730    3.3010  -11.8440 ca        1 PSB     -0.105000
     32 C32         8.1930    4.4530  -11.4490 ca        1 PSB     -0.102000
     33 C33         8.2970    4.9050  -10.1330 ca        1 PSB     -0.106000
     34 C34         9.0750    4.2100   -9.2030 ca        1 PSB     -0.117300
     35 C35         9.1720    4.7190   -7.7970 c3        1 PSB      0.168700
     36 O36         8.3470    3.9760   -6.9090 oh        1 PSB     -0.652800
     37 HN11        0.2130   -2.7960   -1.0480 hn        1 PSB      0.460800
     38 HN12       -0.0160   -2.4780    0.6220 hn        1 PSB      0.460800
     39 HO5         2.9220    0.0070    3.0310 ho        1 PSB      0.460000
     40 H13         7.7220    1.1080   -0.3720 ha        1 PSB      0.186000
     41 H14         9.6880    2.0270   -1.5520 ha        1 PSB      0.167000
     42 H15         9.7030    2.2710   -4.0200 ha        1 PSB      0.143000
     43 H17         5.6530    0.7110   -4.2130 ha        1 PSB      0.189000
     44 H20         9.3410    2.0440   -6.8720 hn        1 PSB      0.476300
     45 H211        7.9090    0.8030   -8.3090 hx        1 PSB      0.112700
     46 H212        7.9890   -0.6190   -7.1610 hx        1 PSB      0.112700
     47 H23         9.1680   -2.3110   -8.0850 ha        1 PSB      0.150000
     48 H24        11.0880   -3.2210   -9.3710 ha        1 PSB      0.162000
     49 H25        12.8140   -1.6700  -10.3130 ha        1 PSB      0.164000
     50 H26        12.6060    0.7900   -9.9480 ha        1 PSB      0.168000
     51 H30        10.2110    1.7090  -11.2440 ha        1 PSB      0.146000
     52 H31         8.7970    2.9420  -12.8830 ha        1 PSB      0.154000
     53 H32         7.5780    5.0090  -12.1740 ha        1 PSB      0.155000
     54 H33         7.7660    5.8200   -9.8260 ha        1 PSB      0.148000
     55 H351       10.2130    4.5900   -7.3890 h1        1 PSB      0.070700
     56 H352        8.8940    5.8070   -7.7520 h1        1 PSB      0.070700
     57 H36         7.4270    4.1300   -7.1630 ho        1 PSB      0.430000
     58 H202        9.5340    0.7410   -5.8060 hn        1 PSB      0.476300
@<TRIPOS>BOND
     1    1    2 1   
     2    1   37 1   
     3    1   38 1   
     4    2    3 ar  
     5    2   11 ar  
     6    3    4 ar  
     7    4    5 1   
     8    4    6 ar  
     9    5   39 1   
    10    6    7 2   
    11    6   10 ar  
    12    7    8 1   
    13    8    9 1   
    14    8   12 1   
    15    9   10 2   
    16   10   11 ar  
    17   12   13 ar  
    18   12   17 ar  
    19   13   14 ar  
    20   13   40 1   
    21   14   15 ar  
    22   14   41 1   
    23   15   16 ar  
    24   15   42 1   
    25   16   17 ar  
    26   16   18 1   
    27   17   43 1   
    28   18   19 2   
    29   18   20 1   
    30   20   21 1   
    31   20   44 1   
    32   20   58 1   
    33   21   22 1   
    34   21   45 1   
    35   21   46 1   
    36   22   23 ar  
    37   22   27 ar  
    38   23   24 ar  
    39   23   47 1   
    40   24   25 ar  
    41   24   48 1   
    42   25   26 ar  
    43   25   49 1   
    44   26   27 ar  
    45   26   50 1   
    46   27   28 1   
    47   28   29 1   
    48   29   30 ar  
    49   29   34 ar  
    50   30   31 ar  
    51   30   51 1   
    52   31   32 ar  
    53   31   52 1   
    54   32   33 ar  
    55   32   53 1   
    56   33   34 ar  
    57   33   54 1   
    58   34   35 1   
    59   35   36 1   
    60   35   55 1   
    61   35   56 1   
    62   36   57 1   
@<TRIPOS>SUBSTRUCTURE
     1 PSB         1 TEMP              0 ****  ****    0 ROOT
