@<TRIPOS>MOLECULE
PSB
   58    62     1     0     0
SMALL
bcc


@<TRIPOS>ATOM
      1 N1          0.5220   -2.3600   -0.1930 nv        1 PSB     -0.942500
      2 C2          1.6920   -1.6350   -0.1780 ca        1 PSB      0.956900
      3 N3          2.0520   -1.0800    1.0890 nb        1 PSB     -0.825000
      4 C4          3.1720   -0.3770    1.1620 ca        1 PSB      0.776600
      5 O5          3.5890    0.1850    2.3300 oh        1 PSB     -0.584300
      6 C6          4.0210   -0.1620    0.0140 ca        1 PSB     -0.373600
      7 N7          5.1850    0.4850   -0.2280 nc        1 PSB     -0.140400
      8 N8          5.4120    0.2790   -1.5400 na        1 PSB      0.331000
      9 N9          4.4820   -0.4660   -2.2170 nc        1 PSB     -0.263400
     10 C10         3.5460   -0.7870   -1.2650 ca        1 PSB      0.357300
     11 N11         2.3880   -1.5180   -1.3540 nb        1 PSB     -0.766000
     12 C12         6.5650    0.8110   -2.2070 ca        1 PSB      0.049800
     13 C13         7.7140    1.1770   -1.4740 ca        1 PSB     -0.068000
     14 C14         8.8280    1.6850   -2.1410 ca        1 PSB     -0.113000
     15 C15         8.8360    1.8180   -3.5260 ca        1 PSB     -0.102000
     16 C16         7.6970    1.4500   -4.2530 ca        1 PSB     -0.188600
     17 C17         6.5520    0.9670   -3.6080 ca        1 PSB     -0.054000
     18 C18         7.6350    1.5980   -5.7140 c         1 PSB      0.590700
     19 O19         6.6980    2.0030   -6.3900 o         1 PSB     -0.434100
     20 N20         8.8750    1.1770   -6.4620 ny        1 PSB     -0.692800
     21 C21         8.5590    0.2540   -7.5910 c3        1 PSB      0.165100
     22 C22         9.7750   -0.2450   -8.3080 ca        1 PSB     -0.107300
     23 C23         9.8850   -1.6230   -8.5180 ca        1 PSB     -0.111000
     24 C24        10.9550   -2.1420   -9.2510 ca        1 PSB     -0.084000
     25 C25        11.9210   -1.2860   -9.7740 ca        1 PSB     -0.109000
     26 C26        11.8160    0.0910   -9.5610 ca        1 PSB     -0.063000
     27 C27        10.7550    0.6210   -8.8240 ca        1 PSB     -0.053100
     28 S28        10.7940    2.2970   -8.4650 ss        1 PSB     -0.165800
     29 C29         9.7680    3.0600   -9.6050 ca        1 PSB     -0.030100
     30 C30         9.6540    2.6240  -10.9270 ca        1 PSB     -0.105000
     31 C31         8.8680    3.3290  -11.8380 ca        1 PSB     -0.105000
     32 C32         8.2010    4.4850  -11.4330 ca        1 PSB     -0.102000
     33 C33         8.3150    4.9270  -10.1140 ca        1 PSB     -0.106000
     34 C34         9.0890    4.2190   -9.1920 ca        1 PSB     -0.117300
     35 C35         9.1970    4.7180   -7.7830 c3        1 PSB      0.168700
     36 O36         8.3690    3.9780   -6.8960 oh        1 PSB     -0.652800
     37 HN11        0.2050   -2.7650   -1.0390 hn        1 PSB      0.460800
     38 HN12       -0.0140   -2.4570    0.6340 hn        1 PSB      0.460800
     39 HO5         2.9550   -0.0100    3.0450 ho        1 PSB      0.460000
     40 H13         7.7470    1.0750   -0.3740 ha        1 PSB      0.186000
     41 H14         9.7150    1.9850   -1.5570 ha        1 PSB      0.167000
     42 H15         9.7200    2.2450   -4.0240 ha        1 PSB      0.143000
     43 H17         5.6570    0.7190   -4.2070 ha        1 PSB      0.189000
     44 H20         9.3440    2.0360   -6.8750 hn        1 PSB      0.476300
     45 H211        7.8950    0.8190   -8.3140 hx        1 PSB      0.112700
     46 H212        7.9650   -0.6120   -7.1750 hx        1 PSB      0.112700
     47 H23         9.1230   -2.3090   -8.1140 ha        1 PSB      0.150000
     48 H24        11.0290   -3.2300   -9.4140 ha        1 PSB      0.162000
     49 H25        12.7670   -1.6890  -10.3540 ha        1 PSB      0.164000
     50 H26        12.5840    0.7700   -9.9730 ha        1 PSB      0.168000
     51 H30        10.1930    1.7200  -11.2530 ha        1 PSB      0.146000
     52 H31         8.7850    2.9770  -12.8780 ha        1 PSB      0.154000
     53 H32         7.5880    5.0510  -12.1520 ha        1 PSB      0.155000
     54 H33         7.7940    5.8450   -9.7990 ha        1 PSB      0.148000
     55 H351       10.2390    4.5770   -7.3800 h1        1 PSB      0.070700
     56 H352        8.9290    5.8090   -7.7300 h1        1 PSB      0.070700
     57 H36         7.4490    4.1420   -7.1450 ho        1 PSB      0.430000
     58 H202        9.5300    0.7250   -5.8180 hn        1 PSB      0.476300
@<TRIPOS>BOND
     1    1    2 1   
     2    1   37 1   
     3    1   38 1   
     4    2    3 ar  
     5    2   11 ar  
     6    3    4 ar  
     7    4    5 1   
     8    4    6 ar  
     9    5   39 1   
    10    6    7 2   
    11    6   10 ar  
    12    7    8 1   
    13    8    9 1   
    14    8   12 1   
    15    9   10 2   
    16   10   11 ar  
    17   12   13 ar  
    18   12   17 ar  
    19   13   14 ar  
    20   13   40 1   
    21   14   15 ar  
    22   14   41 1   
    23   15   16 ar  
    24   15   42 1   
    25   16   17 ar  
    26   16   18 1   
    27   17   43 1   
    28   18   19 2   
    29   18   20 1   
    30   20   21 1   
    31   20   44 1   
    32   20   58 1   
    33   21   22 1   
    34   21   45 1   
    35   21   46 1   
    36   22   23 ar  
    37   22   27 ar  
    38   23   24 ar  
    39   23   47 1   
    40   24   25 ar  
    41   24   48 1   
    42   25   26 ar  
    43   25   49 1   
    44   26   27 ar  
    45   26   50 1   
    46   27   28 1   
    47   28   29 1   
    48   29   30 ar  
    49   29   34 ar  
    50   30   31 ar  
    51   30   51 1   
    52   31   32 ar  
    53   31   52 1   
    54   32   33 ar  
    55   32   53 1   
    56   33   34 ar  
    57   33   54 1   
    58   34   35 1   
    59   35   36 1   
    60   35   55 1   
    61   35   56 1   
    62   36   57 1   
@<TRIPOS>SUBSTRUCTURE
     1 PSB         1 TEMP              0 ****  ****    0 ROOT
