@<TRIPOS>MOLECULE
PSB
   59    63     1     0     0
SMALL
bcc


@<TRIPOS>ATOM
      1 N1         -0.1070   -0.7810    0.1940 n4        1 PSB     -0.818300
      2 C2          1.3790   -0.6340    0.0810 ca        1 PSB      0.758900
      3 N3          2.0700   -1.0510    1.2240 nb        1 PSB     -0.810000
      4 C4          3.4090   -0.9390    1.1880 ca        1 PSB      0.811600
      5 O5          4.1900   -1.3060    2.2250 oh        1 PSB     -0.540300
      6 C6          4.0780   -0.4120    0.0240 ca        1 PSB     -0.332600
      7 N7          5.3720   -0.1660   -0.3290 nc        1 PSB     -0.123400
      8 N8          5.2880    0.3400   -1.5710 na        1 PSB      0.400000
      9 N9          4.0540    0.4620   -2.1050 nc        1 PSB     -0.162400
     10 C10         3.2110   -0.0110   -1.1190 ca        1 PSB      0.275300
     11 N11         1.8320   -0.1320   -1.0790 nb        1 PSB     -0.605000
     12 C12         6.4730    0.7650   -2.2970 ca        1 PSB     -0.009200
     13 C13         7.5780    1.2780   -1.5880 ca        1 PSB     -0.042000
     14 C14         8.7050    1.6940   -2.2960 ca        1 PSB     -0.113000
     15 C15         8.7510    1.6050   -3.6850 ca        1 PSB     -0.064000
     16 C16         7.6560    1.0830   -4.3840 ca        1 PSB     -0.175600
     17 C17         6.5040    0.6680   -3.6990 ca        1 PSB     -0.033000
     18 C18         7.6240    0.9950   -5.8570 c         1 PSB      0.583700
     19 O19         6.6210    1.0770   -6.5580 o         1 PSB     -0.437100
     20 N20         8.9330    0.7800   -6.5460 n4        1 PSB     -0.700800
     21 C21         8.8260   -0.1220   -7.7330 c3        1 PSB      0.168100
     22 C22        10.1370   -0.3190   -8.4310 ca        1 PSB     -0.112300
     23 C23        10.4960   -1.6240   -8.7770 ca        1 PSB     -0.110000
     24 C24        11.6630   -1.8650   -9.5080 ca        1 PSB     -0.079000
     25 C25        12.4770   -0.8030   -9.8890 ca        1 PSB     -0.104000
     26 C26        12.1260    0.5030   -9.5360 ca        1 PSB     -0.058000
     27 C27        10.9650    0.7560   -8.8020 ca        1 PSB     -0.063100
     28 S28        10.6860    2.3640   -8.2720 ss        1 PSB     -0.148800
     29 C29         9.6960    3.1020   -9.4640 ca        1 PSB     -0.036100
     30 C30         9.8480    2.8360  -10.8250 ca        1 PSB     -0.098000
     31 C31         9.0880    3.5270  -11.7690 ca        1 PSB     -0.101000
     32 C32         8.1790    4.4990  -11.3520 ca        1 PSB     -0.095000
     33 C33         8.0260    4.7710   -9.9920 ca        1 PSB     -0.105000
     34 C34         8.7740    4.0730   -9.0400 ca        1 PSB     -0.119300
     35 C35         8.5980    4.3960   -7.5880 c3        1 PSB      0.168700
     36 O36         7.8280    3.4050   -6.9160 oh        1 PSB     -0.663800
     37 HN11       -0.5650   -0.4670   -0.6730 hn        1 PSB      0.487800
     38 HN12       -0.3330   -1.7700    0.3670 hn        1 PSB      0.487800
     39 HO5         3.6570   -1.6500    2.9730 ho        1 PSB      0.485000
     40 H13         7.5710    1.3630   -0.4860 ha        1 PSB      0.188000
     41 H14         9.5660    2.1080   -1.7430 ha        1 PSB      0.183000
     42 H15         9.6450    1.9800   -4.2110 ha        1 PSB      0.155000
     43 H17         5.6410    0.2870   -4.2770 ha        1 PSB      0.189000
     44 H20         9.6150    0.4000   -5.8880 hn        1 PSB      0.478300
     45 H211        8.4090   -1.1110   -7.3860 hx        1 PSB      0.112200
     46 H212        8.0810    0.3430   -8.4470 hx        1 PSB      0.112200
     47 H23         9.8560   -2.4730   -8.4880 ha        1 PSB      0.150000
     48 H24        11.9330   -2.8990   -9.7820 ha        1 PSB      0.167000
     49 H25        13.3990   -0.9860  -10.4670 ha        1 PSB      0.170000
     50 H26        12.7760    1.3450   -9.8330 ha        1 PSB      0.171000
     51 H30        10.5780    2.0800  -11.1580 ha        1 PSB      0.148000
     52 H31         9.2170    3.3110  -12.8420 ha        1 PSB      0.160000
     53 H32         7.5860    5.0570  -12.0950 ha        1 PSB      0.160000
     54 H33         7.3160    5.5480   -9.6680 ha        1 PSB      0.150000
     55 H351        9.5860    4.4000   -7.0490 h1        1 PSB      0.071200
     56 H352        8.1100    5.4010   -7.4630 h1        1 PSB      0.071200
     57 H36         6.9410    3.4130   -7.2990 ho        1 PSB      0.431000
     58 H131       -0.4380   -0.2120    0.9850 hn        1 PSB      0.487800
     59 H202        9.3080    1.7290   -6.9220 hn        1 PSB      0.478300
@<TRIPOS>BOND
     1    1    2 1   
     2    1   37 1   
     3    1   38 1   
     4    1   58 1   
     5    2    3 ar  
     6    2   11 ar  
     7    3    4 ar  
     8    4    5 1   
     9    4    6 ar  
    10    5   39 1   
    11    6    7 2   
    12    6   10 ar  
    13    7    8 1   
    14    8    9 1   
    15    8   12 1   
    16    9   10 2   
    17   10   11 ar  
    18   12   13 ar  
    19   12   17 ar  
    20   13   14 ar  
    21   13   40 1   
    22   14   15 ar  
    23   14   41 1   
    24   15   16 ar  
    25   15   42 1   
    26   16   17 ar  
    27   16   18 1   
    28   17   43 1   
    29   18   19 2   
    30   18   20 1   
    31   20   21 1   
    32   20   44 1   
    33   20   59 1   
    34   21   22 1   
    35   21   45 1   
    36   21   46 1   
    37   22   23 ar  
    38   22   27 ar  
    39   23   24 ar  
    40   23   47 1   
    41   24   25 ar  
    42   24   48 1   
    43   25   26 ar  
    44   25   49 1   
    45   26   27 ar  
    46   26   50 1   
    47   27   28 1   
    48   28   29 1   
    49   29   30 ar  
    50   29   34 ar  
    51   30   31 ar  
    52   30   51 1   
    53   31   32 ar  
    54   31   52 1   
    55   32   33 ar  
    56   32   53 1   
    57   33   34 ar  
    58   33   54 1   
    59   34   35 1   
    60   35   36 1   
    61   35   55 1   
    62   35   56 1   
    63   36   57 1   
@<TRIPOS>SUBSTRUCTURE
     1 PSB         1 TEMP              0 ****  ****    0 ROOT
