@<TRIPOS>MOLECULE
PSC
  132   131     1     0     0
SMALL
bcc


@<TRIPOS>ATOM
      1 P          -2.0370    6.5860   -2.3650 p5        1 PSC      1.438800
      2 N          -4.9760    6.8360    0.3440 n4        1 PSC     -0.576800
      3 C01        -0.7140    4.0210    0.9540 c3        1 PSC      0.112400
      4 C02         0.3050    4.5080   -0.0730 c3        1 PSC      0.135100
      5 C03        -0.3500    4.9520   -1.3860 c3        1 PSC      0.175400
      6 C04        -4.5320    5.8640   -2.0370 c3        1 PSC      0.197400
      7 C05        -5.1700    5.7130   -0.6420 c3        1 PSC      0.079800
      8 C06        -5.2930    8.1580   -0.2680 c3        1 PSC      0.075433
      9 C07        -5.9040    6.5920    1.4890 c3        1 PSC      0.075433
     10 C08        -3.5800    6.8540    0.8740 c3        1 PSC      0.075433
     11 O01         1.2170    3.4600   -0.4390 os        1 PSC     -0.426900
     12 O04        -3.3550    3.6390    1.1610 o         1 PSC     -0.610000
     13 O11        -1.0760    6.1200   -1.1210 os        1 PSC     -0.580200
     14 O12        -3.2170    5.4470   -2.0300 os        1 PSC     -0.577200
     15 O13        -1.4070    6.2670   -3.6450 o         1 PSC     -0.814500
     16 O14        -2.6990    7.8300   -1.9060 o         1 PSC     -0.814500
     17 C1          2.2290    3.1640    0.4300 c         1 PSC      0.638100
     18 C2          3.1220    2.0780   -0.0870 c3        1 PSC     -0.127400
     19 C3          4.5650    2.3360    0.2890 c3        1 PSC     -0.079400
     20 C4          5.4420    1.1710   -0.1160 c3        1 PSC     -0.078400
     21 C5          6.8900    1.4300    0.2420 c3        1 PSC     -0.079400
     22 C6          7.7700    0.2650   -0.1580 c3        1 PSC     -0.079400
     23 C7          9.2170    0.5230    0.2010 c3        1 PSC     -0.077400
     24 C8         10.0970   -0.6430   -0.1990 c3        1 PSC     -0.049200
     25 C9         11.5210   -0.4160    0.1400 c2        1 PSC     -0.174200
     26 C10        12.5100   -1.2460   -0.2070 c2        1 PSC     -0.169200
     27 C11        12.2990   -2.4950   -0.9810 c3        1 PSC     -0.018000
     28 C12        13.5400   -3.2960   -1.1230 c2        1 PSC     -0.169200
     29 C13        13.5880   -4.6180   -0.9340 c2        1 PSC     -0.169200
     30 C14        14.8150   -5.4290   -1.1220 c3        1 PSC     -0.048200
     31 C15        15.0090   -6.4160    0.0120 c3        1 PSC     -0.076400
     32 C16        16.2550   -7.2500   -0.1970 c3        1 PSC     -0.079400
     33 C17        16.4510   -8.2390    0.9320 c3        1 PSC     -0.080400
     34 C18        17.6910   -9.0710    0.7290 c3        1 PSC     -0.092100
     35 C19        -2.7310    2.7740    0.5340 c         1 PSC      0.664100
     36 C20        -3.2750    1.5750   -0.1820 c3        1 PSC     -0.135400
     37 C21        -4.4800    1.0050    0.5330 c3        1 PSC     -0.075400
     38 C22        -5.1030   -0.1150   -0.2730 c3        1 PSC     -0.080400
     39 C23        -6.2990   -0.7030    0.4450 c3        1 PSC     -0.078400
     40 C24        -6.9270   -1.8190   -0.3620 c3        1 PSC     -0.079400
     41 C25        -8.1230   -2.4080    0.3550 c3        1 PSC     -0.078400
     42 C26        -8.7520   -3.5230   -0.4530 c3        1 PSC     -0.079400
     43 C27        -9.9480   -4.1130    0.2640 c3        1 PSC     -0.078400
     44 C28       -10.5780   -5.2280   -0.5440 c3        1 PSC     -0.079400
     45 C29       -11.7740   -5.8180    0.1720 c3        1 PSC     -0.078400
     46 C30       -12.4030   -6.9320   -0.6350 c3        1 PSC     -0.079400
     47 C31       -13.5990   -7.5220    0.0810 c3        1 PSC     -0.079400
     48 C32       -14.2280   -8.6370   -0.7270 c3        1 PSC     -0.079400
     49 C33       -15.4250   -9.2280   -0.0110 c3        1 PSC     -0.080400
     50 C34       -16.0550  -10.3380   -0.8120 c3        1 PSC     -0.093100
     51 H011       -1.4430    4.8490    1.1580 h1        1 PSC      0.074700
     52 H012       -0.2010    3.6930    1.8960 h1        1 PSC      0.074700
     53 H02         0.8740    5.3630    0.3890 h1        1 PSC      0.087700
     54 H031        0.4270    5.1670   -2.1670 h1        1 PSC      0.056700
     55 H032       -1.0480    4.1570   -1.7650 h1        1 PSC      0.056700
     56 H041       -4.6320    6.9140   -2.4280 h1        1 PSC      0.053200
     57 H042       -5.1210    5.1600   -2.6990 h1        1 PSC      0.053200
     58 H051       -6.2810    5.6000   -0.7830 hx        1 PSC      0.091200
     59 H052       -4.7450    4.7810   -0.1640 hx        1 PSC      0.091200
     60 H061       -6.2560    8.0800   -0.8330 hx        1 PSC      0.100811
     61 H062       -5.3860    8.9240    0.5450 hx        1 PSC      0.100811
     62 H063       -4.4540    8.4650   -0.9670 hx        1 PSC      0.100811
     63 H071       -5.6990    5.5740    1.9160 hx        1 PSC      0.100811
     64 H072       -5.7340    7.3700    2.2780 hx        1 PSC      0.100811
     65 H073       -6.9650    6.6490    1.1320 hx        1 PSC      0.100811
     66 H081       -2.8640    7.0340    0.0140 hx        1 PSC      0.100811
     67 H082       -3.4850    7.6840    1.6190 hx        1 PSC      0.100811
     68 H083       -3.3530    5.8640    1.3520 hx        1 PSC      0.100811
     69 H21         2.7660    1.1110    0.3630 hc        1 PSC      0.079200
     70 H22         3.0120    1.9980   -1.2010 hc        1 PSC      0.079200
     71 H31         4.9230    3.2730   -0.2140 hc        1 PSC      0.057700
     72 H32         4.6380    2.5070    1.3960 hc        1 PSC      0.057700
     73 H41         5.0890    0.2370    0.3960 hc        1 PSC      0.040700
     74 H42         5.3530    0.9970   -1.2210 hc        1 PSC      0.040700
     75 H51         7.2430    2.3620   -0.2720 hc        1 PSC      0.043200
     76 H52         6.9780    1.6070    1.3460 hc        1 PSC      0.043200
     77 H61         7.4160   -0.6680    0.3550 hc        1 PSC      0.039700
     78 H62         7.6820    0.0890   -1.2620 hc        1 PSC      0.039700
     79 H71         9.5720    1.4550   -0.3130 hc        1 PSC      0.042200
     80 H72         9.3060    0.7000    1.3060 hc        1 PSC      0.042200
     81 H81         9.7370   -1.5780    0.3150 hc        1 PSC      0.047200
     82 H82         9.9980   -0.8270   -1.3050 hc        1 PSC      0.047200
     83 H9         11.7400    0.4990    0.7140 ha        1 PSC      0.123000
     84 H10        13.5510   -1.0230    0.0790 ha        1 PSC      0.124000
     85 H111       11.4860   -3.1030   -0.4940 hc        1 PSC      0.053700
     86 H112       11.9260   -2.2270   -2.0110 hc        1 PSC      0.053700
     87 H12        14.4380   -2.7260   -1.4130 ha        1 PSC      0.121000
     88 H1         12.6920   -5.1860   -0.6340 ha        1 PSC      0.120000
     89 H141       14.7310   -5.9900   -2.0930 hc        1 PSC      0.045700
     90 H142       15.7200   -4.7690   -1.2010 hc        1 PSC      0.045700
     91 H151       15.0850   -5.8620    0.9840 hc        1 PSC      0.041700
     92 H152       14.1140   -7.0880    0.0840 hc        1 PSC      0.041700
     93 H161       16.1800   -7.8020   -1.1710 hc        1 PSC      0.039200
     94 H162       17.1500   -6.5780   -0.2670 hc        1 PSC      0.039200
     95 H171       16.5240   -7.6860    1.9050 hc        1 PSC      0.038700
     96 H172       15.5540   -8.9100    1.0010 hc        1 PSC      0.038700
     97 H181       17.6260   -9.6500   -0.2250 hc        1 PSC      0.032700
     98 H182       18.5980   -8.4220    0.6820 hc        1 PSC      0.032700
     99 H183       17.8160   -9.7930    1.5710 hc        1 PSC      0.032700
    100 H201       -2.4700    0.8000   -0.2810 hc        1 PSC      0.088700
    101 H202       -3.5520    1.9120   -1.2190 hc        1 PSC      0.088700
    102 H211       -5.2340    1.8190    0.7050 hc        1 PSC      0.049700
    103 H212       -4.1730    0.6220    1.5420 hc        1 PSC      0.049700
    104 H221       -4.3400   -0.9180   -0.4530 hc        1 PSC      0.044700
    105 H222       -5.4190    0.2730   -1.2770 hc        1 PSC      0.044700
    106 H231       -7.0590    0.1010    0.6310 hc        1 PSC      0.039700
    107 H232       -5.9810   -1.0960    1.4470 hc        1 PSC      0.039700
    108 H241       -6.1670   -2.6230   -0.5480 hc        1 PSC      0.041700
    109 H242       -7.2450   -1.4260   -1.3640 hc        1 PSC      0.041700
    110 H251       -8.8830   -1.6050    0.5420 hc        1 PSC      0.038700
    111 H252       -7.8050   -2.8020    1.3560 hc        1 PSC      0.038700
    112 H261       -7.9920   -4.3270   -0.6400 hc        1 PSC      0.040200
    113 H262       -9.0700   -3.1300   -1.4540 hc        1 PSC      0.040200
    114 H271      -10.7080   -3.3090    0.4520 hc        1 PSC      0.039200
    115 H272       -9.6300   -4.5070    1.2650 hc        1 PSC      0.039200
    116 H281       -9.8180   -6.0320   -0.7310 hc        1 PSC      0.040200
    117 H282      -10.8960   -4.8340   -1.5450 hc        1 PSC      0.040200
    118 H291      -12.5340   -5.0140    0.3600 hc        1 PSC      0.039200
    119 H292      -11.4560   -6.2120    1.1740 hc        1 PSC      0.039200
    120 H301      -11.6430   -7.7360   -0.8230 hc        1 PSC      0.039700
    121 H302      -12.7210   -6.5380   -1.6360 hc        1 PSC      0.039700
    122 H311      -14.3590   -6.7180    0.2690 hc        1 PSC      0.039200
    123 H312      -13.2810   -7.9170    1.0820 hc        1 PSC      0.039200
    124 H321      -13.4690   -9.4410   -0.9140 hc        1 PSC      0.039700
    125 H322      -14.5470   -8.2430   -1.7280 hc        1 PSC      0.039700
    126 H331      -16.1830   -8.4220    0.1770 hc        1 PSC      0.038200
    127 H332      -15.1050   -9.6200    0.9900 hc        1 PSC      0.038200
    128 H341      -15.3220  -11.1620   -0.9890 hc        1 PSC      0.032700
    129 H342      -16.9340  -10.7590   -0.2670 hc        1 PSC      0.032700
    130 H343      -16.4020   -9.9610   -1.8040 hc        1 PSC      0.032700
    131 O03        -1.3770    2.8590    0.4360 os        1 PSC     -0.419900
    132 O02         2.2920    3.7730    1.5010 o         1 PSC     -0.555000
@<TRIPOS>BOND
     1    1   13 1   
     2    1   14 1   
     3    1   15 1   
     4    1   16 1   
     5    2    7 1   
     6    2    8 1   
     7    2    9 1   
     8    2   10 1   
     9    3    4 1   
    10    3   51 1   
    11    3   52 1   
    12    3  131 1   
    13    4    5 1   
    14    4   11 1   
    15    4   53 1   
    16    5   13 1   
    17    5   54 1   
    18    5   55 1   
    19    6    7 1   
    20    6   14 1   
    21    6   56 1   
    22    6   57 1   
    23    7   58 1   
    24    7   59 1   
    25    8   60 1   
    26    8   61 1   
    27    8   62 1   
    28    9   63 1   
    29    9   64 1   
    30    9   65 1   
    31   10   66 1   
    32   10   67 1   
    33   10   68 1   
    34   11   17 1   
    35   12   35 2   
    36   17   18 1   
    37   17  132 2   
    38   18   19 1   
    39   18   69 1   
    40   18   70 1   
    41   19   20 1   
    42   19   71 1   
    43   19   72 1   
    44   20   21 1   
    45   20   73 1   
    46   20   74 1   
    47   21   22 1   
    48   21   75 1   
    49   21   76 1   
    50   22   23 1   
    51   22   77 1   
    52   22   78 1   
    53   23   24 1   
    54   23   79 1   
    55   23   80 1   
    56   24   25 1   
    57   24   81 1   
    58   24   82 1   
    59   25   26 2   
    60   25   83 1   
    61   26   27 1   
    62   26   84 1   
    63   27   28 1   
    64   27   85 1   
    65   27   86 1   
    66   28   29 2   
    67   28   87 1   
    68   29   30 1   
    69   29   88 1   
    70   30   31 1   
    71   30   89 1   
    72   30   90 1   
    73   31   32 1   
    74   31   91 1   
    75   31   92 1   
    76   32   33 1   
    77   32   93 1   
    78   32   94 1   
    79   33   34 1   
    80   33   95 1   
    81   33   96 1   
    82   34   97 1   
    83   34   98 1   
    84   34   99 1   
    85   35   36 1   
    86   35  131 1   
    87   36   37 1   
    88   36  100 1   
    89   36  101 1   
    90   37   38 1   
    91   37  102 1   
    92   37  103 1   
    93   38   39 1   
    94   38  104 1   
    95   38  105 1   
    96   39   40 1   
    97   39  106 1   
    98   39  107 1   
    99   40   41 1   
   100   40  108 1   
   101   40  109 1   
   102   41   42 1   
   103   41  110 1   
   104   41  111 1   
   105   42   43 1   
   106   42  112 1   
   107   42  113 1   
   108   43   44 1   
   109   43  114 1   
   110   43  115 1   
   111   44   45 1   
   112   44  116 1   
   113   44  117 1   
   114   45   46 1   
   115   45  118 1   
   116   45  119 1   
   117   46   47 1   
   118   46  120 1   
   119   46  121 1   
   120   47   48 1   
   121   47  122 1   
   122   47  123 1   
   123   48   49 1   
   124   48  124 1   
   125   48  125 1   
   126   49   50 1   
   127   49  126 1   
   128   49  127 1   
   129   50  128 1   
   130   50  129 1   
   131   50  130 1   
@<TRIPOS>SUBSTRUCTURE
     1 PSC         1 TEMP              0 ****  ****    0 ROOT
