@<TRIPOS>MOLECULE
PSC
  132   125     1     0     0
SMALL
bcc


@<TRIPOS>ATOM
      1 P          -1.6060   -1.1380   -2.7480 p5        1 PSC      2.593000
      2 N          -1.6210    2.5290    1.1330 n3        1 PSC     -0.019000
      3 C01         1.6160    1.6740   -2.4760 c3        1 PSC     -0.080000
      4 C02         1.5440   -1.7950   -4.7060 c2        1 PSC     -0.049000
      5 C03         0.2560   -1.8510   -4.3200 c2        1 PSC     -0.071000
      6 C04        -3.1790   -2.8180   -1.5650 c3        1 PSC     -0.039000
      7 C05        -2.5020    1.7150    1.6700 c1        1 PSC      0.029000
      8 C06        -1.9120    6.3300   -0.0060 c3        1 PSC     -0.276000
      9 C07        -0.6620    3.2050    1.7960 c2        1 PSC     -0.534000
     10 C08        -1.6880    2.7040   -0.3250 c3        1 PSC     -0.135000
     11 O01         2.5000   -1.4420   -3.7630 os        1 PSC     -0.228000
     12 O04         3.5270    1.1590   -0.8030 o         1 PSC     -0.364000
     13 O11        -0.0920   -1.6250   -3.0100 os        1 PSC     -0.677000
     14 O12        -2.0200   -2.0200   -1.4840 os        1 PSC     -0.739000
     15 O13        -2.5050   -1.1770   -3.8890 o         1 PSC     -1.068000
     16 O14        -1.2750    0.2530   -2.0570 oh        1 PSC     -0.792000
     17 C1          3.8350   -1.5330   -4.1140 c2        1 PSC      0.310000
     18 C2          4.7290   -1.1060   -2.9930 c3        1 PSC     -0.164000
     19 C3          4.8240   -2.1850   -1.9320 c3        1 PSC     -0.155000
     20 C4          5.5490   -1.6590   -0.7110 c3        1 PSC     -0.164000
     21 C5          5.6580   -2.7250    0.3580 c3        1 PSC     -0.157000
     22 C6          6.3040   -2.1760    1.6130 c3        1 PSC     -0.159000
     23 C7          6.4630   -3.2560    2.6610 c3        1 PSC     -0.158000
     24 C8          7.0650   -2.6850    3.9360 c3        1 PSC     -0.058000
     25 C9          7.3070   -3.7000    4.9190 c1        1 PSC     -0.165000
     26 C10         7.5160   -4.5400    5.7450 c1        1 PSC     -0.221000
     27 C11         8.5230   -6.3800    2.6100 c2        1 PSC     -0.228000
     28 C12         8.5260   -7.7100    2.5730 c2        1 PSC     -0.163000
     29 C13         8.9390   -8.5070    1.3920 c3        1 PSC     -0.134000
     30 C14         9.8650   -9.6420    1.7820 c3        1 PSC     -0.155000
     31 C15        10.2690  -10.4570    0.5730 c3        1 PSC     -0.157000
     32 C16        11.1930  -11.5920    0.9580 c3        1 PSC     -0.185000
     33 C17        11.6010  -12.4100   -0.2500 c3        1 PSC     -0.255000
     34 C18        12.4860  -13.5310   -0.0330 c1        1 PSC     -0.056000
     35 C19         2.4140    1.2060   -0.2740 c2        1 PSC      0.315000
     36 C20         2.0210    0.9980    1.1530 c3        1 PSC     -0.171000
     37 C21         3.2370    0.9600    2.0520 c3        1 PSC     -0.155000
     38 C22         2.8460    0.6190    3.4740 c3        1 PSC     -0.158000
     39 C23         4.0670    0.5300    4.3640 c3        1 PSC     -0.157000
     40 C24         3.6840    0.1850    5.7870 c3        1 PSC     -0.159000
     41 C25         4.9090    0.0680    6.6700 c3        1 PSC     -0.158000
     42 C26         4.5290   -0.2790    8.0930 c3        1 PSC     -0.157000
     43 C27         5.7530   -0.3940    8.9760 c3        1 PSC     -0.158000
     44 C28         5.3720   -0.7390   10.4000 c3        1 PSC     -0.157000
     45 C29         6.5960   -0.8550   11.2830 c3        1 PSC     -0.158000
     46 C30         6.2160   -1.2000   12.7060 c3        1 PSC     -0.158000
     47 C31         7.4400   -1.3160   13.5890 c3        1 PSC     -0.156000
     48 C32         7.0610   -1.6610   15.0130 c3        1 PSC     -0.185000
     49 C33         8.2840   -1.7780   15.9000 c3        1 PSC     -0.255000
     50 C34         8.0750   -2.1040   17.2920 c1        1 PSC     -0.056000
     51 H011       -0.4760    0.2880   -1.5240 ho        1 PSC      0.300000
     52 H012        2.0170    0.7250   -2.9140 h1        1 PSC      0.097667
     53 H02         2.3500    2.5050   -2.6080 h1        1 PSC      0.097667
     54 H031       -0.5820   -2.0850   -4.9990 h4        1 PSC      0.178000
     55 H032        1.8940   -2.0110   -5.7260 h4        1 PSC      0.183000
     56 H041        0.6160    1.9340   -2.9060 h1        1 PSC      0.097667
     57 H042       -3.6870   -2.6760   -2.5540 h1        1 PSC      0.091667
     58 H051       -3.8590   -2.5200   -0.7230 h1        1 PSC      0.091667
     59 H052       -2.8750   -3.8890   -1.4230 h1        1 PSC      0.091667
     60 H061       -1.8210    7.3840    0.3350 hc        1 PSC      0.069250
     61 H062       -2.9860    6.0800   -0.1510 hc        1 PSC      0.069250
     62 H063       -1.3690    6.2050   -0.9680 hc        1 PSC      0.069250
     63 H071       -0.0160    3.8940    1.2520 h4        1 PSC      0.145000
     64 H072       -1.4720    5.6530    0.7610 hc        1 PSC      0.069250
     65 H073       -0.5910    3.1070    2.8800 h4        1 PSC      0.145000
     66 H081       -0.6790    2.4790   -0.7660 h1        1 PSC      0.124333
     67 H082       -1.9730    3.7680   -0.5440 h1        1 PSC      0.124333
     68 H083       -2.4410    2.0020   -0.7720 h1        1 PSC      0.124333
     69 H21         1.8050   -3.7510   -1.9810 ha        1 PSC      0.001500
     70 H22         1.5960   -3.2520   -2.3900 ha        1 PSC      0.001500
     71 H31         5.7410   -0.8820   -3.4200 hc        1 PSC      0.132000
     72 H32         4.3130   -0.1640   -2.5360 hc        1 PSC      0.132000
     73 H41         3.7880   -2.5150   -1.6460 hc        1 PSC      0.093500
     74 H42         5.3630   -3.0780   -2.3440 hc        1 PSC      0.093500
     75 H51         6.5750   -1.3110   -1.0020 hc        1 PSC      0.091000
     76 H52         4.9980   -0.7660   -0.3060 hc        1 PSC      0.091000
     77 H61         4.6370   -3.1200    0.6030 hc        1 PSC      0.081000
     78 H62         6.2620   -3.5880   -0.0300 hc        1 PSC      0.081000
     79 H71         5.6760   -1.3400    2.0230 hc        1 PSC      0.080000
     80 H72         7.3070   -1.7420    1.3610 hc        1 PSC      0.080000
     81 H81         5.4650   -3.7130    2.8900 hc        1 PSC      0.089500
     82 H82         7.1230   -4.0750    2.2680 hc        1 PSC      0.089500
     83 H9          6.3700   -1.9070    4.3640 hc        1 PSC      0.098500
     84 H10         8.0340   -2.1660    3.6920 hc        1 PSC      0.098500
     85 H111        8.1960   -5.8160    3.4960 ha        1 PSC      0.114500
     86 H112        7.7000   -5.2830    6.4780 ha        1 PSC      0.222000
     87 H12         8.8440   -5.7610    1.7610 ha        1 PSC      0.114500
     88 H1          9.4460   -7.8550    0.6320 hc        1 PSC      0.085500
     89 H141        8.2010   -8.3040    3.4440 ha        1 PSC      0.118000
     90 H142        8.0190   -8.9300    0.9030 hc        1 PSC      0.085500
     91 H151       10.7800   -9.2260    2.2790 hc        1 PSC      0.082000
     92 H152        9.3540  -10.3050    2.5300 hc        1 PSC      0.082000
     93 H161        9.3520  -10.8710    0.0740 hc        1 PSC      0.079500
     94 H162       10.7800   -9.7930   -0.1740 hc        1 PSC      0.079500
     95 H171       12.1070  -11.1770    1.4570 hc        1 PSC      0.081500
     96 H172       10.6810  -12.2550    1.7050 hc        1 PSC      0.081500
     97 H181       12.1070  -11.7470   -1.0140 hc        1 PSC      0.146000
     98 H182       10.6840  -12.8210   -0.7680 hc        1 PSC      0.146000
     99 H183       12.8070  -13.7160    1.0050 ha        1 PSC      0.036000
    100 H201        1.8550   -1.1620   -1.5530 ha        1 PSC      0.001500
    101 H202        1.5190   -1.0300   -0.9780 ha        1 PSC      0.001500
    102 H211        1.4570    0.0270    1.2120 hc        1 PSC      0.134500
    103 H212        1.3140    1.8180    1.4650 hc        1 PSC      0.134500
    104 H221        3.9680    0.2010    1.6620 hc        1 PSC      0.093500
    105 H222        3.7540    1.9550    2.0270 hc        1 PSC      0.093500
    106 H231        2.1440    1.4000    3.8700 hc        1 PSC      0.084000
    107 H232        2.2960   -0.3590    3.4910 hc        1 PSC      0.084000
    108 H241        4.7680   -0.2500    3.9630 hc        1 PSC      0.079500
    109 H242        4.6170    1.5080    4.3480 hc        1 PSC      0.079500
    110 H251        3.0000    0.9750    6.1950 hc        1 PSC      0.081000
    111 H252        3.1180   -0.7830    5.8010 hc        1 PSC      0.081000
    112 H261        5.5930   -0.7220    6.2600 hc        1 PSC      0.079000
    113 H262        5.4760    1.0360    6.6570 hc        1 PSC      0.079000
    114 H271        3.8430    0.5100    8.5020 hc        1 PSC      0.079500
    115 H272        3.9630   -1.2470    8.1060 hc        1 PSC      0.079500
    116 H281        6.4370   -1.1840    8.5680 hc        1 PSC      0.080000
    117 H282        6.3190    0.5740    8.9620 hc        1 PSC      0.080000
    118 H291        4.8060   -1.7080   10.4140 hc        1 PSC      0.079000
    119 H292        4.6870    0.0500   10.8080 hc        1 PSC      0.079000
    120 H301        7.1630    0.1140   11.2690 hc        1 PSC      0.079000
    121 H302        7.2810   -1.6440   10.8740 hc        1 PSC      0.079000
    122 H311        5.5310   -0.4100   13.1150 hc        1 PSC      0.080000
    123 H312        5.6490   -2.1680   12.7200 hc        1 PSC      0.080000
    124 H321        8.0070   -0.3470   13.5750 hc        1 PSC      0.079000
    125 H322        8.1250   -2.1050   13.1800 hc        1 PSC      0.079000
    126 H331        6.4940   -2.6280   15.0260 hc        1 PSC      0.081000
    127 H332        6.3760   -0.8710   15.4200 hc        1 PSC      0.081000
    128 H341        8.9870   -2.5620   15.4890 hc        1 PSC      0.146000
    129 H342        8.8690   -0.8110   15.8830 hc        1 PSC      0.146000
    130 H343        7.0310   -2.2460   17.6160 ha        1 PSC      0.036000
    131 O03         1.3410    1.4770   -1.0880 os        1 PSC     -0.310000
    132 O02         4.1180   -1.9160   -5.2470 o         1 PSC     -0.337000
@<TRIPOS>BOND
     1    1   13 1   
     2    1   14 1   
     3    1   15 1   
     4    1   16 1   
     5    2    7 1   
     6    2    9 1   
     7    2   10 1   
     8    3   52 1   
     9    3   53 1   
    10    3   56 1   
    11    3  131 1   
    12    4    5 1   
    13    4   11 1   
    14    4   55 1   
    15    5   13 1   
    16    5   54 1   
    17    6   14 1   
    18    6   57 1   
    19    6   58 1   
    20    6   59 1   
    21    8   60 1   
    22    8   61 1   
    23    8   62 1   
    24    8   64 1   
    25    9   63 1   
    26    9   65 1   
    27   10   66 1   
    28   10   67 1   
    29   10   68 1   
    30   11   17 1   
    31   12   35 1   
    32   16   51 1   
    33   17   18 1   
    34   17  132 1   
    35   18   19 1   
    36   18   71 1   
    37   18   72 1   
    38   19   20 1   
    39   19   73 1   
    40   19   74 1   
    41   20   21 1   
    42   20   75 1   
    43   20   76 1   
    44   21   22 1   
    45   21   77 1   
    46   21   78 1   
    47   22   23 1   
    48   22   79 1   
    49   22   80 1   
    50   23   24 1   
    51   23   81 1   
    52   23   82 1   
    53   24   25 1   
    54   24   83 1   
    55   24   84 1   
    56   25   26 1   
    57   26   86 1   
    58   27   28 1   
    59   27   85 1   
    60   27   87 1   
    61   28   29 1   
    62   28   89 1   
    63   29   30 1   
    64   29   88 1   
    65   29   90 1   
    66   30   31 1   
    67   30   91 1   
    68   30   92 1   
    69   31   32 1   
    70   31   93 1   
    71   31   94 1   
    72   32   33 1   
    73   32   95 1   
    74   32   96 1   
    75   33   34 1   
    76   33   97 1   
    77   33   98 1   
    78   34   99 1   
    79   35   36 1   
    80   35  131 1   
    81   36   37 1   
    82   36  102 1   
    83   36  103 1   
    84   37   38 1   
    85   37  104 1   
    86   37  105 1   
    87   38   39 1   
    88   38  106 1   
    89   38  107 1   
    90   39   40 1   
    91   39  108 1   
    92   39  109 1   
    93   40   41 1   
    94   40  110 1   
    95   40  111 1   
    96   41   42 1   
    97   41  112 1   
    98   41  113 1   
    99   42   43 1   
   100   42  114 1   
   101   42  115 1   
   102   43   44 1   
   103   43  116 1   
   104   43  117 1   
   105   44   45 1   
   106   44  118 1   
   107   44  119 1   
   108   45   46 1   
   109   45  120 1   
   110   45  121 1   
   111   46   47 1   
   112   46  122 1   
   113   46  123 1   
   114   47   48 1   
   115   47  124 1   
   116   47  125 1   
   117   48   49 1   
   118   48  126 1   
   119   48  127 1   
   120   49   50 1   
   121   49  128 1   
   122   49  129 1   
   123   50  130 1   
   124   69   70 1   
   125  100  101 1   
@<TRIPOS>SUBSTRUCTURE
     1 PSC         1 TEMP              0 ****  ****    0 ROOT
