@<TRIPOS>MOLECULE
PSC
  132   128     1     0     0
SMALL
bcc


@<TRIPOS>ATOM
      1 P          -1.5590   -3.0670    5.2850 p3        1 PSC      2.546000
      2 N          -6.2820   -1.2580    5.3960 n4        1 PSC      0.052000
      3 C01         2.8080   -5.1560    3.8020 c3        1 PSC     -0.049000
      4 C02         1.4390   -4.7070    3.2880 c3        1 PSC     -0.016000
      5 C03         0.4750   -4.5810    4.4540 c3        1 PSC      0.026000
      6 C04        -3.9120   -1.9440    5.3300 c3        1 PSC      0.047000
      7 C05        -5.3600   -2.4310    5.3350 c3        1 PSC     -0.144000
      8 C06        -5.8230   -0.3270    6.4210 c3        1 PSC     -0.198000
      9 C07        -6.2960   -0.5930    4.1190 c3        1 PSC     -0.198000
     10 C08        -7.6160   -1.7110    5.7210 c3        1 PSC     -0.198000
     11 O01         0.9480   -5.6550    2.3760 os        1 PSC     -0.281000
     12 O02         1.9580   -4.4790    0.6670 o         1 PSC     -0.365000
     13 O03         3.5800   -4.0090    4.1760 os        1 PSC     -0.271000
     14 O04         5.4350   -5.3940    4.1030 o         1 PSC     -0.369000
     15 O11        -0.6160   -3.7080    4.0850 o         1 PSC     -0.745000
     16 O12        -3.0650   -2.9700    4.7790 os        1 PSC     -0.731000
     17 O13        -1.0610   -1.7000    5.6350 o         1 PSC     -1.136500
     18 O14        -1.4930   -3.9590    6.5140 o         1 PSC     -1.136500
     19 C1          1.0980   -5.2720    0.9890 c2        1 PSC      0.316000
     20 C2          0.2090   -5.9240   -0.0900 c3        1 PSC     -0.159000
     21 C3          0.4040   -5.1970   -1.4220 c3        1 PSC     -0.157000
     22 C4         -0.8130   -5.4390   -2.3190 c3        1 PSC     -0.158000
     23 C5         -0.7300   -4.5270   -3.5530 c3        1 PSC     -0.157000
     24 C6         -2.1420   -4.0370   -3.9230 c3        1 PSC     -0.158000
     25 C7         -2.0420   -2.9810   -5.0300 c3        1 PSC     -0.156000
     26 C8         -3.2670   -2.0490   -4.9650 c3        1 PSC     -0.132000
     27 C9         -3.2520   -1.1000   -6.1750 c2        1 PSC     -0.170000
     28 C10        -4.0130    0.0620   -6.1580 c1        1 PSC     -0.166000
     29 C11        -4.8730    0.4020   -4.9290 c2        1 PSC     -0.105000
     30 C12        -5.5380    1.7940   -5.1320 c2        1 PSC     -0.165000
     31 C13        -6.1270    2.4290   -4.0790 c1        1 PSC     -0.166000
     32 C14        -6.7880    3.8080   -4.2820 c2        1 PSC     -0.131000
     33 C15        -6.9410    4.4960   -2.9420 c3        1 PSC     -0.155000
     34 C16        -8.0070    5.6210   -3.0590 c3        1 PSC     -0.158000
     35 C17        -8.1430    6.3360   -1.7260 c3        1 PSC     -0.159000
     36 C18        -9.4680    7.1040   -1.6920 c3        1 PSC     -0.210000
     37 C19         4.9940   -4.2840    4.3510 c2        1 PSC      0.311000
     38 C20         5.9360   -3.1800    4.8680 c3        1 PSC     -0.154000
     39 C21         7.2000   -3.1370    4.0030 c3        1 PSC     -0.163000
     40 C22         7.7500   -1.6860    3.9670 c3        1 PSC     -0.155000
     41 C23         8.5190   -1.4490    2.6210 c3        1 PSC     -0.158000
     42 C24         8.6740    0.1020    2.3680 c3        1 PSC     -0.157000
     43 C25         8.7800    0.3710    0.8340 c3        1 PSC     -0.156000
     44 C26         7.9830    1.6540    0.4770 c3        1 PSC     -0.159000
     45 C27         8.1320    1.9520   -1.0410 c3        1 PSC     -0.157000
     46 C28         6.7320    2.1830   -1.6630 c3        1 PSC     -0.158000
     47 C29         6.7220    3.5230   -2.4210 c3        1 PSC     -0.157000
     48 C30         5.2650    3.9130   -2.7680 c3        1 PSC     -0.158000
     49 C31         5.2590    5.2730   -3.5120 c3        1 PSC     -0.158000
     50 C32         3.9520    6.0640   -3.1530 c3        1 PSC     -0.158000
     51 C33         3.7750    7.2350   -4.1330 c3        1 PSC     -0.159000
     52 C34         2.8080    8.2520   -3.5400 c3        1 PSC     -0.210000
     53 H011        2.6870   -5.7430    4.5900 h1        1 PSC      0.137000
     54 H012        3.2740   -5.6470    3.0990 h1        1 PSC      0.137000
     55 H02         1.5250   -3.8470    2.8460 h1        1 PSC      0.147000
     56 H031        0.9410   -4.2090    5.2210 h1        1 PSC      0.096000
     57 H032        0.1190   -5.4750    4.6860 h1        1 PSC      0.096000
     58 H041       -3.6280   -1.7430    6.2550 h1        1 PSC      0.096000
     59 H042       -3.8420   -1.1450    4.7900 h1        1 PSC      0.096000
     60 H051       -5.5350   -2.9410    4.5140 hx        1 PSC      0.119000
     61 H052       -5.5080   -3.0020    6.1090 hx        1 PSC      0.119000
     62 H061       -6.5330    0.3380    6.6050 hx        1 PSC      0.139333
     63 H062       -5.0090    0.1390    6.1040 hx        1 PSC      0.139333
     64 H063       -5.6190   -0.8190    7.2390 hx        1 PSC      0.139333
     65 H071       -6.4110   -1.2610    3.4010 hx        1 PSC      0.139333
     66 H072       -7.0420    0.0510    4.0910 hx        1 PSC      0.139333
     67 H073       -5.4530   -0.1180    3.9910 hx        1 PSC      0.139333
     68 H081       -8.2310   -0.9480    5.7200 hx        1 PSC      0.139333
     69 H082       -7.6120   -2.1280    6.6130 hx        1 PSC      0.139333
     70 H083       -7.9130   -2.3740    5.0500 hx        1 PSC      0.139333
     71 H21        -0.7270   -5.8620    0.1800 hc        1 PSC      0.119500
     72 H22         0.4560   -6.8580   -0.1910 hc        1 PSC      0.119500
     73 H31         0.5030   -4.2370   -1.2580 hc        1 PSC      0.094500
     74 H32         1.2100   -5.5380   -1.8650 hc        1 PSC      0.094500
     75 H41        -1.6330   -5.2380   -1.8180 hc        1 PSC      0.080500
     76 H42        -0.8270   -6.3810   -2.6070 hc        1 PSC      0.080500
     77 H51        -0.1630   -3.7640   -3.3540 hc        1 PSC      0.081500
     78 H52        -0.3500   -5.0310   -4.3080 hc        1 PSC      0.081500
     79 H61        -2.6800   -4.7970   -4.2430 hc        1 PSC      0.079000
     80 H62        -2.5670   -3.6450   -3.1380 hc        1 PSC      0.079000
     81 H71        -2.0150   -3.4240   -5.9030 hc        1 PSC      0.081000
     82 H72        -1.2270   -2.4550   -4.9060 hc        1 PSC      0.081000
     83 H81        -3.2350   -1.5260   -4.1430 hc        1 PSC      0.086500
     84 H82        -4.0850   -2.5840   -4.9800 hc        1 PSC      0.086500
     85 H9         -2.7030   -1.3160   -6.9620 ha        1 PSC      0.122000
     86 H10        -4.0020    0.6690   -6.9340 ha        1 PSC      0.124000
     87 H111       -4.3110    0.4240   -4.1350 ha        1 PSC      0.093000
     88 H112       -5.5680   -0.2790   -4.8180 ha        1 PSC      0.093000
     89 H12        -5.5120    2.2260   -6.0130 ha        1 PSC      0.121000
     90 H1         -6.1100    2.0200   -3.1870 ha        1 PSC      0.120000
     91 H141       -7.6710    3.6900   -4.6920 ha        1 PSC      0.085000
     92 H142       -6.2310    4.3510   -4.8640 ha        1 PSC      0.085000
     93 H151       -7.2280    3.8410   -2.2690 hc        1 PSC      0.081000
     94 H152       -6.0840    4.8840   -2.6750 hc        1 PSC      0.081000
     95 H161       -7.7300    6.2610   -3.7450 hc        1 PSC      0.078500
     96 H162       -8.8740    5.2270   -3.3090 hc        1 PSC      0.078500
     97 H171       -7.4000    6.9620   -1.6140 hc        1 PSC      0.078000
     98 H172       -8.1270    5.6750   -0.9950 hc        1 PSC      0.078000
     99 H181       -9.4260    7.8540   -2.3180 hc        1 PSC      0.072000
    100 H182      -10.1980    6.5060   -1.9490 hc        1 PSC      0.072000
    101 H183       -9.6290    7.4480   -0.7750 hc        1 PSC      0.072000
    102 H201        6.1820   -3.3700    5.7930 hc        1 PSC      0.113000
    103 H202        5.4750   -2.3060    4.8220 hc        1 PSC      0.113000
    104 H211        7.8720   -3.7300    4.3810 hc        1 PSC      0.103000
    105 H212        6.9840   -3.4240    3.1000 hc        1 PSC      0.103000
    106 H221        8.3610   -1.5510    4.7200 hc        1 PSC      0.078000
    107 H222        7.0010   -1.0490    4.0340 hc        1 PSC      0.078000
    108 H231        9.4070   -1.8620    2.6740 hc        1 PSC      0.083000
    109 H232        8.0140   -1.8540    1.8780 hc        1 PSC      0.083000
    110 H241        9.4800    0.4240    2.8110 hc        1 PSC      0.078000
    111 H242        7.8890    0.5740    2.7310 hc        1 PSC      0.078000
    112 H251        8.4120   -0.3860    0.3450 hc        1 PSC      0.077000
    113 H252        9.7160    0.4920    0.5890 hc        1 PSC      0.077000
    114 H261        8.3300    2.4050    0.9910 hc        1 PSC      0.081000
    115 H262        7.0320    1.5200    0.6930 hc        1 PSC      0.081000
    116 H271        8.6790    2.7550   -1.1630 hc        1 PSC      0.077500
    117 H272        8.5640    1.1920   -1.4830 hc        1 PSC      0.077500
    118 H281        6.0590    2.2050   -0.9530 hc        1 PSC      0.079500
    119 H282        6.5290    1.4610   -2.2780 hc        1 PSC      0.079500
    120 H291        7.1250    4.2250   -1.8530 hc        1 PSC      0.078500
    121 H292        7.2400    3.4330   -3.2460 hc        1 PSC      0.078500
    122 H301        4.7420    3.9890   -1.9440 hc        1 PSC      0.078500
    123 H302        4.8730    3.2300   -3.3380 hc        1 PSC      0.078500
    124 H311        6.0430    5.7960   -3.2400 hc        1 PSC      0.078500
    125 H312        5.2910    5.1150   -4.4850 hc        1 PSC      0.078500
    126 H321        3.1730    5.4600   -3.2190 hc        1 PSC      0.078500
    127 H322        4.0200    6.4100   -2.2400 hc        1 PSC      0.078500
    128 H331        3.4150    6.8980   -4.9830 hc        1 PSC      0.078000
    129 H332        4.6300    7.6570   -4.2890 hc        1 PSC      0.078000
    130 H341        1.8980    7.8570   -3.4980 hc        1 PSC      0.071000
    131 H342        3.0990    8.4930   -2.6420 hc        1 PSC      0.071000
    132 H343        2.7900    9.0480   -4.1010 hc        1 PSC      0.071000
@<TRIPOS>BOND
     1    1   16 1   
     2    1   17 1   
     3    1   18 1   
     4    2    7 1   
     5    2    8 1   
     6    2    9 1   
     7    2   10 1   
     8    3    4 1   
     9    3   13 1   
    10    3   53 1   
    11    3   54 1   
    12    4    5 1   
    13    4   11 1   
    14    4   55 1   
    15    5   15 1   
    16    5   56 1   
    17    5   57 1   
    18    6    7 1   
    19    6   16 1   
    20    6   58 1   
    21    6   59 1   
    22    7   60 1   
    23    7   61 1   
    24    8   62 1   
    25    8   63 1   
    26    8   64 1   
    27    9   65 1   
    28    9   66 1   
    29    9   67 1   
    30   10   68 1   
    31   10   69 1   
    32   10   70 1   
    33   11   19 1   
    34   12   19 1   
    35   13   37 1   
    36   14   37 1   
    37   19   20 1   
    38   20   21 1   
    39   20   71 1   
    40   20   72 1   
    41   21   22 1   
    42   21   73 1   
    43   21   74 1   
    44   22   23 1   
    45   22   75 1   
    46   22   76 1   
    47   23   24 1   
    48   23   77 1   
    49   23   78 1   
    50   24   25 1   
    51   24   79 1   
    52   24   80 1   
    53   25   26 1   
    54   25   81 1   
    55   25   82 1   
    56   26   27 1   
    57   26   83 1   
    58   26   84 1   
    59   27   28 1   
    60   27   85 1   
    61   28   86 1   
    62   29   30 1   
    63   29   87 1   
    64   29   88 1   
    65   30   31 1   
    66   30   89 1   
    67   31   90 1   
    68   32   33 1   
    69   32   91 1   
    70   32   92 1   
    71   33   34 1   
    72   33   93 1   
    73   33   94 1   
    74   34   35 1   
    75   34   95 1   
    76   34   96 1   
    77   35   36 1   
    78   35   97 1   
    79   35   98 1   
    80   36   99 1   
    81   36  100 1   
    82   36  101 1   
    83   37   38 1   
    84   38   39 1   
    85   38  102 1   
    86   38  103 1   
    87   39   40 1   
    88   39  104 1   
    89   39  105 1   
    90   40   41 1   
    91   40  106 1   
    92   40  107 1   
    93   41   42 1   
    94   41  108 1   
    95   41  109 1   
    96   42   43 1   
    97   42  110 1   
    98   42  111 1   
    99   43   44 1   
   100   43  112 1   
   101   43  113 1   
   102   44   45 1   
   103   44  114 1   
   104   44  115 1   
   105   45   46 1   
   106   45  116 1   
   107   45  117 1   
   108   46   47 1   
   109   46  118 1   
   110   46  119 1   
   111   47   48 1   
   112   47  120 1   
   113   47  121 1   
   114   48   49 1   
   115   48  122 1   
   116   48  123 1   
   117   49   50 1   
   118   49  124 1   
   119   49  125 1   
   120   50   51 1   
   121   50  126 1   
   122   50  127 1   
   123   51   52 1   
   124   51  128 1   
   125   51  129 1   
   126   52  130 1   
   127   52  131 1   
   128   52  132 1   
@<TRIPOS>SUBSTRUCTURE
     1 PSC         1 TEMP              0 ****  ****    0 ROOT
