@<TRIPOS>MOLECULE
PSD
   52    55     1     0     0
SMALL
bcc


@<TRIPOS>ATOM
      1 CB          1.0040   -1.6570    1.9820 c3        1 PSD     -0.096400
      2 CG          2.1610   -0.7000    2.2350 c3        1 PSD     -0.105400
      3 C          -1.3150   -0.7070    1.8550 c         1 PSD      0.540100
      4 O          -1.9330   -1.6250    2.3890 o         1 PSD     -0.436100
      5 N           0.5920    0.3990    0.7080 n3        1 PSD     -0.832200
      6 CD          1.8230    0.5910    1.4710 c3        1 PSD      0.145800
      7 CA         -0.0030   -0.8810    1.0970 c3        1 PSD      0.090500
      8 N10        -1.9500    0.6020    1.9670 n4        1 PSD     -0.591900
      9 P          -3.6380    0.3010    2.6960 p5        1 PSD      1.290700
     10 O1P        -4.2580   -0.5240    1.6580 o         1 PSD     -0.735500
     11 O2P        -3.9660    1.6710    3.1140 o         1 PSD     -0.735500
     12 O5'        -3.2230   -0.5160    4.0450 os        1 PSD     -0.563200
     13 C5'        -3.5650    0.0210    5.2940 c3        1 PSD      0.145400
     14 C4'        -4.5520   -0.8960    6.0230 c3        1 PSD      0.072100
     15 O4'        -4.1420   -2.2690    5.9470 os        1 PSD     -0.379600
     16 C1'        -3.4180   -2.6390    7.1200 c3        1 PSD      0.218800
     17 N9         -2.0010   -2.7150    6.8350 na        1 PSD     -0.289000
     18 C4         -1.0040   -3.0640    7.7560 ca        1 PSD      0.442800
     19 N3         -1.0750   -3.3270    9.0970 nb        1 PSD     -0.748000
     20 C2          0.1300   -3.6370    9.6280 ca        1 PSD      0.681900
     21 N1          1.3520   -3.7200    9.0380 nb        1 PSD     -0.788000
     22 C6          1.4330   -3.4400    7.6950 ca        1 PSD      0.742200
     23 N6          2.6490   -3.4290    7.0460 nh        1 PSD     -0.944500
     24 C5          0.2340   -3.1030    6.9840 ca        1 PSD     -0.217200
     25 N7         -0.0320   -2.7910    5.6410 nc        1 PSD     -0.585100
     26 C8         -1.3550   -2.5740    5.5830 cd        1 PSD      0.437700
     27 C2'        -3.7840   -1.6030    8.2370 c3        1 PSD      0.080100
     28 O2'        -4.5950   -2.2350    9.2030 oh        1 PSD     -0.588800
     29 C3'        -4.6270   -0.5210    7.5210 c3        1 PSD      0.129100
     30 O3'        -5.9550   -0.4480    7.9750 oh        1 PSD     -0.571800
     31 HCB1        0.5300   -1.9940    2.9390 hc        1 PSD      0.081700
     32 HCB2        1.3470   -2.5700    1.4370 hc        1 PSD      0.081700
     33 HCG1        2.2760   -0.4890    3.3260 hc        1 PSD      0.063200
     34 HCG2        3.1240   -1.1320    1.8680 hc        1 PSD      0.063200
     35 HN          0.7660    0.4180   -0.2780 hn        1 PSD      0.379800
     36 HCD1        2.6720    0.8930    0.8010 h1        1 PSD      0.056700
     37 HCD2        1.6410    1.4340    2.1930 h1        1 PSD      0.056700
     38 HCA        -0.2770   -1.5000    0.1900 h1        1 PSD      0.097700
     39 HN01       -2.0410    1.0260    1.0490 hn        1 PSD      0.452300
     40 H5'1       -2.6130    0.0860    5.8950 h1        1 PSD      0.063700
     41 H5'2       -4.0170    1.0460    5.1820 h1        1 PSD      0.063700
     42 HC'4       -5.5630   -0.8780    5.5350 h1        1 PSD      0.103700
     43 HC'1       -3.7870   -3.6740    7.3940 h2        1 PSD      0.104700
     44 HC2         0.1260   -3.8660   10.7160 h5        1 PSD      0.052100
     45 HN61        2.6300   -3.4500    6.0550 hn        1 PSD      0.434800
     46 HN62        3.4390   -3.8170    7.5020 hn        1 PSD      0.434800
     47 HC8        -1.9420   -2.2990    4.6860 h5        1 PSD      0.122800
     48 HC'2       -2.8760   -1.1490    8.7140 h1        1 PSD      0.079700
     49 HO'2       -4.0030   -2.7440    9.7730 ho        1 PSD      0.430000
     50 HC'3       -4.2070    0.5050    7.7090 h1        1 PSD      0.094700
     51 HO'3       -6.2950   -1.3490    8.0560 ho        1 PSD      0.424000
     52 H102       -1.3920    1.2260    2.5400 hn        1 PSD      0.452300
@<TRIPOS>BOND
     1    1    2 1   
     2    1    7 1   
     3    1   31 1   
     4    1   32 1   
     5    2    6 1   
     6    2   33 1   
     7    2   34 1   
     8    3    4 2   
     9    3    7 1   
    10    3    8 1   
    11    5    6 1   
    12    5    7 1   
    13    5   35 1   
    14    6   36 1   
    15    6   37 1   
    16    7   38 1   
    17    8    9 1   
    18    8   39 1   
    19    8   52 1   
    20    9   10 1   
    21    9   11 1   
    22    9   12 1   
    23   12   13 1   
    24   13   14 1   
    25   13   40 1   
    26   13   41 1   
    27   14   15 1   
    28   14   29 1   
    29   14   42 1   
    30   15   16 1   
    31   16   17 1   
    32   16   27 1   
    33   16   43 1   
    34   17   18 1   
    35   17   26 1   
    36   18   19 ar  
    37   18   24 ar  
    38   19   20 ar  
    39   20   21 ar  
    40   20   44 1   
    41   21   22 ar  
    42   22   23 1   
    43   22   24 ar  
    44   23   45 1   
    45   23   46 1   
    46   24   25 1   
    47   25   26 2   
    48   26   47 1   
    49   27   28 1   
    50   27   29 1   
    51   27   48 1   
    52   28   49 1   
    53   29   30 1   
    54   29   50 1   
    55   30   51 1   
@<TRIPOS>SUBSTRUCTURE
     1 PSD         1 TEMP              0 ****  ****    0 ROOT
