@<TRIPOS>MOLECULE
PSD
   51    48     1     0     0
SMALL
bcc


@<TRIPOS>ATOM
      1 CB         -4.9090    3.1940   -3.6510 c3        1 PSD     -0.169000
      2 CG         -5.8410    4.3940   -3.8610 c3        1 PSD     -0.173000
      3 C          -4.0240    2.3140   -1.4220 c1        1 PSD      0.287000
      4 O          -3.7080    3.0520   -0.4260 o         1 PSD     -0.381000
      5 N          -6.0360    3.5400   -1.6770 n3        1 PSD     -0.276000
      6 CD         -6.7320    4.3110   -2.9220 c3        1 PSD     -0.085000
      7 CA         -5.2800    2.5820   -2.1860 c2        1 PSD     -0.055000
      8 N10        -3.1890    1.2460   -1.8020 n3        1 PSD     -0.803000
      9 P          -1.5770    1.2680   -1.4000 p5        1 PSD      1.970000
     10 O1P        -0.7920    2.0800   -2.4620 o         1 PSD     -0.834500
     11 O2P        -1.4040    1.9130   -0.0410 o         1 PSD     -0.834500
     12 O5'        -1.0320   -0.1930   -1.3530 os        1 PSD     -0.755000
     13 C5'         0.3760   -0.3890   -1.1410 c3        1 PSD      0.052000
     14 C4'         0.5920   -1.2830    0.0810 c3        1 PSD     -0.049000
     15 O4'         1.7610   -1.8630    0.0190 os        1 PSD     -0.277000
     16 C1'         2.2780   -1.9790    1.5330 c3        1 PSD      0.121000
     17 N9          3.6530   -2.0770    1.5600 n3        1 PSD     -0.184000
     18 C4          4.3090   -3.0440    2.2970 c1        1 PSD      0.062000
     19 N3          3.8530   -4.0220    3.1320 n1        1 PSD     -0.193000
     20 C2          4.7320   -4.9070    3.6940 c1        1 PSD      0.003000
     21 N1          6.0610   -4.8130    3.4210 n1        1 PSD     -0.274000
     22 C6          6.5130   -3.8500    2.5980 c1        1 PSD      0.209000
     23 N6          7.9340   -3.9690    2.5500 n2        1 PSD     -0.343000
     24 C5          5.6250   -2.9500    2.0260 c1        1 PSD     -0.228000
     25 N7          5.8010   -1.9320    1.1240 n1        1 PSD     -0.138000
     26 C8          4.5740   -1.4000    0.8440 c1        1 PSD     -0.024000
     27 C2'         1.8800   -0.8580    2.1530 c3        1 PSD      0.000000
     28 O2'         1.5420   -1.1460    3.5700 oh        1 PSD     -0.317000
     29 C3'         0.6310   -0.4080    1.3920 c3        1 PSD      0.004000
     30 O3'        -0.4730   -0.6300    2.1350 oh        1 PSD     -0.368000
     31 HCB1       -5.0680    2.4940   -4.3770 hc        1 PSD      0.095500
     32 HCB2       -3.9410    3.4950   -3.6660 hc        1 PSD      0.095500
     33 HCG1       -5.3450    5.2220   -3.7810 hc        1 PSD      0.082000
     34 HCG2       -6.2940    4.3370   -4.7850 hc        1 PSD      0.082000
     35 HN         -5.4980    4.1420   -1.2000 hn        1 PSD      0.179000
     36 HCD1       -7.4960    3.8120   -3.2350 h1        1 PSD      0.074500
     37 HCD2       -7.0150    5.2210   -2.6420 h1        1 PSD      0.074500
     38 HCA        -5.7400    1.6800   -2.1420 h4        1 PSD      0.113000
     39 HN01       -3.5260    0.5650   -2.3740 hn        1 PSD      0.226000
     40 H5'1        0.8060    0.4850   -0.9890 h1        1 PSD      0.068000
     41 H5'2        0.7760   -0.8190   -1.9360 h1        1 PSD      0.068000
     42 HC'4       -0.1250   -1.9640    0.1410 h1        1 PSD      0.130000
     43 HC'1        1.8800   -2.7610    1.9640 h2        1 PSD      0.153000
     44 HC2         4.3990   -5.6210    4.3030 ha        1 PSD      0.178000
     45 HN61        8.3360   -4.5920    3.0150 hn        1 PSD      0.223500
     46 HN62        8.3870   -3.4690    2.0260 hn        1 PSD      0.223500
     47 HC8         4.3960   -0.6510    0.2430 DU        1 PSD      0.224000
     48 HC'2        2.6080   -0.1410    2.0970 h1        1 PSD      0.126000
     49 HO'2        1.4970   -0.3930    4.0210 ho        1 PSD      0.226000
     50 HC'3        0.7040    0.5840    1.1510 h1        1 PSD      0.129000
     51 HO'3       -0.8590    0.1940    2.3800 ho        1 PSD      0.285000
@<TRIPOS>BOND
     1    1    2 1   
     2    1    7 1   
     3    1   31 1   
     4    1   32 1   
     5    2    6 1   
     6    2   33 1   
     7    2   34 1   
     8    3    4 1   
     9    3    8 1   
    10    5    6 1   
    11    5    7 1   
    12    5   35 1   
    13    6   36 1   
    14    6   37 1   
    15    7   38 1   
    16    8    9 1   
    17    8   39 1   
    18    9   10 1   
    19    9   11 1   
    20    9   12 1   
    21   12   13 1   
    22   13   14 1   
    23   13   40 1   
    24   13   41 1   
    25   14   15 1   
    26   14   29 1   
    27   14   42 1   
    28   15   16 1   
    29   16   17 1   
    30   16   27 1   
    31   16   43 1   
    32   17   18 1   
    33   17   26 1   
    34   18   24 1   
    35   19   20 1   
    36   20   44 1   
    37   21   22 1   
    38   22   24 1   
    39   23   45 1   
    40   23   46 1   
    41   25   26 1   
    42   27   28 1   
    43   27   29 1   
    44   27   48 1   
    45   28   49 1   
    46   29   30 1   
    47   29   50 1   
    48   30   51 1   
@<TRIPOS>SUBSTRUCTURE
     1 PSD         1 TEMP              0 ****  ****    0 ROOT
