@<TRIPOS>MOLECULE
PSD
   52    55     1     0     0
SMALL
bcc


@<TRIPOS>ATOM
      1 CB          0.9800   -1.6420    1.9680 c3        1 PSD     -0.096400
      2 CG          2.1680   -0.7340    2.2510 c3        1 PSD     -0.105400
      3 C          -1.3060   -0.6140    1.8740 c         1 PSD      0.539100
      4 O          -1.9700   -1.5330    2.3480 o         1 PSD     -0.435100
      5 N           0.6370    0.4680    0.7660 n7        1 PSD     -0.832200
      6 CD          1.8740    0.5930    1.5320 c3        1 PSD      0.145800
      7 CA          0.0010   -0.8030    1.1090 c3        1 PSD      0.090500
      8 N10        -1.8780    0.7150    2.0660 ny        1 PSD     -0.591900
      9 P          -3.5710    0.4550    2.7940 p5        1 PSD      1.291700
     10 O1P        -4.2470   -0.2590    1.7100 o         1 PSD     -0.736000
     11 O2P        -3.8200    1.8080    3.3140 o         1 PSD     -0.736000
     12 O5'        -3.1930   -0.4780    4.0780 os        1 PSD     -0.562200
     13 C5'        -3.4740   -0.0050    5.3660 c3        1 PSD      0.144400
     14 C4'        -4.4850   -0.9240    6.0610 c3        1 PSD      0.111100
     15 O4'        -4.1320   -2.3080    5.9140 os        1 PSD     -0.385600
     16 C1'        -3.4330   -2.7750    7.0700 c3        1 PSD      0.221800
     17 N9         -2.0070   -2.7660    6.8220 na        1 PSD     -0.290000
     18 C4         -0.9920   -3.1290    7.7200 ca        1 PSD      0.449800
     19 N3         -1.0340   -3.4440    9.0490 nb        1 PSD     -0.726000
     20 C2          0.1840   -3.7440    9.5540 ca        1 PSD      0.677900
     21 N1          1.4020   -3.7730    8.9460 nb        1 PSD     -0.786000
     22 C6          1.4560   -3.4410    7.6150 ca        1 PSD      0.736200
     23 N6          2.6640   -3.3680    6.9510 nv        1 PSD     -0.941500
     24 C5          0.2390   -3.1110    6.9330 ca        1 PSD     -0.219200
     25 N7         -0.0480   -2.7610    5.6040 nc        1 PSD     -0.585100
     26 C8         -1.3750   -2.5760    5.5670 cd        1 PSD      0.431700
     27 C2'        -3.8940   -1.8660    8.2570 c3        1 PSD      0.082100
     28 O2'        -4.8420   -2.5370    9.0520 oh        1 PSD     -0.576800
     29 C3'        -4.5240   -0.6260    7.5740 c3        1 PSD      0.079100
     30 O3'        -5.8840   -0.4890    7.9400 oh        1 PSD     -0.590800
     31 HCB1        1.2920   -2.5480    1.3930 hc        1 PSD      0.081700
     32 HCB2        0.4950   -1.9940    2.9140 hc        1 PSD      0.081700
     33 HCG1        2.2910   -0.5640    3.3490 hc        1 PSD      0.063200
     34 HCG2        3.1160   -1.1860    1.8690 hc        1 PSD      0.063200
     35 HN          0.8110    0.5180   -0.2200 hn        1 PSD      0.379800
     36 HCD1        1.7210    1.4170    2.2830 h1        1 PSD      0.056700
     37 HCD2        2.7330    0.8890    0.8720 h1        1 PSD      0.056700
     38 HCA        -0.2920   -1.3810    0.1820 h1        1 PSD      0.096700
     39 HN01       -1.9570    1.1930    1.1740 hn        1 PSD      0.452800
     40 H5'1       -2.5040   -0.0210    5.9420 h1        1 PSD      0.064700
     41 H5'2       -3.8820    1.0430    5.3330 h1        1 PSD      0.064700
     42 HC'4       -5.5030   -0.8420    5.5900 h1        1 PSD      0.110700
     43 HC'1       -3.7730   -3.8430    7.2230 h2        1 PSD      0.107700
     44 HC2         0.1980   -4.0140   10.6320 h5        1 PSD      0.053100
     45 HN61        3.4660   -3.7650    7.3810 hn        1 PSD      0.431300
     46 HN62        2.6270   -3.3780    5.9600 hn        1 PSD      0.431300
     47 HC8        -1.9760   -2.2890    4.6820 h5        1 PSD      0.121800
     48 HC'2       -3.0630   -1.5990    8.9600 h1        1 PSD      0.120700
     49 HO'2       -5.6060   -2.7390    8.4910 ho        1 PSD      0.418000
     50 HC'3       -3.9610    0.3080    7.8310 h1        1 PSD      0.065700
     51 HO'3       -5.9080   -0.4110    8.9040 ho        1 PSD      0.420000
     52 H102       -1.2860    1.2790    2.6660 hn        1 PSD      0.452800
@<TRIPOS>BOND
     1    1    2 1   
     2    1    7 1   
     3    1   31 1   
     4    1   32 1   
     5    2    6 1   
     6    2   33 1   
     7    2   34 1   
     8    3    4 2   
     9    3    7 1   
    10    3    8 1   
    11    5    6 1   
    12    5    7 1   
    13    5   35 1   
    14    6   36 1   
    15    6   37 1   
    16    7   38 1   
    17    8    9 1   
    18    8   39 1   
    19    8   52 1   
    20    9   10 1   
    21    9   11 1   
    22    9   12 1   
    23   12   13 1   
    24   13   14 1   
    25   13   40 1   
    26   13   41 1   
    27   14   15 1   
    28   14   29 1   
    29   14   42 1   
    30   15   16 1   
    31   16   17 1   
    32   16   27 1   
    33   16   43 1   
    34   17   18 1   
    35   17   26 1   
    36   18   19 ar  
    37   18   24 ar  
    38   19   20 ar  
    39   20   21 ar  
    40   20   44 1   
    41   21   22 ar  
    42   22   23 1   
    43   22   24 ar  
    44   23   45 1   
    45   23   46 1   
    46   24   25 1   
    47   25   26 2   
    48   26   47 1   
    49   27   28 1   
    50   27   29 1   
    51   27   48 1   
    52   28   49 1   
    53   29   30 1   
    54   29   50 1   
    55   30   51 1   
@<TRIPOS>SUBSTRUCTURE
     1 PSD         1 TEMP              0 ****  ****    0 ROOT
