@<TRIPOS>MOLECULE
PSD
   53    56     1     0     0
SMALL
bcc


@<TRIPOS>ATOM
      1 CB          0.1820   -1.1630    0.2780 c3        1 PSD     -0.105400
      2 CG          1.6570   -1.5150    0.4270 c3        1 PSD     -0.100400
      3 C          -0.8230    0.1830    2.1180 c         1 PSD      0.570100
      4 O          -0.5590   -0.3800    3.1750 o         1 PSD     -0.459100
      5 N           1.3590    0.7880    1.2070 n3        1 PSD     -0.804200
      6 CD          2.3200   -0.3090    1.1130 c3        1 PSD      0.148800
      7 CA          0.0370    0.2690    0.8570 c3        1 PSD      0.113500
      8 N10        -2.1840    0.7420    2.0890 n4        1 PSD     -0.630900
      9 P          -3.1880   -0.6640    2.7880 p5        1 PSD      1.299700
     10 O1P        -4.5410   -0.1130    2.6710 o         1 PSD     -0.728500
     11 O2P        -2.5190   -1.7970    2.1430 o         1 PSD     -0.728500
     12 O5'        -2.7880   -0.5780    4.3720 os        1 PSD     -0.565200
     13 C5'        -3.7010   -0.0210    5.2740 c3        1 PSD      0.148400
     14 C4'        -4.4770   -1.0960    6.0470 c3        1 PSD      0.070100
     15 O4'        -3.7050   -2.2990    6.1910 os        1 PSD     -0.380600
     16 C1'        -3.2070   -2.4360    7.5190 c3        1 PSD      0.209800
     17 N9         -1.7510   -2.4880    7.4830 na        1 PSD     -0.264000
     18 C4         -0.9570   -3.1670    8.4200 ca        1 PSD      0.453800
     19 N3         -1.2510   -3.8240    9.5660 nb        1 PSD     -0.608000
     20 C2         -0.1670   -4.3490   10.1990 ca        1 PSD      0.662900
     21 N1          1.1440   -4.2990    9.8300 nb        1 PSD     -0.683000
     22 C6          1.4250   -3.6430    8.6750 ca        1 PSD      0.498200
     23 N6          2.8210   -3.5610    8.2070 n4        1 PSD     -0.812300
     24 C5          0.4270   -3.0370    7.8960 ca        1 PSD     -0.125200
     25 N7          0.4210   -2.3290    6.6940 nc        1 PSD     -0.608100
     26 C8         -0.8790   -2.0330    6.4710 cd        1 PSD      0.533700
     27 C2'        -3.7860   -1.2620    8.3830 c3        1 PSD      0.129100
     28 O2'        -4.2790   -1.7370    9.6010 oh        1 PSD     -0.561800
     29 C3'        -4.8440   -0.6090    7.4620 c3        1 PSD      0.087100
     30 O3'        -6.1040   -1.1110    7.8590 oh        1 PSD     -0.594800
     31 HCB1       -0.1270   -1.1610   -0.7950 hc        1 PSD      0.091700
     32 HCB2       -0.4740   -1.8910    0.8250 hc        1 PSD      0.091700
     33 HCG1        2.1230   -1.7060   -0.5710 hc        1 PSD      0.062700
     34 HCG2        1.7870   -2.4360    1.0460 hc        1 PSD      0.062700
     35 HN          1.6060    1.5460    0.5990 hn        1 PSD      0.377800
     36 HCD1        3.2440    0.0110    0.5620 h1        1 PSD      0.058700
     37 HCD2        2.6170   -0.5780    2.1640 h1        1 PSD      0.058700
     38 HCA        -0.4710    0.9420    0.1080 h1        1 PSD      0.064700
     39 HN01       -2.2510    1.5710    2.6660 hn        1 PSD      0.445300
     40 H5'1       -3.0920    0.5980    5.9930 h1        1 PSD      0.061200
     41 H5'2       -4.4400    0.6350    4.7320 h1        1 PSD      0.061200
     42 HC'4       -5.3880   -1.4230    5.4710 h1        1 PSD      0.114700
     43 HC'1       -3.5710   -3.4370    7.9060 h2        1 PSD      0.120700
     44 HC2        -0.3750   -4.8950   11.1480 h5        1 PSD      0.096100
     45 HN61        2.8680   -3.9610    7.2610 hn        1 PSD      0.474467
     46 HN62        3.0930   -2.5720    8.1670 hn        1 PSD      0.474467
     47 HC8        -1.2660   -1.4950    5.5750 h5        1 PSD      0.154800
     48 HC'2       -2.9970   -0.5110    8.6610 h1        1 PSD      0.096700
     49 HO'2       -5.1290   -2.1790    9.4470 ho        1 PSD      0.439000
     50 HC'3       -4.8170    0.5090    7.5420 h1        1 PSD      0.074700
     51 HO'3       -6.7800   -0.5660    7.4360 ho        1 PSD      0.434000
     52 H102       -2.4890    0.9770    1.1540 hn        1 PSD      0.445300
     53 H63         3.4550   -4.0720    8.8340 hn        1 PSD      0.474467
@<TRIPOS>BOND
     1    1    2 1   
     2    1    7 1   
     3    1   31 1   
     4    1   32 1   
     5    2    6 1   
     6    2   33 1   
     7    2   34 1   
     8    3    4 2   
     9    3    7 1   
    10    3    8 1   
    11    5    6 1   
    12    5    7 1   
    13    5   35 1   
    14    6   36 1   
    15    6   37 1   
    16    7   38 1   
    17    8    9 1   
    18    8   39 1   
    19    8   52 1   
    20    9   10 1   
    21    9   11 1   
    22    9   12 1   
    23   12   13 1   
    24   13   14 1   
    25   13   40 1   
    26   13   41 1   
    27   14   15 1   
    28   14   29 1   
    29   14   42 1   
    30   15   16 1   
    31   16   17 1   
    32   16   27 1   
    33   16   43 1   
    34   17   18 1   
    35   17   26 1   
    36   18   19 ar  
    37   18   24 ar  
    38   19   20 ar  
    39   20   21 ar  
    40   20   44 1   
    41   21   22 ar  
    42   22   23 1   
    43   22   24 ar  
    44   23   45 1   
    45   23   46 1   
    46   23   53 1   
    47   24   25 1   
    48   25   26 2   
    49   26   47 1   
    50   27   28 1   
    51   27   29 1   
    52   27   48 1   
    53   28   49 1   
    54   29   30 1   
    55   29   50 1   
    56   30   51 1   
@<TRIPOS>SUBSTRUCTURE
     1 PSD         1 TEMP              0 ****  ****    0 ROOT
