@<TRIPOS>MOLECULE
PSD
   51    54     1     0     0
SMALL
bcc


@<TRIPOS>ATOM
      1 CB          3.1150   -0.1390   -4.8310 c3        1 PSD     -0.094400
      2 CG          4.2400    0.2690   -3.8900 c3        1 PSD     -0.104400
      3 C           0.7430    0.5030   -4.2310 c         1 PSD      0.661100
      4 O           0.3640   -0.6650   -4.4580 o         1 PSD     -0.610100
      5 N           2.6500    2.1260   -4.0220 n3        1 PSD     -0.796200
      6 CD          3.8380    1.6430   -3.3260 c3        1 PSD      0.147800
      7 CA          2.0800    1.0110   -4.7890 c3        1 PSD      0.086500
      8 N10        -0.1100    1.2980   -3.5280 n         1 PSD     -0.657900
      9 P          -1.6080    0.7010   -3.1960 p5        1 PSD      1.417800
     10 O1P        -2.2060    1.6360   -2.1900 o         1 PSD     -0.839500
     11 O2P        -2.3500    0.2980   -4.4040 o         1 PSD     -0.839500
     12 O5'        -1.3810   -0.6450   -2.2280 os        1 PSD     -0.549200
     13 C5'        -0.9370   -0.4310   -0.9330 c3        1 PSD      0.203400
     14 C4'        -2.1030   -0.4240    0.0720 c3        1 PSD      0.065100
     15 O4'        -1.7290   -1.1870    1.2380 os        1 PSD     -0.419600
     16 C1'        -1.7470   -0.3840    2.4160 c3        1 PSD      0.212800
     17 N9         -0.3920   -0.1890    2.9000 na        1 PSD     -0.264000
     18 C4          0.0550   -0.3580    4.2170 ca        1 PSD      0.452800
     19 N3         -0.6160   -0.6730    5.3680 nb        1 PSD     -0.715000
     20 C2          0.1960   -0.7410    6.4440 ca        1 PSD      0.665900
     21 N1          1.5410   -0.5450    6.5480 nb        1 PSD     -0.799000
     22 C6          2.2180   -0.2090    5.4040 ca        1 PSD      0.728200
     23 N6          3.5680    0.0950    5.4390 nh        1 PSD     -0.943500
     24 C5          1.4970   -0.1170    4.1700 ca        1 PSD     -0.219200
     25 N7          1.8930    0.1610    2.8540 nc        1 PSD     -0.570100
     26 C8          0.7610    0.1020    2.1340 cd        1 PSD      0.429700
     27 C2'        -2.4900    0.9530    2.0720 c3        1 PSD      0.110100
     28 O2'        -3.7580    0.9340    2.6840 oh        1 PSD     -0.590800
     29 C3'        -2.5140    0.9900    0.5300 c3        1 PSD      0.117100
     30 O3'        -3.8240    1.2950    0.1100 oh        1 PSD     -0.637800
     31 HCB1        2.6410   -1.1020   -4.5160 hc        1 PSD      0.064700
     32 HCB2        3.4920   -0.2700   -5.8740 hc        1 PSD      0.064700
     33 HCG1        4.3610   -0.4700   -3.0620 hc        1 PSD      0.041700
     34 HCG2        5.2150    0.3360   -4.4320 hc        1 PSD      0.041700
     35 HN          2.8890    2.8740   -4.6460 hn        1 PSD      0.347800
     36 HCD1        3.5710    1.5470   -2.2380 h1        1 PSD      0.043700
     37 HCD2        4.6850    2.3740   -3.4090 h1        1 PSD      0.043700
     38 HCA         1.8390    1.3420   -5.8420 h1        1 PSD      0.063700
     39 HN01        0.1850    2.1960   -3.2430 hn        1 PSD      0.322500
     40 H5'1       -0.3710    0.5400   -0.8680 h1        1 PSD      0.016200
     41 H5'2       -0.2470   -1.2830   -0.6660 h1        1 PSD      0.016200
     42 HC'4       -2.9820   -0.9700   -0.3690 h1        1 PSD      0.098700
     43 HC'1       -2.3150   -0.9710    3.1970 h2        1 PSD      0.113700
     44 HC2        -0.3060   -1.0020    7.4000 h5        1 PSD      0.042100
     45 HN61        4.0900   -0.1800    6.2370 hn        1 PSD      0.425800
     46 HN62        4.0410    0.0920    4.5670 hn        1 PSD      0.425800
     47 HC8         0.6830    0.2440    1.0450 h5        1 PSD      0.089800
     48 HC'2       -1.9700    1.8500    2.5010 h1        1 PSD      0.083700
     49 HO'2       -4.3920    0.5670    2.0520 ho        1 PSD      0.429000
     50 HC'3       -1.7960    1.7640    0.1420 h1        1 PSD      0.092700
     51 HO'3       -3.7480    1.5930   -0.8160 ho        1 PSD      0.483000
@<TRIPOS>BOND
     1    1    2 1   
     2    1    7 1   
     3    1   31 1   
     4    1   32 1   
     5    2    6 1   
     6    2   33 1   
     7    2   34 1   
     8    3    4 2   
     9    3    7 1   
    10    3    8 1   
    11    5    6 1   
    12    5    7 1   
    13    5   35 1   
    14    6   36 1   
    15    6   37 1   
    16    7   38 1   
    17    8    9 1   
    18    8   39 1   
    19    9   10 1   
    20    9   11 1   
    21    9   12 1   
    22   12   13 1   
    23   13   14 1   
    24   13   40 1   
    25   13   41 1   
    26   14   15 1   
    27   14   29 1   
    28   14   42 1   
    29   15   16 1   
    30   16   17 1   
    31   16   27 1   
    32   16   43 1   
    33   17   18 1   
    34   17   26 1   
    35   18   19 ar  
    36   18   24 ar  
    37   19   20 ar  
    38   20   21 ar  
    39   20   44 1   
    40   21   22 ar  
    41   22   23 1   
    42   22   24 ar  
    43   23   45 1   
    44   23   46 1   
    45   24   25 1   
    46   25   26 2   
    47   26   47 1   
    48   27   28 1   
    49   27   29 1   
    50   27   48 1   
    51   28   49 1   
    52   29   30 1   
    53   29   50 1   
    54   30   51 1   
@<TRIPOS>SUBSTRUCTURE
     1 PSD         1 TEMP              0 ****  ****    0 ROOT
