@<TRIPOS>MOLECULE
PSE
   18    17     1     0     0
SMALL
bcc


@<TRIPOS>ATOM
      1 N2          1.2470   -0.5010    1.8720 n3        1 PSE     -0.931800
      2 C2          0.0400    0.3120    1.9220 c3        1 PSE      0.085500
      3 C1         -0.9560   -0.2180    2.9660 c3        1 PSE      0.136400
      4 O1         -0.4650   -0.1600    4.3000 oh        1 PSE     -0.659800
      5 C3         -0.7250    0.4470    0.5670 c3        1 PSE      0.219400
      6 O1P         0.0900    0.9030   -0.4290 os        1 PSE     -0.563200
      7 O2P        -1.0620   -0.6110   -2.1060 o         1 PSE     -0.932833
      8 O3P         1.1860    0.4740   -2.6920 o         1 PSE     -0.932833
      9 O4P         1.0420   -1.3280   -0.8670 o         1 PSE     -0.932833
     10 P           0.3470   -0.2760   -1.6990 p5        1 PSE      1.315900
     11 HN21        1.9080   -0.0180    1.2870 hn        1 PSE      0.375300
     12 HN22        1.0390   -1.3590    1.3780 hn        1 PSE      0.375300
     13 H2          0.3500    1.3480    2.2470 h1        1 PSE      0.020700
     14 H11        -1.8760    0.4240    2.9730 h1        1 PSE      0.023200
     15 H12        -1.2470   -1.2780    2.7390 h1        1 PSE      0.023200
     16 HO1         0.4710   -0.3850    4.2640 ho        1 PSE      0.409000
     17 H31        -1.1800   -0.5500    0.3030 h1        1 PSE     -0.015300
     18 H32        -1.5620    1.1870    0.7550 h1        1 PSE     -0.015300
@<TRIPOS>BOND
     1    1    2 1   
     2    1   11 1   
     3    1   12 1   
     4    2    3 1   
     5    2    5 1   
     6    2   13 1   
     7    3    4 1   
     8    3   14 1   
     9    3   15 1   
    10    4   16 1   
    11    5    6 1   
    12    5   17 1   
    13    5   18 1   
    14    6   10 1   
    15    7   10 1   
    16    8   10 1   
    17    9   10 1   
@<TRIPOS>SUBSTRUCTURE
     1 PSE         1 TEMP              0 ****  ****    0 ROOT
