@<TRIPOS>MOLECULE
PSF
   63    62     1     0     0
SMALL
bcc


@<TRIPOS>ATOM
      1 O2         -0.6090   -1.1190    1.3300 os        1 PSF     -0.581200
      2 O1          1.1640   -2.9150    1.0410 os        1 PSF     -0.597200
      3 P           0.6470   -1.8040    2.1390 p5        1 PSF      1.459800
      4 O4          0.1080   -2.5090    3.3060 o         1 PSF     -0.817000
      5 O3          1.7420   -0.7950    2.1090 o         1 PSF     -0.817000
      6 C2         -1.7700   -1.8820    1.2140 c3        1 PSF      0.196400
      7 C3         -2.4500   -1.6270   -0.1390 c3        1 PSF      0.127100
      8 O11        -1.5670   -2.1240   -1.1560 os        1 PSF     -0.424900
      9 O12        -3.3190   -2.3270   -2.5340 o         1 PSF     -0.573000
     10 C1         -2.1000   -2.4450   -2.3750 c         1 PSF      0.636100
     11 C4         -2.6890   -0.1350   -0.3820 c3        1 PSF      0.122400
     12 C5         -4.4620    1.4060    0.0550 c         1 PSF      0.635100
     13 O51        -3.8440    2.2080   -0.6490 o         1 PSF     -0.549000
     14 O52        -3.9480    0.1600    0.2530 os        1 PSF     -0.437900
     15 C6         -5.7770    1.5960    0.7490 c3        1 PSF     -0.129400
     16 C7         -5.9120    3.0080    1.2780 c3        1 PSF     -0.079400
     17 C13        -1.0770   -2.9330   -3.3560 c3        1 PSF     -0.139400
     18 C14        -0.9470   -1.9860   -4.5320 c3        1 PSF     -0.062400
     19 C15        -0.0510   -0.8120   -4.2010 c3        1 PSF     -0.101400
     20 N           3.3760   -1.2460   -0.0830 nz        1 PSF     -0.865600
     21 CA          2.7090   -2.3930   -0.7600 c3        1 PSF     -0.059500
     22 CB          1.2480   -2.5540   -0.3020 c3        1 PSF      0.183400
     23 C           2.7310   -2.2110   -2.3230 c         1 PSF      0.917600
     24 OT1         2.2240   -3.1350   -3.0000 o         1 PSF     -0.805800
     25 OT2         3.2530   -1.1500   -2.7660 o         1 PSF     -0.805800
     26 C8         -7.2920    3.2390    1.8530 c3        1 PSF     -0.078400
     27 C9         -7.4290    4.6440    2.4010 c3        1 PSF     -0.080400
     28 C10        -8.8030    4.8840    2.9710 c3        1 PSF     -0.092100
     29 C16         0.1020    0.1200   -5.3830 c3        1 PSF     -0.067400
     30 C17         1.0520    1.2460   -5.0620 c3        1 PSF     -0.096100
     31 H21        -2.5090   -1.5680    2.0050 h1        1 PSF      0.045200
     32 H22        -1.5230   -2.9730    1.3250 h1        1 PSF      0.045200
     33 H31        -3.4260   -2.1860   -0.1780 h1        1 PSF      0.073700
     34 H41        -1.8890    0.4910    0.0900 h1        1 PSF      0.076200
     35 H42        -2.7640    0.0870   -1.4780 h1        1 PSF      0.076200
     36 H61        -5.8720    0.8520    1.5830 hc        1 PSF      0.074200
     37 H62        -6.5850    1.3790    0.0010 hc        1 PSF      0.074200
     38 H71        -5.1360    3.1880    2.0680 hc        1 PSF      0.057700
     39 H72        -5.7130    3.7370    0.4480 hc        1 PSF      0.057700
     40 H131       -0.0730   -3.0580   -2.8570 hc        1 PSF      0.095200
     41 H132       -1.4210   -3.9410   -3.7100 hc        1 PSF      0.095200
     42 H141       -1.9610   -1.6260   -4.8500 hc        1 PSF      0.041200
     43 H142       -0.5030   -2.5550   -5.3920 hc        1 PSF      0.041200
     44 H151       -0.4790   -0.2500   -3.3290 hc        1 PSF      0.070200
     45 H152        0.9640   -1.1920   -3.8890 hc        1 PSF      0.070200
     46 HA          3.2720   -3.3300   -0.5000 hx        1 PSF      0.083700
     47 HB1         0.8150   -3.3930   -0.9180 h1        1 PSF      0.068700
     48 HB2         0.6620   -1.6120   -0.4960 h1        1 PSF      0.068700
     49 H81        -8.0660    3.0690    1.0580 hc        1 PSF      0.038700
     50 H82        -7.4900    2.4960    2.6710 hc        1 PSF      0.038700
     51 H91        -7.2240    5.3840    1.5830 hc        1 PSF      0.041200
     52 H92        -6.6550    4.8100    3.1970 hc        1 PSF      0.041200
     53 H101       -9.5850    4.7470    2.1860 hc        1 PSF      0.030033
     54 H102       -9.0140    4.1700    3.8030 hc        1 PSF      0.030033
     55 H103       -8.8820    5.9240    3.3690 hc        1 PSF      0.030033
     56 H161       -0.8990    0.5360   -5.6730 hc        1 PSF      0.024700
     57 H162        0.4890   -0.4570   -6.2640 hc        1 PSF      0.024700
     58 H171        0.6380    1.8870   -4.2460 hc        1 PSF      0.033700
     59 H172        2.0350    0.8380   -4.7200 hc        1 PSF      0.033700
     60 H173        1.2200    1.8850   -5.9620 hc        1 PSF      0.033700
     61 H2          2.8320   -0.9740    0.7860 hn        1 PSF      0.454800
     62 HN2         3.3990   -0.4620   -0.7500 hn        1 PSF      0.454800
     63 H1          4.3270   -1.4890    0.1650 hn        1 PSF      0.454800
@<TRIPOS>BOND
     1    1    3 1   
     2    1    6 1   
     3    2    3 1   
     4    2   22 1   
     5    3    4 1   
     6    3    5 1   
     7    6    7 1   
     8    6   31 1   
     9    6   32 1   
    10    7    8 1   
    11    7   11 1   
    12    7   33 1   
    13    8   10 1   
    14    9   10 2   
    15   10   17 1   
    16   11   14 1   
    17   11   34 1   
    18   11   35 1   
    19   12   13 2   
    20   12   14 1   
    21   12   15 1   
    22   15   16 1   
    23   15   36 1   
    24   15   37 1   
    25   16   26 1   
    26   16   38 1   
    27   16   39 1   
    28   17   18 1   
    29   17   40 1   
    30   17   41 1   
    31   18   19 1   
    32   18   42 1   
    33   18   43 1   
    34   19   29 1   
    35   19   44 1   
    36   19   45 1   
    37   20   21 1   
    38   20   61 1   
    39   20   62 1   
    40   20   63 1   
    41   21   22 1   
    42   21   23 1   
    43   21   46 1   
    44   22   47 1   
    45   22   48 1   
    46   23   24 1   
    47   23   25 1   
    48   26   27 1   
    49   26   49 1   
    50   26   50 1   
    51   27   28 1   
    52   27   51 1   
    53   27   52 1   
    54   28   53 1   
    55   28   54 1   
    56   28   55 1   
    57   29   30 1   
    58   29   56 1   
    59   29   57 1   
    60   30   58 1   
    61   30   59 1   
    62   30   60 1   
@<TRIPOS>SUBSTRUCTURE
     1 PSF         1 TEMP              0 ****  ****    0 ROOT
