@<TRIPOS>MOLECULE
PSF
   62    61     1     0     0
SMALL
bcc


@<TRIPOS>ATOM
      1 O2          4.2270   -9.8570    4.2370 os        1 PSF     -0.577200
      2 O1          4.0240   -7.9650    2.5850 os        1 PSF     -0.592200
      3 P           4.8290   -9.3750    2.7570 p5        1 PSF      1.428800
      4 O4          6.2660   -9.1250    2.9710 o         1 PSF     -0.834000
      5 O3          4.2520  -10.3230    1.7810 o         1 PSF     -0.834000
      6 C2          2.8710  -10.1410    4.2780 c3        1 PSF      0.207400
      7 C3          2.2840   -9.7620    5.6530 c3        1 PSF      0.097100
      8 O11         2.0710   -8.3410    5.6290 os        1 PSF     -0.393900
      9 O12         0.2840   -8.5580    6.9680 o         1 PSF     -0.628000
     10 C1          1.0350   -7.8060    6.3270 c         1 PSF      0.650100
     11 C4          3.2760  -10.1170    6.7550 c3        1 PSF      0.130400
     12 C5          1.8120  -10.7460    8.5540 c         1 PSF      0.648100
     13 O51         1.7190  -11.8770    8.0650 o         1 PSF     -0.575000
     14 O52         2.7210   -9.8640    8.0540 os        1 PSF     -0.436900
     15 C6          1.0310  -10.1620    9.6910 c3        1 PSF     -0.142400
     16 C7          0.3700  -11.2340   10.5270 c3        1 PSF     -0.074400
     17 C13         0.9360   -6.3170    6.1880 c3        1 PSF     -0.148400
     18 C14         1.4620   -5.6070    7.4220 c3        1 PSF     -0.047400
     19 C15         2.9620   -5.4250    7.3430 c3        1 PSF     -0.117400
     20 N           5.4510   -5.2220    2.2090 n3        1 PSF     -0.904800
     21 CA          4.2270   -5.5770    2.9050 c3        1 PSF      0.036500
     22 CB          4.2310   -6.9760    3.5590 c3        1 PSF      0.157400
     23 C           3.8360   -4.5630    4.0160 c         1 PSF      0.909600
     24 OT1         4.7390   -3.9930    4.6990 o         1 PSF     -0.868300
     25 OT2         2.6000   -4.3660    4.2240 o         1 PSF     -0.868300
     26 C8         -0.5260  -10.6200   11.5810 c3        1 PSF     -0.079400
     27 C9         -1.1850  -11.6870   12.4290 c3        1 PSF     -0.080400
     28 C10        -2.0820  -11.0840   13.4790 c3        1 PSF     -0.090100
     29 C16         3.4980   -4.5850    8.4800 c3        1 PSF     -0.057400
     30 C17         4.9540   -4.2620    8.2490 c3        1 PSF     -0.104100
     31 H21         2.3300   -9.5820    3.4650 h1        1 PSF      0.035200
     32 H22         2.7040  -11.2490    4.1550 h1        1 PSF      0.035200
     33 H31         1.3060  -10.2900    5.8210 h1        1 PSF      0.060700
     34 H41         4.1690   -9.4350    6.7140 h1        1 PSF      0.090700
     35 H42         3.5820  -11.1890    6.6590 h1        1 PSF      0.090700
     36 H61         0.2630   -9.4820    9.2230 hc        1 PSF      0.089200
     37 H62         1.7070   -9.5260   10.3190 hc        1 PSF      0.089200
     38 H71         1.1550  -11.8680   11.0160 hc        1 PSF      0.048700
     39 H72        -0.2280  -11.9090    9.8580 hc        1 PSF      0.048700
     40 H131       -0.1480   -6.0740    6.0370 hc        1 PSF      0.104700
     41 H132        1.5140   -5.9620    5.2780 hc        1 PSF      0.104700
     42 H141        1.1800   -6.1730    8.3480 hc        1 PSF      0.022700
     43 H142        0.9710   -4.5990    7.4790 hc        1 PSF      0.022700
     44 H151        3.2200   -4.9210    6.3610 hc        1 PSF      0.093200
     45 H152        3.4620   -6.4280    7.3390 hc        1 PSF      0.093200
     46 HA          3.4050   -5.5740    2.1310 h1        1 PSF      0.058700
     47 HB1         3.3780   -7.0140    4.2970 h1        1 PSF      0.034200
     48 HB2         5.2000   -7.1760    4.0940 h1        1 PSF      0.034200
     49 H81        -1.3140   -9.9940   11.0850 hc        1 PSF      0.040700
     50 H82         0.0750   -9.9370   12.2360 hc        1 PSF      0.040700
     51 H91        -1.7820  -12.3710   11.7700 hc        1 PSF      0.036200
     52 H92        -0.3950  -12.3130   12.9230 hc        1 PSF      0.036200
     53 H101       -1.4990  -10.4180   14.1600 hc        1 PSF      0.026700
     54 H102       -2.8900  -10.4770   13.0040 hc        1 PSF      0.026700
     55 H103       -2.5590  -11.8860   14.0930 hc        1 PSF      0.026700
     56 H161        2.9120   -3.6300    8.5480 hc        1 PSF      0.007200
     57 H162        3.3690   -5.1210    9.4570 hc        1 PSF      0.007200
     58 H171        5.5790   -5.1810    8.3550 hc        1 PSF      0.038033
     59 H172        5.0970   -3.8640    7.2100 hc        1 PSF      0.038033
     60 H173        5.3120   -3.5050    8.9880 hc        1 PSF      0.038033
     61 H1          5.9190   -6.0600    1.9160 hn        1 PSF      0.335800
     62 H2          6.0580   -4.7380    2.8480 hn        1 PSF      0.335800
@<TRIPOS>BOND
     1    1    3 1   
     2    1    6 1   
     3    2    3 1   
     4    2   22 1   
     5    3    4 1   
     6    3    5 1   
     7    6    7 1   
     8    6   31 1   
     9    6   32 1   
    10    7    8 1   
    11    7   11 1   
    12    7   33 1   
    13    8   10 1   
    14    9   10 2   
    15   10   17 1   
    16   11   14 1   
    17   11   34 1   
    18   11   35 1   
    19   12   13 2   
    20   12   14 1   
    21   12   15 1   
    22   15   16 1   
    23   15   36 1   
    24   15   37 1   
    25   16   26 1   
    26   16   38 1   
    27   16   39 1   
    28   17   18 1   
    29   17   40 1   
    30   17   41 1   
    31   18   19 1   
    32   18   42 1   
    33   18   43 1   
    34   19   29 1   
    35   19   44 1   
    36   19   45 1   
    37   20   21 1   
    38   20   61 1   
    39   20   62 1   
    40   21   22 1   
    41   21   23 1   
    42   21   46 1   
    43   22   47 1   
    44   22   48 1   
    45   23   24 1   
    46   23   25 1   
    47   26   27 1   
    48   26   49 1   
    49   26   50 1   
    50   27   28 1   
    51   27   51 1   
    52   27   52 1   
    53   28   53 1   
    54   28   54 1   
    55   28   55 1   
    56   29   30 1   
    57   29   56 1   
    58   29   57 1   
    59   30   58 1   
    60   30   59 1   
    61   30   60 1   
@<TRIPOS>SUBSTRUCTURE
     1 PSF         1 TEMP              0 ****  ****    0 ROOT
