@<TRIPOS>MOLECULE
PSF
   63    62     1     0     0
SMALL
bcc


@<TRIPOS>ATOM
      1 O2          0.5000    0.3930    0.8430 os        1 PSF     -0.556200
      2 O1          1.7740   -0.7440   -0.9410 os        1 PSF     -0.605200
      3 P           2.0490   -0.0920    0.5480 p5        1 PSF      1.457800
      4 O4          2.2540   -1.3090    1.3820 o         1 PSF     -0.824000
      5 O3          2.9250    1.0780    0.4800 o         1 PSF     -0.824000
      6 C2         -0.3980   -0.5930    1.2330 c3        1 PSF      0.182400
      7 C3         -1.7480   -0.4580    0.5190 c3        1 PSF      0.133100
      8 O11        -1.6940   -0.7240   -0.8970 os        1 PSF     -0.412900
      9 O12        -1.1880   -2.8680   -0.4880 o         1 PSF     -0.616000
     10 C1         -1.4640   -1.9920   -1.3210 c         1 PSF      0.664100
     11 C4         -2.2770    0.9730    0.6130 c3        1 PSF      0.146400
     12 C5         -4.4630    1.9580    0.6010 c         1 PSF      0.632100
     13 O51        -3.9130    3.0190    0.2980 o         1 PSF     -0.542000
     14 O52        -3.7000    0.8470    0.8040 os        1 PSF     -0.454900
     15 C6         -5.9260    1.6850    0.7750 c3        1 PSF     -0.129400
     16 C7         -6.6320    2.8740    1.3910 c3        1 PSF     -0.079400
     17 C13        -1.6420   -2.2050   -2.7960 c3        1 PSF     -0.124400
     18 C14        -1.3390   -1.0020   -3.6620 c3        1 PSF     -0.069400
     19 C15         0.1470   -0.8210   -3.8820 c3        1 PSF     -0.108400
     20 N           1.7060   -3.6100   -0.1360 n4        1 PSF     -0.863600
     21 CA          2.0230   -3.0760   -1.4910 c3        1 PSF     -0.060500
     22 CB          2.6840   -1.6880   -1.4200 c3        1 PSF      0.191400
     23 C           2.9300   -4.0800   -2.2980 c         1 PSF      0.922600
     24 OT1         3.1910   -3.7630   -3.4790 o         1 PSF     -0.799300
     25 OT2         3.2830   -5.1310   -1.6930 o         1 PSF     -0.799300
     26 C8         -8.1280    2.6520    1.4320 c3        1 PSF     -0.078400
     27 C9         -8.8380    3.8300    2.0640 c3        1 PSF     -0.080400
     28 C10       -10.3300    3.6190    2.1040 c3        1 PSF     -0.092100
     29 C16         0.4270    0.3460   -4.8040 c3        1 PSF     -0.067400
     30 C17         1.9090    0.5240   -5.0150 c3        1 PSF     -0.096100
     31 H21         0.0250   -1.6180    1.0410 h1        1 PSF      0.039700
     32 H22        -0.6110   -0.4820    2.3370 h1        1 PSF      0.039700
     33 H31        -2.4680   -1.1900    0.9810 h1        1 PSF      0.062700
     34 H41        -1.8440    1.5010    1.5000 h1        1 PSF      0.085700
     35 H42        -2.0600    1.5550   -0.3200 h1        1 PSF      0.085700
     36 H61        -6.3480    1.4640   -0.2420 hc        1 PSF      0.073700
     37 H62        -6.0660    0.7710    1.4100 hc        1 PSF      0.073700
     38 H71        -6.3950    3.7970    0.7960 hc        1 PSF      0.057200
     39 H72        -6.2440    3.0440    2.4300 hc        1 PSF      0.057200
     40 H131       -2.7140   -2.5120   -2.9370 hc        1 PSF      0.072700
     41 H132       -0.9910   -3.0710   -3.0940 hc        1 PSF      0.072700
     42 H141       -1.8490   -1.1450   -4.6520 hc        1 PSF      0.045700
     43 H142       -1.7660   -0.0770   -3.1920 hc        1 PSF      0.045700
     44 H151        0.6540   -0.6460   -2.8920 hc        1 PSF      0.074700
     45 H152        0.5880   -1.7570   -4.3170 hc        1 PSF      0.074700
     46 HA          1.0500   -2.9650   -2.0520 hx        1 PSF      0.077700
     47 HB1         3.6030   -1.7110   -0.7730 h1        1 PSF      0.059700
     48 HB2         2.9630   -1.4130   -2.4770 h1        1 PSF      0.059700
     49 H81        -8.3560    1.7200    2.0140 hc        1 PSF      0.039200
     50 H82        -8.5150    2.4950    0.3910 hc        1 PSF      0.039200
     51 H91        -8.4510    3.9850    3.1060 hc        1 PSF      0.041700
     52 H92        -8.6040    4.7620    1.4840 hc        1 PSF      0.041700
     53 H101      -10.8340    4.4980    2.5740 hc        1 PSF      0.031033
     54 H102      -10.5840    2.7080    2.6980 hc        1 PSF      0.031033
     55 H103      -10.7380    3.4890    1.0730 hc        1 PSF      0.031033
     56 H161       -0.0800    0.1790   -5.7910 hc        1 PSF      0.025700
     57 H162       -0.0060    1.2830   -4.3640 hc        1 PSF      0.025700
     58 H171        2.1050    1.4010   -5.6770 hc        1 PSF      0.037033
     59 H172        2.3500   -0.3860   -5.4890 hc        1 PSF      0.037033
     60 H173        2.4240    0.6900   -4.0370 hc        1 PSF      0.037033
     61 H2          2.2700   -4.4610    0.0020 hn        1 PSF      0.460133
     62 HN2         1.9460   -2.8940    0.5910 hn        1 PSF      0.460133
     63 H1          0.7170   -3.8370   -0.0700 hn        1 PSF      0.460133
@<TRIPOS>BOND
     1    1    3 1   
     2    1    6 1   
     3    2    3 1   
     4    2   22 1   
     5    3    4 1   
     6    3    5 1   
     7    6    7 1   
     8    6   31 1   
     9    6   32 1   
    10    7    8 1   
    11    7   11 1   
    12    7   33 1   
    13    8   10 1   
    14    9   10 2   
    15   10   17 1   
    16   11   14 1   
    17   11   34 1   
    18   11   35 1   
    19   12   13 2   
    20   12   14 1   
    21   12   15 1   
    22   15   16 1   
    23   15   36 1   
    24   15   37 1   
    25   16   26 1   
    26   16   38 1   
    27   16   39 1   
    28   17   18 1   
    29   17   40 1   
    30   17   41 1   
    31   18   19 1   
    32   18   42 1   
    33   18   43 1   
    34   19   29 1   
    35   19   44 1   
    36   19   45 1   
    37   20   21 1   
    38   20   61 1   
    39   20   62 1   
    40   20   63 1   
    41   21   22 1   
    42   21   23 1   
    43   21   46 1   
    44   22   47 1   
    45   22   48 1   
    46   23   24 1   
    47   23   25 1   
    48   26   27 1   
    49   26   49 1   
    50   26   50 1   
    51   27   28 1   
    52   27   51 1   
    53   27   52 1   
    54   28   53 1   
    55   28   54 1   
    56   28   55 1   
    57   29   30 1   
    58   29   56 1   
    59   29   57 1   
    60   30   58 1   
    61   30   59 1   
    62   30   60 1   
@<TRIPOS>SUBSTRUCTURE
     1 PSF         1 TEMP              0 ****  ****    0 ROOT
