@<TRIPOS>MOLECULE
PSF
   63    62     1     0     0
SMALL
bcc


@<TRIPOS>ATOM
      1 O2         -0.5850   -1.0420    1.3460 os        1 PSF     -0.581200
      2 O1          1.2100   -2.8210    1.0960 os        1 PSF     -0.597200
      3 P           0.6840   -1.6870    2.1660 p5        1 PSF      1.459800
      4 O4          0.1610   -2.3680    3.3550 o         1 PSF     -0.817000
      5 O3          1.7650   -0.6650    2.1030 o         1 PSF     -0.817000
      6 C2         -1.7360   -1.8250    1.2570 c3        1 PSF      0.196400
      7 C3         -2.4270   -1.6160   -0.0980 c3        1 PSF      0.127100
      8 O11        -1.5420   -2.1280   -1.1070 os        1 PSF     -0.424900
      9 O12        -3.2980   -2.3930   -2.4680 o         1 PSF     -0.573000
     10 C1         -2.0770   -2.4900   -2.3130 c         1 PSF      0.636100
     11 C4         -2.6890   -0.1350   -0.3800 c3        1 PSF      0.122400
     12 C5         -4.4800    1.3920    0.0280 c         1 PSF      0.635100
     13 O51        -3.8780    2.1840   -0.7010 o         1 PSF     -0.549000
     14 O52        -3.9480    0.1590    0.2550 os        1 PSF     -0.437900
     15 C6         -5.7930    1.5830    0.7260 c3        1 PSF     -0.129400
     16 C7         -5.9390    3.0040    1.2270 c3        1 PSF     -0.079400
     17 C13        -1.0530   -2.9900   -3.2860 c3        1 PSF     -0.139400
     18 C14        -0.9410   -2.0730   -4.4880 c3        1 PSF     -0.062400
     19 C15        -0.0600   -0.8780   -4.1930 c3        1 PSF     -0.101400
     20 N           3.3940   -1.1530   -0.0850 n4        1 PSF     -0.865600
     21 CA          2.7390   -2.3280   -0.7270 c3        1 PSF     -0.059500
     22 CB          1.2830   -2.4960   -0.2560 c3        1 PSF      0.183400
     23 C           2.7510   -2.1890   -2.2940 c         1 PSF      0.917600
     24 OT1         2.2530   -3.1380   -2.9420 o         1 PSF     -0.805800
     25 OT2         3.2560   -1.1340   -2.7690 o         1 PSF     -0.805800
     26 C8         -7.3190    3.2320    1.8060 c3        1 PSF     -0.078400
     27 C9         -7.4660    4.6460    2.3270 c3        1 PSF     -0.080400
     28 C10        -8.8390    4.8830    2.9000 c3        1 PSF     -0.092100
     29 C16         0.0750    0.0240   -5.4000 c3        1 PSF     -0.067400
     30 C17         1.0120    1.1700   -5.1140 c3        1 PSF     -0.096100
     31 H21        -2.4750   -1.5000    2.0430 h1        1 PSF      0.045200
     32 H22        -1.4740   -2.9090    1.3970 h1        1 PSF      0.045200
     33 H31        -3.3960   -2.1900   -0.1170 h1        1 PSF      0.073700
     34 H41        -1.8950    0.5150    0.0700 h1        1 PSF      0.076200
     35 H42        -2.7740    0.0560   -1.4810 h1        1 PSF      0.076200
     36 H61        -6.6030    1.3430   -0.0140 hc        1 PSF      0.074200
     37 H62        -5.8770    0.8550    1.5750 hc        1 PSF      0.074200
     38 H71        -5.1610    3.2070    2.0100 hc        1 PSF      0.057700
     39 H72        -5.7530    3.7190    0.3820 hc        1 PSF      0.057700
     40 H131       -1.3840   -4.0110   -3.6120 hc        1 PSF      0.095200
     41 H132       -0.0440   -3.0870   -2.7890 hc        1 PSF      0.095200
     42 H141       -0.4940   -2.6590   -5.3350 hc        1 PSF      0.041200
     43 H142       -1.9610   -1.7350   -4.8090 hc        1 PSF      0.041200
     44 H151        0.9630   -1.2370   -3.8760 hc        1 PSF      0.070200
     45 H152       -0.4900   -0.2990   -3.3340 hc        1 PSF      0.070200
     46 HA          3.3170   -3.2500   -0.4440 hx        1 PSF      0.083700
     47 HB1         0.6830   -1.5690   -0.4730 h1        1 PSF      0.068700
     48 HB2         0.8590   -3.3580   -0.8470 h1        1 PSF      0.068700
     49 H81        -7.5040    2.5030    2.6390 hc        1 PSF      0.038700
     50 H82        -8.0950    3.0390    1.0190 hc        1 PSF      0.038700
     51 H91        -6.6900    4.8360    3.1150 hc        1 PSF      0.041200
     52 H92        -7.2740    5.3720    1.4930 hc        1 PSF      0.041200
     53 H101       -8.9270    5.9300    3.2790 hc        1 PSF      0.030033
     54 H102       -9.6250    4.7230    2.1230 hc        1 PSF      0.030033
     55 H103       -9.0390    4.1840    3.7480 hc        1 PSF      0.030033
     56 H161       -0.9330    0.4180   -5.6960 hc        1 PSF      0.024700
     57 H162        0.4650   -0.5720   -6.2680 hc        1 PSF      0.024700
     58 H171        1.1670    1.7860   -6.0320 hc        1 PSF      0.033700
     59 H172        2.0020    0.7830   -4.7670 hc        1 PSF      0.033700
     60 H173        0.5940    1.8270   -4.3140 hc        1 PSF      0.033700
     61 H2          2.8510   -0.8660    0.7790 hn        1 PSF      0.454800
     62 HN2         4.3490   -1.3760    0.1640 hn        1 PSF      0.454800
     63 H1          3.4020   -0.3880   -0.7730 hn        1 PSF      0.454800
@<TRIPOS>BOND
     1    1    3 1   
     2    1    6 1   
     3    2    3 1   
     4    2   22 1   
     5    3    4 1   
     6    3    5 1   
     7    6    7 1   
     8    6   31 1   
     9    6   32 1   
    10    7    8 1   
    11    7   11 1   
    12    7   33 1   
    13    8   10 1   
    14    9   10 2   
    15   10   17 1   
    16   11   14 1   
    17   11   34 1   
    18   11   35 1   
    19   12   13 2   
    20   12   14 1   
    21   12   15 1   
    22   15   16 1   
    23   15   36 1   
    24   15   37 1   
    25   16   26 1   
    26   16   38 1   
    27   16   39 1   
    28   17   18 1   
    29   17   40 1   
    30   17   41 1   
    31   18   19 1   
    32   18   42 1   
    33   18   43 1   
    34   19   29 1   
    35   19   44 1   
    36   19   45 1   
    37   20   21 1   
    38   20   61 1   
    39   20   62 1   
    40   20   63 1   
    41   21   22 1   
    42   21   23 1   
    43   21   46 1   
    44   22   47 1   
    45   22   48 1   
    46   23   24 1   
    47   23   25 1   
    48   26   27 1   
    49   26   49 1   
    50   26   50 1   
    51   27   28 1   
    52   27   51 1   
    53   27   52 1   
    54   28   53 1   
    55   28   54 1   
    56   28   55 1   
    57   29   30 1   
    58   29   56 1   
    59   29   57 1   
    60   30   58 1   
    61   30   59 1   
    62   30   60 1   
@<TRIPOS>SUBSTRUCTURE
     1 PSF         1 TEMP              0 ****  ****    0 ROOT
