@<TRIPOS>MOLECULE
PSG
   36    37     1     0     0
SMALL
bcc


@<TRIPOS>ATOM
      1 C7          0.3620    1.1210    0.7380 ca        1 PSG     -0.140000
      2 C8          1.6800    0.7070    0.5690 ca        1 PSG     -0.051500
      3 C9          2.1370   -0.4250    1.2630 ca        1 PSG     -0.185200
      4 C10         1.2790   -1.1340    2.1220 ca        1 PSG     -0.051500
      5 C11        -0.0350   -0.7110    2.2690 ca        1 PSG     -0.140000
      6 C12        -0.5070    0.4170    1.5770 ca        1 PSG      0.030900
      7 N1          3.5410   -0.8760    1.0910 no        1 PSG      0.314200
      8 O11         4.2620   -0.2650    0.3490 o         1 PSG     -0.207500
      9 O12         3.9190   -1.8430    1.6980 o         1 PSG     -0.207500
     10 S1         -2.1180    0.8360    1.8790 ss        1 PSG     -0.142000
     11 C1         -2.6030    1.9340    0.5550 c3        1 PSG      0.163200
     12 C2         -4.1350    1.9960    0.5610 c3        1 PSG      0.092100
     13 C3         -4.6220    3.1220   -0.3690 c3        1 PSG      0.112100
     14 C4         -3.9140    4.4430   -0.0260 c3        1 PSG      0.126100
     15 C5         -2.3960    4.2310   -0.0730 c3        1 PSG      0.091100
     16 C6         -1.6450    5.4820    0.3890 c3        1 PSG      0.141400
     17 O2         -4.7030    0.8090    0.0320 oh        1 PSG     -0.596800
     18 O3         -6.0080    3.3500   -0.1870 oh        1 PSG     -0.601800
     19 O4         -4.2280    5.4340   -0.9880 oh        1 PSG     -0.592800
     20 O5         -2.0230    3.1960    0.8440 os        1 PSG     -0.411600
     21 O6         -0.2500    5.3030    0.2810 oh        1 PSG     -0.591800
     22 H7          0.0110    2.0270    0.2150 ha        1 PSG      0.157500
     23 H8          2.3600    1.2650   -0.0980 ha        1 PSG      0.174500
     24 H10         1.6470   -2.0200    2.6690 ha        1 PSG      0.174500
     25 H11        -0.7140   -1.2670    2.9350 ha        1 PSG      0.157500
     26 H1         -2.2330    1.5610   -0.4370 h2        1 PSG      0.082700
     27 H2         -4.5110    2.1750    1.6070 h1        1 PSG      0.075700
     28 H3         -4.4200    2.8390   -1.4400 h1        1 PSG      0.068700
     29 H4         -4.2330    4.7870    0.9970 h1        1 PSG      0.065700
     30 H5         -2.0740    3.9450   -1.1120 h1        1 PSG      0.071700
     31 H62        -1.9320    5.7360    1.4430 h1        1 PSG      0.068200
     32 H61        -1.8960    6.3320   -0.3010 h1        1 PSG      0.068200
     33 H2O1       -4.4330    0.0810    0.6090 ho        1 PSG      0.421000
     34 H3O1       -6.4550    2.5170   -0.3890 ho        1 PSG      0.428000
     35 H4O1       -5.1930    5.4980   -1.0080 ho        1 PSG      0.427000
     36 H6O1       -0.0070    4.5960    0.8940 ho        1 PSG      0.407000
@<TRIPOS>BOND
     1    1    2 ar  
     2    1    6 ar  
     3    1   22 1   
     4    2    3 ar  
     5    2   23 1   
     6    3    4 ar  
     7    3    7 1   
     8    4    5 ar  
     9    4   24 1   
    10    5    6 ar  
    11    5   25 1   
    12    6   10 1   
    13    7    8 1   
    14    7    9 1   
    15   10   11 1   
    16   11   12 1   
    17   11   20 1   
    18   11   26 1   
    19   12   13 1   
    20   12   17 1   
    21   12   27 1   
    22   13   14 1   
    23   13   18 1   
    24   13   28 1   
    25   14   15 1   
    26   14   19 1   
    27   14   29 1   
    28   15   16 1   
    29   15   20 1   
    30   15   30 1   
    31   16   21 1   
    32   16   31 1   
    33   16   32 1   
    34   17   33 1   
    35   18   34 1   
    36   19   35 1   
    37   21   36 1   
@<TRIPOS>SUBSTRUCTURE
     1 PSG         1 TEMP              0 ****  ****    0 ROOT
