@<TRIPOS>MOLECULE
PSG
   36    37     1     0     0
SMALL
bcc


@<TRIPOS>ATOM
      1 C7          0.3540    1.1090    0.7540 ca        1 PSG     -0.140000
      2 C8          1.6690    0.6830    0.5940 ca        1 PSG     -0.051500
      3 C9          2.1170   -0.4410    1.3040 ca        1 PSG     -0.185200
      4 C10         1.2530   -1.1330    2.1710 ca        1 PSG     -0.051500
      5 C11        -0.0590   -0.6990    2.3090 ca        1 PSG     -0.140000
      6 C12        -0.5220    0.4220    1.6020 ca        1 PSG      0.030900
      7 N1          3.5180   -0.9050    1.1410 no        1 PSG      0.314200
      8 O11         4.2460   -0.3090    0.3930 o         1 PSG     -0.207500
      9 O12         3.8890   -1.8660    1.7620 o         1 PSG     -0.207500
     10 S1         -2.1300    0.8570    1.8950 ss        1 PSG     -0.142000
     11 C1         -2.6040    1.9400    0.5560 c3        1 PSG      0.163200
     12 C2         -4.1360    2.0140    0.5580 c3        1 PSG      0.092100
     13 C3         -4.6140    3.1310   -0.3870 c3        1 PSG      0.112100
     14 C4         -3.8970    4.4520   -0.0610 c3        1 PSG      0.126100
     15 C5         -2.3800    4.2270   -0.1030 c3        1 PSG      0.091100
     16 C6         -1.6190    5.4790    0.3440 c3        1 PSG      0.141400
     17 O2         -4.7120    0.8240    0.0440 oh        1 PSG     -0.596800
     18 O3         -5.9980    3.3720   -0.2090 oh        1 PSG     -0.601800
     19 O4         -4.2020    5.4320   -1.0360 oh        1 PSG     -0.592800
     20 O5         -2.0160    3.2020    0.8290 os        1 PSG     -0.411600
     21 O6         -0.2270    5.2880    0.2390 oh        1 PSG     -0.591800
     22 H7          0.0100    2.0110    0.2180 ha        1 PSG      0.157500
     23 H8          2.3540    1.2280   -0.0790 ha        1 PSG      0.174500
     24 H10         1.6130   -2.0140    2.7310 ha        1 PSG      0.174500
     25 H11        -0.7430   -1.2410    2.9820 ha        1 PSG      0.157500
     26 H1         -2.2360    1.5520   -0.4300 h2        1 PSG      0.082700
     27 H2         -4.5130    2.2100    1.6020 h1        1 PSG      0.075700
     28 H3         -4.4130    2.8320   -1.4540 h1        1 PSG      0.068700
     29 H4         -4.2140    4.8110    0.9580 h1        1 PSG      0.065700
     30 H5         -2.0590    3.9250   -1.1370 h1        1 PSG      0.071700
     31 H62        -1.8640    6.3220   -0.3580 h1        1 PSG      0.068200
     32 H61        -1.9060    5.7490    1.3940 h1        1 PSG      0.068200
     33 H2O1       -4.4480    0.1020    0.6310 ho        1 PSG      0.421000
     34 H3O1       -6.4510    2.5400   -0.4010 ho        1 PSG      0.428000
     35 H4O1       -5.1660    5.5030   -1.0580 ho        1 PSG      0.427000
     36 H6O1        0.0110    4.5880    0.8610 ho        1 PSG      0.407000
@<TRIPOS>BOND
     1    1    2 ar  
     2    1    6 ar  
     3    1   22 1   
     4    2    3 ar  
     5    2   23 1   
     6    3    4 ar  
     7    3    7 1   
     8    4    5 ar  
     9    4   24 1   
    10    5    6 ar  
    11    5   25 1   
    12    6   10 1   
    13    7    8 1   
    14    7    9 1   
    15   10   11 1   
    16   11   12 1   
    17   11   20 1   
    18   11   26 1   
    19   12   13 1   
    20   12   17 1   
    21   12   27 1   
    22   13   14 1   
    23   13   18 1   
    24   13   28 1   
    25   14   15 1   
    26   14   19 1   
    27   14   29 1   
    28   15   16 1   
    29   15   20 1   
    30   15   30 1   
    31   16   21 1   
    32   16   31 1   
    33   16   32 1   
    34   17   33 1   
    35   18   34 1   
    36   19   35 1   
    37   21   36 1   
@<TRIPOS>SUBSTRUCTURE
     1 PSG         1 TEMP              0 ****  ****    0 ROOT
