@<TRIPOS>MOLECULE
PSG
   36    37     1     0     0
SMALL
bcc


@<TRIPOS>ATOM
      1 C7          1.3470   -1.8400   -5.2250 ca        1 PSG     -0.146500
      2 C8          1.6450   -1.7340   -6.5790 ca        1 PSG     -0.049000
      3 C9          2.6580   -2.5370   -7.1250 ca        1 PSG     -0.191200
      4 C10         3.3700   -3.4400   -6.3140 ca        1 PSG     -0.049000
      5 C11         3.0520   -3.5370   -4.9670 ca        1 PSG     -0.146500
      6 C12         2.0360   -2.7430   -4.4060 ca        1 PSG      0.020900
      7 N1          2.9840   -2.4320   -8.5690 no        1 PSG      0.315200
      8 O11         2.3620   -1.6620   -9.2510 o         1 PSG     -0.210000
      9 O12         3.8600   -3.1210   -9.0200 o         1 PSG     -0.210000
     10 S1          1.7840   -2.9730   -2.7550 ss        1 PSG     -0.067000
     11 C1          0.2510   -2.1530   -2.3610 c3        1 PSG      0.145200
     12 C2         -0.1590   -2.5770   -0.9400 c3        1 PSG      0.135100
     13 C3         -1.3160   -1.6830   -0.4590 c3        1 PSG      0.083100
     14 C4         -0.9620   -0.1970   -0.6190 c3        1 PSG      0.078100
     15 C5         -0.5650    0.0790   -2.0710 c3        1 PSG      0.059100
     16 C6         -0.0640    1.5160   -2.2520 c3        1 PSG      0.139400
     17 O2         -0.5090   -3.9420   -0.9050 oh        1 PSG     -0.558800
     18 O3         -1.5550   -2.0100    0.8960 oh        1 PSG     -0.578800
     19 O4         -2.0460    0.6060   -0.1960 oh        1 PSG     -0.584800
     20 O5          0.5280   -0.7620   -2.4450 os        1 PSG     -0.407600
     21 O6          0.1000    1.8170   -3.6190 oh        1 PSG     -0.590800
     22 H7          0.5690   -1.1880   -4.7930 ha        1 PSG      0.154500
     23 H8          1.0940   -1.0220   -7.2180 ha        1 PSG      0.172500
     24 H10         4.1690   -4.0650   -6.7470 ha        1 PSG      0.172500
     25 H11         3.6010   -4.2490   -4.3280 ha        1 PSG      0.154500
     26 H1         -0.5550   -2.4220   -3.0940 h2        1 PSG      0.066700
     27 H2          0.7170   -2.4890   -0.2340 h1        1 PSG      0.116700
     28 H3         -2.2450   -1.9130   -1.0580 h1        1 PSG      0.033700
     29 H4         -0.1210    0.0760    0.0810 h1        1 PSG      0.109700
     30 H5         -1.4350   -0.1150   -2.7590 h1        1 PSG      0.053700
     31 H62         0.8960    1.6590   -1.6910 h1        1 PSG      0.068200
     32 H61        -0.8460    2.2280   -1.8770 h1        1 PSG      0.068200
     33 H2O1       -1.4080   -4.0300   -1.2490 ho        1 PSG      0.404000
     34 H3O1       -2.0610   -1.2770    1.2760 ho        1 PSG      0.422000
     35 H4O1       -2.7620    0.4980   -0.8350 ho        1 PSG      0.406000
     36 H6O1        0.8180    1.2600   -3.9480 ho        1 PSG      0.411000
@<TRIPOS>BOND
     1    1    2 ar  
     2    1    6 ar  
     3    1   22 1   
     4    2    3 ar  
     5    2   23 1   
     6    3    4 ar  
     7    3    7 1   
     8    4    5 ar  
     9    4   24 1   
    10    5    6 ar  
    11    5   25 1   
    12    6   10 1   
    13    7    8 1   
    14    7    9 1   
    15   10   11 1   
    16   11   12 1   
    17   11   20 1   
    18   11   26 1   
    19   12   13 1   
    20   12   17 1   
    21   12   27 1   
    22   13   14 1   
    23   13   18 1   
    24   13   28 1   
    25   14   15 1   
    26   14   19 1   
    27   14   29 1   
    28   15   16 1   
    29   15   20 1   
    30   15   30 1   
    31   16   21 1   
    32   16   31 1   
    33   16   32 1   
    34   17   33 1   
    35   18   34 1   
    36   19   35 1   
    37   21   36 1   
@<TRIPOS>SUBSTRUCTURE
     1 PSG         1 TEMP              0 ****  ****    0 ROOT
