@<TRIPOS>MOLECULE
PSG
   36    37     1     0     0
SMALL
bcc


@<TRIPOS>ATOM
      1 C7          0.3620    1.1240    0.7440 ca        1 PSG     -0.140000
      2 C8          1.6820    0.7130    0.5820 ca        1 PSG     -0.051500
      3 C9          2.1380   -0.4190    1.2750 ca        1 PSG     -0.185200
      4 C10         1.2770   -1.1330    2.1280 ca        1 PSG     -0.051500
      5 C11        -0.0390   -0.7130    2.2680 ca        1 PSG     -0.140000
      6 C12        -0.5100    0.4150    1.5770 ca        1 PSG      0.030900
      7 N1          3.5440   -0.8680    1.1100 no        1 PSG      0.314200
      8 O11         4.2680   -0.2530    0.3740 o         1 PSG     -0.207500
      9 O12         3.9210   -1.8350    1.7160 o         1 PSG     -0.207500
     10 S1         -2.1230    0.8310    1.8720 ss        1 PSG     -0.142000
     11 C1         -2.6030    1.9310    0.5490 c3        1 PSG      0.163200
     12 C2         -4.1350    1.9910    0.5470 c3        1 PSG      0.092100
     13 C3         -4.6190    3.1200   -0.3820 c3        1 PSG      0.112100
     14 C4         -3.9150    4.4410   -0.0320 c3        1 PSG      0.126100
     15 C5         -2.3960    4.2310   -0.0720 c3        1 PSG      0.091100
     16 C6         -1.6490    5.4820    0.3980 c3        1 PSG      0.141400
     17 O2         -4.6990    0.8050    0.0120 oh        1 PSG     -0.596800
     18 O3         -6.0060    3.3460   -0.2050 oh        1 PSG     -0.601800
     19 O4         -4.2260    5.4340   -0.9920 oh        1 PSG     -0.592800
     20 O5         -2.0260    3.1930    0.8440 os        1 PSG     -0.411600
     21 O6         -0.2540    5.3040    0.2950 oh        1 PSG     -0.591800
     22 H7          0.0120    2.0310    0.2220 ha        1 PSG      0.157500
     23 H8          2.3640    1.2750   -0.0800 ha        1 PSG      0.174500
     24 H10         1.6430   -2.0190    2.6750 ha        1 PSG      0.174500
     25 H11        -0.7210   -1.2720    2.9300 ha        1 PSG      0.157500
     26 H1         -2.2280    1.5620   -0.4430 h2        1 PSG      0.082700
     27 H2         -4.5170    2.1670    1.5920 h1        1 PSG      0.075700
     28 H3         -4.4120    2.8400   -1.4520 h1        1 PSG      0.068700
     29 H4         -4.2390    4.7810    0.9910 h1        1 PSG      0.065700
     30 H5         -2.0700    3.9490   -1.1100 h1        1 PSG      0.071700
     31 H62        -1.8980    6.3330   -0.2910 h1        1 PSG      0.068200
     32 H61        -1.9410    5.7320    1.4510 h1        1 PSG      0.068200
     33 H2O1       -4.4300    0.0760    0.5870 ho        1 PSG      0.421000
     34 H3O1       -6.4510    2.5130   -0.4120 ho        1 PSG      0.428000
     35 H4O1       -5.1910    5.4970   -1.0160 ho        1 PSG      0.427000
     36 H6O1       -0.0130    4.5960    0.9060 ho        1 PSG      0.407000
@<TRIPOS>BOND
     1    1    2 ar  
     2    1    6 ar  
     3    1   22 1   
     4    2    3 ar  
     5    2   23 1   
     6    3    4 ar  
     7    3    7 1   
     8    4    5 ar  
     9    4   24 1   
    10    5    6 ar  
    11    5   25 1   
    12    6   10 1   
    13    7    8 1   
    14    7    9 1   
    15   10   11 1   
    16   11   12 1   
    17   11   20 1   
    18   11   26 1   
    19   12   13 1   
    20   12   17 1   
    21   12   27 1   
    22   13   14 1   
    23   13   18 1   
    24   13   28 1   
    25   14   15 1   
    26   14   19 1   
    27   14   29 1   
    28   15   16 1   
    29   15   20 1   
    30   15   30 1   
    31   16   21 1   
    32   16   31 1   
    33   16   32 1   
    34   17   33 1   
    35   18   34 1   
    36   19   35 1   
    37   21   36 1   
@<TRIPOS>SUBSTRUCTURE
     1 PSG         1 TEMP              0 ****  ****    0 ROOT
