@<TRIPOS>MOLECULE
PSH
   24    24     1     0     0
SMALL
bcc


@<TRIPOS>ATOM
      1 N          -2.3300    0.9600    1.5260 n3        1 PSH     -0.904800
      2 CA         -2.8080    0.5500    0.2120 c3        1 PSH      0.006500
      3 CB         -2.2950   -0.8240   -0.2220 c3        1 PSH     -0.109700
      4 CG         -0.8240   -0.8770   -0.3670 cc        1 PSH      0.390600
      5 CD2         0.0880    0.1680   -0.1950 cd        1 PSH     -0.240600
      6 ND1        -0.1120   -2.0590   -0.7220 nc        1 PSH     -0.641000
      7 CE1         1.1740   -1.7240   -0.7570 cd        1 PSH      0.430400
      8 NE2         1.3810   -0.3550   -0.4350 na        1 PSH     -0.396700
      9 C          -4.3700    0.5470    0.0590 c         1 PSH      0.893600
     10 O          -5.0530    1.0060    1.0160 o         1 PSH     -0.833300
     11 P           2.7420    0.3960   -0.3490 p5        1 PSH      1.352600
     12 S           3.0780    0.5480    1.7630 sh        1 PSH     -0.594200
     13 O1          2.5610    1.9270   -0.7980 oh        1 PSH     -0.751400
     14 O2          3.9010   -0.1040   -1.0810 o         1 PSH     -0.778300
     15 OXT        -4.8410    0.1060   -1.0240 o         1 PSH     -0.833300
     16 HN1        -2.9050    1.7350    1.8200 hn        1 PSH      0.337800
     17 HN2        -2.5080    0.2170    2.1780 hn        1 PSH      0.337800
     18 HA         -2.4260    1.3200   -0.5210 h1        1 PSH      0.040700
     19 HB1        -2.6250   -1.6100    0.5090 hc        1 PSH      0.082200
     20 HB2        -2.7840   -1.0640   -1.2090 hc        1 PSH      0.082200
     21 HD2        -0.0740    1.2150    0.0690 h4        1 PSH      0.214000
     22 HE1         2.0210   -2.3770   -1.0030 h5        1 PSH      0.072100
     23 HS          1.8560    0.7470    2.2710 hs        1 PSH      0.351800
     24 HO1         3.2510    2.2640   -1.3690 ho        1 PSH      0.489000
@<TRIPOS>BOND
     1    1    2 1   
     2    1   16 1   
     3    1   17 1   
     4    2    3 1   
     5    2    9 1   
     6    2   18 1   
     7    3    4 1   
     8    3   19 1   
     9    3   20 1   
    10    4    5 2   
    11    4    6 1   
    12    5    8 1   
    13    5   21 1   
    14    6    7 2   
    15    7    8 1   
    16    7   22 1   
    17    8   11 1   
    18    9   10 1   
    19    9   15 1   
    20   11   12 1   
    21   11   13 1   
    22   11   14 2   
    23   12   23 1   
    24   13   24 1   
@<TRIPOS>SUBSTRUCTURE
     1 PSH         1 TEMP              0 ****  ****    0 ROOT
