@<TRIPOS>MOLECULE
PSI
   88    88     1     0     0
SMALL
bcc


@<TRIPOS>ATOM
      1 N          -6.7850    2.3840    4.0610 n3        1 PSI     -0.883800
      2 CA         -5.4740    1.9790    3.6050 c3        1 PSI      0.110500
      3 C          -5.3410    1.9490    2.0610 c         1 PSI      0.612100
      4 O          -6.3460    1.9960    1.3230 o         1 PSI     -0.620100
      5 CB         -5.0630    0.6080    4.1390 c3        1 PSI     -0.099100
      6 N1         -4.0620    1.9270    1.5370 n         1 PSI     -0.550900
      7 CA1        -3.8140    1.7540    0.1280 c3        1 PSI      0.036700
      8 C1         -3.1320    0.3870   -0.1490 c         1 PSI      0.629100
      9 O1         -2.2450   -0.0500    0.6130 o         1 PSI     -0.620100
     10 CB1        -2.8880    2.8240   -0.4540 c3        1 PSI     -0.104100
     11 C3          1.7820   -0.0510   -2.2890 c         1 PSI      0.661100
     12 O2          2.3740    0.6290   -3.1500 o         1 PSI     -0.612100
     13 CA3         0.6950   -1.0360   -2.6740 c3        1 PSI     -0.154400
     14 C2         -1.7460   -1.5670   -2.5520 c3        1 PSI      0.133100
     15 OS         -2.0730   -1.0580   -3.8320 oh        1 PSI     -0.594800
     16 CA2        -2.9840   -1.5920   -1.6110 c3        1 PSI      0.066700
     17 N2         -3.4850   -0.2680   -1.3110 n         1 PSI     -0.551900
     18 CB2        -4.0470   -2.4970   -2.2600 c3        1 PSI     -0.053100
     19 CG         -5.2970   -2.5750   -1.4600 ca        1 PSI     -0.091300
     20 CD1        -6.4100   -1.7990   -1.8070 ca        1 PSI     -0.129000
     21 CD2        -5.3780   -3.4340   -0.3570 ca        1 PSI     -0.129000
     22 CE1        -7.5830   -1.8780   -1.0600 ca        1 PSI     -0.123000
     23 CE2        -6.5530   -3.5120    0.3890 ca        1 PSI     -0.123000
     24 CZ         -7.6570   -2.7330    0.0400 ca        1 PSI     -0.126000
     25 N4          2.0720    0.0850   -0.9420 n         1 PSI     -0.551900
     26 CA4         3.1710    0.8820   -0.4710 c3        1 PSI      0.042700
     27 C4          4.3750   -0.0110   -0.0620 c         1 PSI      0.641100
     28 O3          4.2160   -1.1320    0.4580 o         1 PSI     -0.610100
     29 CB3         2.8210    1.7640    0.7510 c3        1 PSI     -0.067700
     30 CG1         1.9190    2.9050    0.3350 c3        1 PSI     -0.098600
     31 CG2         2.1950    0.9710    1.8780 c3        1 PSI     -0.098600
     32 N5          5.6330    0.5050   -0.3000 n         1 PSI     -0.562900
     33 CA5         6.8410   -0.1830    0.0660 c3        1 PSI      0.067700
     34 C5          7.5750    0.6070    1.1530 c         1 PSI      0.608100
     35 O4          7.8340    1.8110    1.1770 o         1 PSI     -0.545000
     36 CB4         7.8310   -0.3770   -1.1110 c3        1 PSI     -0.075700
     37 CG11        9.0120   -1.2040   -0.6440 c3        1 PSI     -0.094600
     38 CG21        7.1550   -1.0520   -2.2850 c3        1 PSI     -0.094600
     39 C6          8.6620    0.4810    3.2650 c3        1 PSI      0.123700
     40 O5          7.9650   -0.1720    2.2030 os        1 PSI     -0.429900
     41 H          -7.0570    3.2380    3.6120 hn        1 PSI      0.360800
     42 H2         -7.4660    1.6800    3.8450 hn        1 PSI      0.360800
     43 HA         -4.7470    2.7550    3.9980 h1        1 PSI      0.076700
     44 HB1        -5.6880   -0.1990    3.6870 hc        1 PSI      0.051367
     45 HB2        -3.9920    0.4110    3.8990 hc        1 PSI      0.051367
     46 HB3        -5.1880    0.5750    5.2490 hc        1 PSI      0.051367
     47 H1         -3.2950    1.7380    2.1410 hn        1 PSI      0.324500
     48 HA1        -4.8120    1.8100   -0.4060 h1        1 PSI      0.099700
     49 HB11       -1.8790    2.7810    0.0240 hc        1 PSI      0.052367
     50 HB21       -2.7730    2.6470   -1.5500 hc        1 PSI      0.052367
     51 HB31       -3.3200    3.8400   -0.2950 hc        1 PSI      0.052367
     52 HA3         1.0740   -2.0770   -2.5010 hc        1 PSI      0.081200
     53 HM2        -0.8280    0.2910   -1.8950 hc        1 PSI      0.065700
     54 HA2        -2.6460   -2.0710   -0.6400 h1        1 PSI      0.081700
     55 H3         -4.3310   -0.0050   -1.7650 hn        1 PSI      0.315500
     56 HB12       -4.2640   -2.1220   -3.2970 hc        1 PSI      0.067700
     57 HB22       -3.5990   -3.5220   -2.3640 hc        1 PSI      0.067700
     58 HD1        -6.3610   -1.1310   -2.6800 ha        1 PSI      0.130000
     59 HD2        -4.5080   -4.0480   -0.0800 ha        1 PSI      0.130000
     60 HE1        -8.4520   -1.2620   -1.3360 ha        1 PSI      0.134500
     61 HE2        -6.6090   -4.1890    1.2530 ha        1 PSI      0.134500
     62 HZ         -8.5830   -2.7940    0.6290 ha        1 PSI      0.134000
     63 HC         -1.4450   -2.6350   -2.7550 h1        1 PSI      0.078700
     64 HOS        -2.2130   -0.1080   -3.7430 ho        1 PSI      0.404000
     65 HM3        -0.4900   -1.1350   -0.8440 hc        1 PSI      0.065700
     66 HA31        0.5060   -0.9180   -3.7770 hc        1 PSI      0.081200
     67 H5          1.6920   -0.5670   -0.2940 hn        1 PSI      0.326500
     68 HA4         3.4810    1.5680   -1.3190 h1        1 PSI      0.099700
     69 HB          3.7960    2.1970    1.1160 hc        1 PSI      0.056700
     70 HG11        0.9330    2.5230   -0.0260 hc        1 PSI      0.043200
     71 HG12        1.7360    3.5790    1.2070 hc        1 PSI      0.043200
     72 HG13        2.3890    3.5020   -0.4830 hc        1 PSI      0.043200
     73 HG21        2.7660    0.0260    2.0570 hc        1 PSI      0.043200
     74 HG22        2.2030    1.5770    2.8170 hc        1 PSI      0.043200
     75 HG23        1.1350    0.7090    1.6450 hc        1 PSI      0.043200
     76 H6          5.7320    1.4020   -0.7120 hn        1 PSI      0.325500
     77 HA5         6.5690   -1.2020    0.4830 h1        1 PSI      0.122700
     78 HB4         8.2010    0.6370   -1.4330 hc        1 PSI      0.061700
     79 HG14        8.6840   -2.2360   -0.3690 hc        1 PSI      0.043367
     80 HG15        9.7700   -1.2770   -1.4600 hc        1 PSI      0.043367
     81 HG16        9.4940   -0.7380    0.2500 hc        1 PSI      0.043367
     82 HG24        6.4060   -0.3750   -2.7610 hc        1 PSI      0.043367
     83 HG25        7.9180   -1.3230   -3.0550 hc        1 PSI      0.043367
     84 HG26        6.6360   -1.9840   -1.9570 hc        1 PSI      0.043367
     85 H22         9.6140    0.9200    2.8800 h1        1 PSI      0.051700
     86 H31         8.0220    1.2830    3.7050 h1        1 PSI      0.051700
     87 H7          8.8550   -0.3400    3.9990 h1        1 PSI      0.051700
     88 CM         -0.5900   -0.8060   -1.9120 c3        1 PSI     -0.112400
@<TRIPOS>BOND
     1    1    2 1   
     2    1   41 1   
     3    1   42 1   
     4    2    3 1   
     5    2    5 1   
     6    2   43 1   
     7    3    4 2   
     8    3    6 1   
     9    5   44 1   
    10    5   45 1   
    11    5   46 1   
    12    6    7 1   
    13    6   47 1   
    14    7    8 1   
    15    7   10 1   
    16    7   48 1   
    17    8    9 2   
    18    8   17 1   
    19   10   49 1   
    20   10   50 1   
    21   10   51 1   
    22   11   12 2   
    23   11   13 1   
    24   11   25 1   
    25   13   52 1   
    26   13   66 1   
    27   13   88 1   
    28   14   15 1   
    29   14   16 1   
    30   14   63 1   
    31   14   88 1   
    32   15   64 1   
    33   16   17 1   
    34   16   18 1   
    35   16   54 1   
    36   17   55 1   
    37   18   19 1   
    38   18   56 1   
    39   18   57 1   
    40   19   20 ar  
    41   19   21 ar  
    42   20   22 ar  
    43   20   58 1   
    44   21   23 ar  
    45   21   59 1   
    46   22   24 ar  
    47   22   60 1   
    48   23   24 ar  
    49   23   61 1   
    50   24   62 1   
    51   25   26 1   
    52   25   67 1   
    53   26   27 1   
    54   26   29 1   
    55   26   68 1   
    56   27   28 2   
    57   27   32 1   
    58   29   30 1   
    59   29   31 1   
    60   29   69 1   
    61   30   70 1   
    62   30   71 1   
    63   30   72 1   
    64   31   73 1   
    65   31   74 1   
    66   31   75 1   
    67   32   33 1   
    68   32   76 1   
    69   33   34 1   
    70   33   36 1   
    71   33   77 1   
    72   34   35 2   
    73   34   40 1   
    74   36   37 1   
    75   36   38 1   
    76   36   78 1   
    77   37   79 1   
    78   37   80 1   
    79   37   81 1   
    80   38   82 1   
    81   38   83 1   
    82   38   84 1   
    83   39   40 1   
    84   39   85 1   
    85   39   86 1   
    86   39   87 1   
    87   53   88 1   
    88   65   88 1   
@<TRIPOS>SUBSTRUCTURE
     1 PSI         1 TEMP              0 ****  ****    0 ROOT
