@<TRIPOS>MOLECULE
PSJ
   24    23     1     0     0
SMALL
bcc


@<TRIPOS>ATOM
      1 C1         -2.6950   -0.8320    0.4400 c3        1 PSJ      0.027400
      2 O1         -3.7150   -0.9540   -0.5330 oh        1 PSJ     -0.575800
      3 C2         -1.9250    0.4370    0.1750 c         1 PSJ      0.537100
      4 O2         -2.3410    1.3890   -0.4820 o         1 PSJ     -0.488100
      5 C3         -0.5400    0.4510    0.8070 c3        1 PSJ      0.018100
      6 O3         -0.1020    1.7700    1.0400 oh        1 PSJ     -0.577800
      7 C4          0.4310   -0.3520   -0.0910 c3        1 PSJ      0.086100
      8 O4          0.5220   -1.6800    0.3850 oh        1 PSJ     -0.599800
      9 C5          1.8040    0.3380   -0.1790 c3        1 PSJ      0.102100
     10 O5          1.7490    1.4300   -1.0760 oh        1 PSJ     -0.581800
     11 C6          2.8960   -0.6530   -0.5980 c3        1 PSJ      0.096400
     12 O6          3.2700   -1.3570    0.5760 oh        1 PSJ     -0.607800
     13 H1         -3.1350   -0.7740    1.4730 h1        1 PSJ      0.057700
     14 H1A        -1.9910   -1.7090    0.3800 h1        1 PSJ      0.057700
     15 HO1        -4.2370   -1.7260   -0.2830 ho        1 PSJ      0.405000
     16 H3         -0.5830   -0.0180    1.8320 h1        1 PSJ      0.095700
     17 HO3        -0.0750    2.2260    0.1850 ho        1 PSJ      0.430000
     18 H4         -0.0040   -0.4560   -1.1270 h1        1 PSJ      0.076700
     19 HO4         1.1650   -1.6940    1.1090 ho        1 PSJ      0.427000
     20 H5          2.0690    0.8040    0.8150 h1        1 PSJ      0.118700
     21 HO5         1.5740    1.0780   -1.9580 ho        1 PSJ      0.402000
     22 H6          2.5060   -1.3660   -1.3720 h1        1 PSJ      0.041200
     23 H6A         3.7770   -0.0920   -1.0080 h1        1 PSJ      0.041200
     24 HO6         3.8900   -2.0430    0.3020 ho        1 PSJ      0.413000
@<TRIPOS>BOND
     1    1    2 1   
     2    1    3 1   
     3    1   13 1   
     4    1   14 1   
     5    2   15 1   
     6    3    4 2   
     7    3    5 1   
     8    5    6 1   
     9    5    7 1   
    10    5   16 1   
    11    6   17 1   
    12    7    8 1   
    13    7    9 1   
    14    7   18 1   
    15    8   19 1   
    16    9   10 1   
    17    9   11 1   
    18    9   20 1   
    19   10   21 1   
    20   11   12 1   
    21   11   22 1   
    22   11   23 1   
    23   12   24 1   
@<TRIPOS>SUBSTRUCTURE
     1 PSJ         1 TEMP              0 ****  ****    0 ROOT
