@<TRIPOS>MOLECULE
PSK
   27    26     1     0     0
SMALL
bcc


@<TRIPOS>ATOM
      1 CAA         4.4220    0.9700    0.2350 c3        1 PSK     -0.096100
      2 CAJ         3.5610   -0.0430   -0.4720 c3        1 PSK     -0.109400
      3 CAQ         2.0850    0.1610   -0.1430 c3        1 PSK      0.144100
      4 OAG         1.8210   -0.0090    1.2390 oh        1 PSK     -0.597800
      5 CAP         1.2000   -0.7600   -1.0060 c3        1 PSK     -0.183700
      6 CAB         1.2960   -2.2120   -0.5960 c3        1 PSK     -0.095100
      7 CAN        -0.2210   -0.2720   -0.9530 c         1 PSK      0.605100
      8 OAE        -0.7440    0.3890   -1.8600 o         1 PSK     -0.552100
      9 CAL        -1.0590   -0.5510    0.2470 c3        1 PSK     -0.511600
     10 P1         -2.5140    0.2160    0.0550 p5        1 PSK      1.468300
     11 OAH        -3.5550   -0.4790   -0.6870 o         1 PSK     -0.850300
     12 OAF        -3.0880    0.3390    1.5560 oh        1 PSK     -0.802400
     13 HAA1        4.2030    2.0010   -0.1350 hc        1 PSK      0.043033
     14 HAA2        4.2260    0.9450    1.3350 hc        1 PSK      0.043033
     15 HAA3        5.5020    0.7520    0.0570 hc        1 PSK      0.043033
     16 HAJ1        3.7020    0.0430   -1.5810 hc        1 PSK      0.049700
     17 HAJ2        3.8700   -1.0790   -0.1710 hc        1 PSK      0.049700
     18 HAQ         1.7980    1.2350   -0.3410 h1        1 PSK      0.085700
     19 HOAG        2.2330   -0.8370    1.5160 ho        1 PSK      0.404000
     20 HAP         1.5560   -0.6610   -2.0730 hc        1 PSK      0.090700
     21 HAB1        2.3450   -2.5760   -0.7220 hc        1 PSK      0.047367
     22 HAB2        0.9980   -2.3470    0.4730 hc        1 PSK      0.047367
     23 HAB3        0.6260   -2.8400   -1.2320 hc        1 PSK      0.047367
     24 HAL1       -1.1860   -1.6620    0.3550 hc        1 PSK      0.148200
     25 HAL2       -0.4920   -0.2310    1.1670 hc        1 PSK      0.148200
     26 HP1        -2.2230    1.4290   -0.2200 hp        1 PSK     -0.139400
     27 HOAF       -3.9570   -0.0290    1.6950 ho        1 PSK      0.476000
@<TRIPOS>BOND
     1    1    2 1   
     2    1   13 1   
     3    1   14 1   
     4    1   15 1   
     5    2    3 1   
     6    2   16 1   
     7    2   17 1   
     8    3    4 1   
     9    3    5 1   
    10    3   18 1   
    11    4   19 1   
    12    5    6 1   
    13    5    7 1   
    14    5   20 1   
    15    6   21 1   
    16    6   22 1   
    17    6   23 1   
    18    7    8 2   
    19    7    9 1   
    20    9   10 1   
    21    9   24 1   
    22    9   25 1   
    23   10   11 2   
    24   10   12 1   
    25   10   26 1   
    26   12   27 1   
@<TRIPOS>SUBSTRUCTURE
     1 PSK         1 TEMP              0 ****  ****    0 ROOT
