@<TRIPOS>MOLECULE
PSK
   27    26     1     0     0
SMALL
bcc


@<TRIPOS>ATOM
      1 CAA         0.0320   -0.2370   -0.0500 c3        1 PSK     -0.093100
      2 CAJ         1.5200   -0.0090    0.0020 c3        1 PSK     -0.075400
      3 CAQ         2.0080    0.1270    1.4420 c3        1 PSK      0.156100
      4 OAG         1.6090    1.4100    1.8950 oh        1 PSK     -0.598800
      5 CAP         3.5360   -0.0450    1.5300 c3        1 PSK     -0.186700
      6 CAB         4.2640    1.1010    0.8550 c3        1 PSK     -0.085100
      7 CAN         3.9760   -0.1540    2.9600 c         1 PSK      0.602100
      8 OAE         3.3490    0.3070    3.9250 o         1 PSK     -0.564100
      9 CAL         5.2520   -0.8640    3.2700 c3        1 PSK     -0.504600
     10 P1          5.4790   -0.8230    4.9140 p5        1 PSK      1.464300
     11 OAH         4.8090   -1.8350    5.7150 o         1 PSK     -0.844300
     12 OAF         7.0540   -1.1220    5.0810 oh        1 PSK     -0.803400
     13 HAA1       -0.2400   -1.2030    0.4410 hc        1 PSK      0.040033
     14 HAA2       -0.3160   -0.2690   -1.1100 hc        1 PSK      0.040033
     15 HAA3       -0.5020    0.5900    0.4790 hc        1 PSK      0.040033
     16 HAJ1        2.0580   -0.8640   -0.4840 hc        1 PSK      0.049700
     17 HAJ2        1.7780    0.9280   -0.5580 hc        1 PSK      0.049700
     18 HAQ         1.5280   -0.6660    2.0860 h1        1 PSK      0.043700
     19 HOAG        1.7780    1.4390    2.8470 ho        1 PSK      0.422000
     20 HAP         3.8070   -1.0090    1.0130 hc        1 PSK      0.076700
     21 HAB1        4.0460    1.0870   -0.2400 hc        1 PSK      0.051033
     22 HAB2        3.9130    2.0770    1.2710 hc        1 PSK      0.051033
     23 HAB3        5.3670    1.0120    1.0020 hc        1 PSK      0.051033
     24 HAL1        5.1850   -1.9190    2.8890 hc        1 PSK      0.139200
     25 HAL2        6.0940   -0.3980    2.6950 hc        1 PSK      0.139200
     26 HP1         5.4090    0.4120    5.2280 hp        1 PSK     -0.137400
     27 HOAF        7.2790   -1.8550    5.6500 ho        1 PSK      0.478000
@<TRIPOS>BOND
     1    1    2 1   
     2    1   13 1   
     3    1   14 1   
     4    1   15 1   
     5    2    3 1   
     6    2   16 1   
     7    2   17 1   
     8    3    4 1   
     9    3    5 1   
    10    3   18 1   
    11    4   19 1   
    12    5    6 1   
    13    5    7 1   
    14    5   20 1   
    15    6   21 1   
    16    6   22 1   
    17    6   23 1   
    18    7    8 2   
    19    7    9 1   
    20    9   10 1   
    21    9   24 1   
    22    9   25 1   
    23   10   11 2   
    24   10   12 1   
    25   10   26 1   
    26   12   27 1   
@<TRIPOS>SUBSTRUCTURE
     1 PSK         1 TEMP              0 ****  ****    0 ROOT
