@<TRIPOS>MOLECULE
PSK
   26    25     1     0     0
SMALL
bcc


@<TRIPOS>ATOM
      1 CAA        -0.0060   -0.4510    0.4910 c3        1 PSK     -0.087100
      2 CAJ         1.4910   -0.3190    0.3910 c3        1 PSK     -0.077400
      3 CAQ         2.0780    0.3360    1.6390 c3        1 PSK      0.163100
      4 OAG         1.6940    1.7070    1.6070 oh        1 PSK     -0.631800
      5 CAP         3.5990    0.1620    1.6950 c3        1 PSK     -0.232700
      6 CAB         4.3010    0.9610    0.6220 c3        1 PSK     -0.068100
      7 CAN         4.1440    0.5390    3.0660 c         1 PSK      0.623100
      8 OAE         3.5430    1.3710    3.7690 o         1 PSK     -0.611100
      9 CAL         5.4010   -0.1070    3.4780 c3        1 PSK     -0.416600
     10 P1          5.2730   -1.7770    3.9350 p5        1 PSK      1.259600
     11 OAH         4.6990   -2.5180    2.7840 o         1 PSK     -0.869500
     12 OAF         6.5560   -2.1710    4.5560 o         1 PSK     -0.869500
     13 HAA1       -0.4240   -0.8740   -0.4540 hc        1 PSK      0.028033
     14 HAA2       -0.2870   -1.1280    1.3350 hc        1 PSK      0.028033
     15 HAA3       -0.4690    0.5490    0.6740 hc        1 PSK      0.028033
     16 HAJ1        1.9600   -1.3300    0.2680 hc        1 PSK      0.049200
     17 HAJ2        1.7560    0.3010   -0.5050 hc        1 PSK      0.049200
     18 HAQ         1.6350   -0.1410    2.5600 h1        1 PSK      0.042700
     19 HOAG        2.0800    2.1150    2.3950 ho        1 PSK      0.422000
     20 HAP         3.8340   -0.9460    1.5690 hc        1 PSK      0.146700
     21 HAB1        4.0120    2.0380    0.6870 hc        1 PSK      0.031033
     22 HAB2        5.4090    0.8740    0.7290 hc        1 PSK      0.031033
     23 HAB3        4.0100    0.5770   -0.3860 hc        1 PSK      0.031033
     24 HAL1        5.8580    0.4500    4.3320 hc        1 PSK      0.087200
     25 HAL2        6.1250   -0.0770    2.6270 hc        1 PSK      0.087200
     26 HP1         4.3440   -1.6440    4.8680 hp        1 PSK     -0.244400
@<TRIPOS>BOND
     1    1    2 1   
     2    1   13 1   
     3    1   14 1   
     4    1   15 1   
     5    2    3 1   
     6    2   16 1   
     7    2   17 1   
     8    3    4 1   
     9    3    5 1   
    10    3   18 1   
    11    4   19 1   
    12    5    6 1   
    13    5    7 1   
    14    5   20 1   
    15    6   21 1   
    16    6   22 1   
    17    6   23 1   
    18    7    8 2   
    19    7    9 1   
    20    9   10 1   
    21    9   24 1   
    22    9   25 1   
    23   10   11 1   
    24   10   12 1   
    25   10   26 1   
@<TRIPOS>SUBSTRUCTURE
     1 PSK         1 TEMP              0 ****  ****    0 ROOT
