@<TRIPOS>MOLECULE
PSM
   65    65     1     0     0
SMALL
bcc


@<TRIPOS>ATOM
      1 C15        -1.3110   -0.3360    0.5050 c         1 PSM      0.641100
      2 O1         -0.5570   -0.5100    1.4880 o         1 PSM     -0.647100
      3 C1         -3.1500   -0.1600    2.2090 c3        1 PSM      0.151100
      4 O2         -2.5240    0.7820    3.0580 oh        1 PSM     -0.603800
      5 N4         -2.9860    1.4690    0.3190 n3        1 PSM     -0.913100
      6 C5         -2.7840    0.1080    0.7200 c3        1 PSM      0.143500
      7 S1         -3.5590    1.9180   -1.1250 s6        1 PSM      1.458900
      8 O4         -3.2040    3.2540   -1.3820 o         1 PSM     -0.651800
      9 O3         -3.1860    0.9400   -2.0780 o         1 PSM     -0.651800
     10 C9         -5.2600    1.8350   -0.9040 c3        1 PSM     -0.324600
     11 C8         -5.9870    2.1310   -2.1990 c3        1 PSM     -0.057400
     12 C7         -7.4810    2.0580   -2.0270 c3        1 PSM     -0.087100
     13 N17        -0.8960   -0.5410   -0.7830 n         1 PSM     -0.548900
     14 C18         0.4370   -0.9970   -1.0970 c3        1 PSM      0.037700
     15 C28         1.4590    0.1710   -1.1650 c         1 PSM      0.633100
     16 O30         2.0830    0.4180   -2.2150 o         1 PSM     -0.604100
     17 C19         0.5040   -1.7660   -2.4250 c3        1 PSM     -0.074400
     18 C20        -0.3140   -3.0290   -2.3770 c3        1 PSM     -0.018300
     19 S2          0.1350   -3.9950   -3.7910 ss        1 PSM     -0.278200
     20 C6         -0.9570   -5.3580   -3.6620 c3        1 PSM     -0.046000
     21 N31         1.6130    0.9230   -0.0190 n         1 PSM     -0.552900
     22 C32         2.6130    1.9530    0.0820 c3        1 PSM      0.127300
     23 C25         3.9430    1.4930    0.6110 ca        1 PSM     -0.111300
     24 C16         4.7650    0.6890   -0.1850 ca        1 PSM     -0.124000
     25 C17         6.0110    0.2760    0.2840 ca        1 PSM     -0.102500
     26 C22         6.4420    0.6760    1.5530 ca        1 PSM     -0.138900
     27 C26         7.7840    0.2360    2.0540 ce        1 PSM      0.649800
     28 N1          8.0750   -1.0290    2.0170 n2        1 PSM     -0.824100
     29 N2          8.5720    1.2800    2.5900 nh        1 PSM     -0.957800
     30 C23         5.6210    1.4740    2.3550 ca        1 PSM     -0.102500
     31 C24         4.3730    1.8790    1.8830 ca        1 PSM     -0.124000
     32 H1         -2.7970   -1.2010    2.4550 h1        1 PSM      0.060700
     33 HO2        -1.5800    0.5620    3.0750 ho        1 PSM      0.433000
     34 HN4        -2.7420    2.1220    1.0320 hn        1 PSM      0.472800
     35 H5         -3.4440   -0.5610    0.0860 h1        1 PSM      0.074700
     36 H91        -5.5910    0.8280   -0.5350 h1        1 PSM      0.110200
     37 H92        -5.6120    2.5660   -0.1280 h1        1 PSM      0.110200
     38 H81        -5.7000    3.1580   -2.5560 hc        1 PSM      0.061700
     39 H82        -5.6610    1.3940   -2.9820 hc        1 PSM      0.061700
     40 H71        -7.7920    1.0380   -1.6940 hc        1 PSM      0.038367
     41 H72        -7.8290    2.7970   -1.2660 hc        1 PSM      0.038367
     42 H73        -7.9890    2.2830   -2.9960 hc        1 PSM      0.038367
     43 H17        -1.4990   -0.3240   -1.5500 hn        1 PSM      0.355500
     44 H18         0.7790   -1.6840   -0.2610 h1        1 PSM      0.088700
     45 H191        0.1650   -1.1060   -3.2670 hc        1 PSM      0.086700
     46 H192        1.5850   -2.0100   -2.6150 hc        1 PSM      0.086700
     47 H201       -0.1070   -3.6030   -1.4410 h1        1 PSM      0.059200
     48 H202       -1.4080   -2.8010   -2.4000 h1        1 PSM      0.059200
     49 H61        -0.8000   -5.9310   -2.7210 h1        1 PSM      0.062700
     50 H62        -2.0230   -5.0450   -3.7130 h1        1 PSM      0.062700
     51 H63        -0.7320   -6.0190   -4.5310 h1        1 PSM      0.062700
     52 H31         1.2540    0.5570    0.8360 hn        1 PSM      0.329500
     53 H321        2.7720    2.3970   -0.9450 h1        1 PSM      0.069200
     54 H322        2.1990    2.7570    0.7560 h1        1 PSM      0.069200
     55 H16         4.4180    0.3850   -1.1870 ha        1 PSM      0.145000
     56 H2          6.6480   -0.3700   -0.3380 ha        1 PSM      0.146500
     57 HN1         8.9770   -1.2890    2.3570 hn        1 PSM      0.381400
     58 HN21        8.3180    2.1950    2.3000 hn        1 PSM      0.397800
     59 HN22        9.5520    1.1230    2.6310 hn        1 PSM      0.397800
     60 H23         5.9490    1.7730    3.3620 ha        1 PSM      0.146500
     61 H24         3.7270    2.5030    2.5190 ha        1 PSM      0.145000
     62 C3         -4.6460   -0.0430    2.4300 c3        1 PSM     -0.098100
     63 H31A       -5.0010    0.9920    2.2130 hc        1 PSM      0.048700
     64 H32        -5.1840   -0.7630    1.7700 hc        1 PSM      0.048700
     65 H33        -4.8820   -0.2750    3.4970 hc        1 PSM      0.048700
@<TRIPOS>BOND
     1    1    2 2   
     2    1    6 1   
     3    1   13 1   
     4    3    4 1   
     5    3    6 1   
     6    3   32 1   
     7    3   62 1   
     8    4   33 1   
     9    5    6 1   
    10    5    7 1   
    11    5   34 1   
    12    6   35 1   
    13    7    8 2   
    14    7    9 2   
    15    7   10 1   
    16   10   11 1   
    17   10   36 1   
    18   10   37 1   
    19   11   12 1   
    20   11   38 1   
    21   11   39 1   
    22   12   40 1   
    23   12   41 1   
    24   12   42 1   
    25   13   14 1   
    26   13   43 1   
    27   14   15 1   
    28   14   17 1   
    29   14   44 1   
    30   15   16 2   
    31   15   21 1   
    32   17   18 1   
    33   17   45 1   
    34   17   46 1   
    35   18   19 1   
    36   18   47 1   
    37   18   48 1   
    38   19   20 1   
    39   20   49 1   
    40   20   50 1   
    41   20   51 1   
    42   21   22 1   
    43   21   52 1   
    44   22   23 1   
    45   22   53 1   
    46   22   54 1   
    47   23   24 ar  
    48   23   31 ar  
    49   24   25 ar  
    50   24   55 1   
    51   25   26 ar  
    52   25   56 1   
    53   26   27 1   
    54   26   30 ar  
    55   27   28 2   
    56   27   29 1   
    57   28   57 1   
    58   29   58 1   
    59   29   59 1   
    60   30   31 ar  
    61   30   60 1   
    62   31   61 1   
    63   62   63 1   
    64   62   64 1   
    65   62   65 1   
@<TRIPOS>SUBSTRUCTURE
     1 PSM         1 TEMP              0 ****  ****    0 ROOT
