@<TRIPOS>MOLECULE
PSM
   65    60     1     0     0
SMALL
bcc


@<TRIPOS>ATOM
      1 C15        -0.5350   -1.6240    0.8430 c1        1 PSM      0.292000
      2 O1          0.6590   -1.4200    0.8050 o         1 PSM     -0.382000
      3 C1         -0.7960   -2.0000    3.2780 c3        1 PSM      0.028000
      4 O2         -0.1680   -1.0820    4.1710 oh        1 PSM     -0.313000
      5 N4         -1.2210    0.1710    2.3300 n3        1 PSM     -0.873000
      6 C5         -1.3340   -1.2510    2.0910 c3        1 PSM     -0.003000
      7 C3         -1.9430   -2.7110    4.0010 c3        1 PSM     -0.254000
      8 S1         -2.5650    1.0540    2.7350 s4        1 PSM      2.024800
      9 O4         -3.7580    0.3130    2.4960 o         1 PSM     -0.535400
     10 O3         -2.6460    1.2650    4.1680 o         1 PSM     -0.535400
     11 C9         -2.5790    2.6080    1.8510 c2        1 PSM     -0.869000
     12 C8         -2.7020    3.7600    2.8460 c3        1 PSM     -0.136000
     13 C7         -3.1100    5.0610    2.0900 c3        1 PSM     -0.207000
     14 N17        -1.2060   -2.1500   -0.3060 n2        1 PSM     -0.370000
     15 C18        -0.4760   -2.3580   -1.5310 c3        1 PSM      0.013000
     16 C28        -0.5050   -1.0900   -2.3570 c2        1 PSM      0.277000
     17 O30        -1.5580   -0.6290   -2.7140 o         1 PSM     -0.363000
     18 C19        -1.1120   -3.4860   -2.3140 c3        1 PSM     -0.154000
     19 C20        -0.2690   -4.7690   -2.1420 c3        1 PSM     -0.281000
     20 S2         -0.9910   -6.0790   -3.0780 ss        1 PSM      0.082000
     21 C6         -0.6990   -7.6350   -2.2500 c3        1 PSM     -0.344000
     22 N31         0.7220   -0.4010   -2.6650 n         1 PSM     -0.365000
     23 C32         0.6780    0.9370   -3.1750 c3        1 PSM      0.001000
     24 C25         1.8220    1.7500   -2.5750 c2        1 PSM     -0.100000
     25 C16         1.9480    1.8580   -1.1940 c2        1 PSM     -0.127000
     26 C17         3.0010    2.6070   -0.6400 c1        1 PSM     -0.115000
     27 C22         3.9170    3.2400   -1.4720 c1        1 PSM     -0.108000
     28 C26         5.0960    4.0490   -0.8590 c2        1 PSM      0.114000
     29 N1          6.2310    3.4570   -0.6080 n1        1 PSM     -0.301000
     30 N2          4.9400    5.4180   -0.5740 n3        1 PSM     -0.332000
     31 C23         3.7900    3.1310   -2.8690 c1        1 PSM     -0.097000
     32 C24         2.7470    2.3900   -3.4170 c1        1 PSM     -0.116000
     33 H1         -0.1340   -2.6690    2.9730 h1        1 PSM      0.118000
     34 HO2         0.5840   -1.4420    4.4890 ho        1 PSM      0.208000
     35 HN4        -0.4050    0.5830    2.2640 hn        1 PSM      0.258000
     36 H5         -2.2770   -1.4860    1.9570 h1        1 PSM      0.136000
     37 H31A       -2.8140   -2.3460    3.6810 hc        1 PSM      0.095667
     38 H32        -1.8610   -2.5630    4.9620 hc        1 PSM      0.095667
     39 H33        -1.9020   -3.6780    3.8120 hc        1 PSM      0.095667
     40 H91        -3.3530    2.6260    1.2270 ha        1 PSM      0.157000
     41 H92        -1.7490    2.7020    1.3450 ha        1 PSM      0.157000
     42 H81        -3.3800    3.5440    3.5060 hc        1 PSM      0.099000
     43 H82        -1.8440    3.8980    3.2930 hc        1 PSM      0.099000
     44 H71        -2.6140    5.1160    1.2390 hc        1 PSM      0.076333
     45 H72        -2.8940    5.8530    2.6510 hc        1 PSM      0.076333
     46 H73        -4.0860    5.0430    1.9050 hc        1 PSM      0.076333
     47 H17        -2.0800   -2.4200   -0.2420 hn        1 PSM      0.237000
     48 H18         0.4290   -2.5850   -1.3260 h1        1 PSM      0.133000
     49 H191       -1.1490   -3.2430   -3.2690 hc        1 PSM      0.123000
     50 H192       -2.0260   -3.6450   -1.9790 hc        1 PSM      0.123000
     51 H201        0.6330   -4.6070   -2.4560 h1        1 PSM      0.100500
     52 H202       -0.2440   -5.0180   -1.2000 h1        1 PSM      0.100500
     53 H61        -0.4130   -7.4650   -1.3250 h1        1 PSM      0.104000
     54 H62        -1.5250   -8.1610   -2.2460 h1        1 PSM      0.104000
     55 H63         0.0020   -8.1310   -2.7240 h1        1 PSM      0.104000
     56 H31         1.5070   -0.8290   -2.5960 hn        1 PSM      0.243000
     57 H321       -0.1710    1.3470   -2.9360 h1        1 PSM      0.109000
     58 H322        0.7670    0.9180   -4.1330 h1        1 PSM      0.109000
     59 H16         1.3160    1.4220   -0.6190 ha        1 PSM      0.137000
     60 H2          3.0900    2.6820    0.3350 ha        1 PSM      0.140000
     61 HN1         6.3320    2.5780   -0.7900 DU        1 PSM      0.151000
     62 HN21        5.6720    5.9370   -0.4190 hn        1 PSM      0.194000
     63 HN22        4.1160    5.7670   -0.4840 hn        1 PSM      0.194000
     64 H23         4.4350    3.5770   -3.4560 ha        1 PSM      0.153000
     65 H24         2.6560    2.3140   -4.4070 ha        1 PSM      0.147000
@<TRIPOS>BOND
     1    1    2 1   
     2    1    6 1   
     3    3    4 1   
     4    3    6 1   
     5    3    7 1   
     6    3   33 1   
     7    4   34 1   
     8    5    6 1   
     9    5    8 1   
    10    5   35 1   
    11    6   36 1   
    12    7   37 1   
    13    7   38 1   
    14    7   39 1   
    15    8    9 1   
    16    8   10 1   
    17   11   12 1   
    18   11   40 1   
    19   11   41 1   
    20   12   13 1   
    21   12   42 1   
    22   12   43 1   
    23   13   44 1   
    24   13   45 1   
    25   13   46 1   
    26   14   15 1   
    27   14   47 1   
    28   15   16 1   
    29   15   18 1   
    30   15   48 1   
    31   16   17 1   
    32   16   22 1   
    33   18   19 1   
    34   18   49 1   
    35   18   50 1   
    36   19   20 1   
    37   19   51 1   
    38   19   52 1   
    39   20   21 1   
    40   21   53 1   
    41   21   54 1   
    42   21   55 1   
    43   22   23 1   
    44   22   56 1   
    45   23   24 1   
    46   23   57 1   
    47   23   58 1   
    48   24   25 1   
    49   24   32 1   
    50   25   26 1   
    51   25   59 1   
    52   26   60 1   
    53   27   28 1   
    54   27   31 1   
    55   28   29 1   
    56   28   30 1   
    57   30   62 1   
    58   30   63 1   
    59   31   64 1   
    60   32   65 1   
@<TRIPOS>SUBSTRUCTURE
     1 PSM         1 TEMP              0 ****  ****    0 ROOT
