@<TRIPOS>MOLECULE
PSN
   32    33     1     0     0
SMALL
bcc


@<TRIPOS>ATOM
      1 C1         17.1180   23.6100   20.9680 ca        1 PSN     -0.092000
      2 C2         15.8430   23.0610   20.7960 ca        1 PSN     -0.207000
      3 C3         14.9080   23.7300   20.0160 ca        1 PSN     -0.060000
      4 C4         15.2210   24.9450   19.3950 ca        1 PSN     -0.257600
      5 C5         16.5090   25.5060   19.5760 ca        1 PSN      0.275100
      6 C6         17.4530   24.8170   20.3770 ca        1 PSN     -0.197000
      7 C7         14.2330   25.6200   18.5380 c         1 PSN      0.579500
      8 O8         16.8050   26.7310   19.1150 os        1 PSN     -0.499500
      9 P9         17.4740   27.0230   17.5910 p5        1 PSN      1.441800
     10 O10        17.6440   28.6350   17.8350 os        1 PSN     -0.553200
     11 O11        16.3900   26.7810   16.6300 o         1 PSN     -0.809000
     12 C12        18.6030   29.0330   18.7700 c3        1 PSN      0.236700
     13 C13        19.7650   29.7390   18.1260 ca        1 PSN     -0.090300
     14 C16        19.8200   31.1350   18.1070 ca        1 PSN     -0.113000
     15 C17        20.9160   31.7880   17.5420 ca        1 PSN     -0.149000
     16 C18        21.9600   31.0480   16.9880 ca        1 PSN     -0.145000
     17 C19        21.9040   29.6540   16.9980 ca        1 PSN     -0.149000
     18 C20        20.8110   28.9980   17.5620 ca        1 PSN     -0.113000
     19 O32        18.8200   26.4300   17.6310 o         1 PSN     -0.809000
     20 O25        13.0270   25.3420   18.5630 o         1 PSN     -0.594100
     21 H1         17.8620   23.0780   21.5800 ha        1 PSN      0.112000
     22 H2         15.5860   22.1070   21.2730 ha        1 PSN      0.114000
     23 H3         13.8980   23.3140   19.8710 ha        1 PSN      0.134000
     24 H6         18.4560   25.2520   20.5020 ha        1 PSN      0.148000
     25 H7         14.6600   26.3900   17.8460 h4        1 PSN      0.075200
     26 H121       18.9820   28.1340   19.3360 h1        1 PSN      0.034700
     27 H122       18.0980   29.7400   19.4900 h1        1 PSN      0.034700
     28 H16        18.9910   31.7190   18.5320 ha        1 PSN      0.155000
     29 H17        20.9530   32.8860   17.5290 ha        1 PSN      0.115500
     30 H18        22.8230   31.5620   16.5420 ha        1 PSN      0.111000
     31 H19        22.7220   29.0690   16.5530 ha        1 PSN      0.115500
     32 H20        20.7530   27.8930   17.5610 ha        1 PSN      0.155000
@<TRIPOS>BOND
     1    1    2 ar  
     2    1    6 ar  
     3    1   21 1   
     4    2    3 ar  
     5    2   22 1   
     6    3    4 ar  
     7    3   23 1   
     8    4    5 ar  
     9    4    7 1   
    10    5    6 ar  
    11    5    8 1   
    12    6   24 1   
    13    7   20 2   
    14    7   25 1   
    15    8    9 1   
    16    9   10 1   
    17    9   11 1   
    18    9   19 1   
    19   10   12 1   
    20   12   13 1   
    21   12   26 1   
    22   12   27 1   
    23   13   14 ar  
    24   13   18 ar  
    25   14   15 ar  
    26   14   28 1   
    27   15   16 ar  
    28   15   29 1   
    29   16   17 ar  
    30   16   30 1   
    31   17   18 ar  
    32   17   31 1   
    33   18   32 1   
@<TRIPOS>SUBSTRUCTURE
     1 PSN         1 TEMP              0 ****  ****    0 ROOT
