@<TRIPOS>MOLECULE
PSN
   32    33     1     0     0
SMALL
bcc


@<TRIPOS>ATOM
      1 C1          1.4510    0.1730    0.2060 ca        1 PSN     -0.089000
      2 C2          2.6760    0.6710    0.6610 ca        1 PSN     -0.208000
      3 C3          2.8510    0.9270    2.0150 ca        1 PSN     -0.058000
      4 C4          1.8210    0.6930    2.9350 ca        1 PSN     -0.251600
      5 C5          0.5770    0.1990    2.4750 ca        1 PSN      0.287100
      6 C6          0.4100   -0.0560    1.0910 ca        1 PSN     -0.202000
      7 C7          2.0470    0.9170    4.3720 c         1 PSN      0.587500
      8 O8         -0.4910    0.0980    3.2810 os        1 PSN     -0.495500
      9 P9         -0.8680   -1.2250    4.2490 p5        1 PSN      1.437800
     10 O10        -1.0220   -2.3330    3.0450 os        1 PSN     -0.573200
     11 O11        -2.2150   -0.9390    4.7610 o         1 PSN     -0.802500
     12 C12        -2.2850   -2.3240    2.4420 c3        1 PSN      0.210700
     13 C13        -2.3960   -3.3830    1.3930 ca        1 PSN     -0.066300
     14 C16        -3.5930   -3.5010    0.6740 ca        1 PSN     -0.121500
     15 C17        -3.7280   -4.4800   -0.3080 ca        1 PSN     -0.142500
     16 C18        -2.6720   -5.3490   -0.5810 ca        1 PSN     -0.152000
     17 C19        -1.4790   -5.2350    0.1330 ca        1 PSN     -0.142500
     18 C20        -1.3390   -4.2570    1.1160 ca        1 PSN     -0.121500
     19 O32         0.3500   -1.5270    5.0120 o         1 PSN     -0.802500
     20 O25         2.9750    1.6110    4.8080 o         1 PSN     -0.594100
     21 H1          1.3120   -0.0370   -0.8650 ha        1 PSN      0.112000
     22 H2          3.4940    0.8550   -0.0480 ha        1 PSN      0.114000
     23 H3          3.8080    1.3200    2.3930 ha        1 PSN      0.134000
     24 H6         -0.5560   -0.4470    0.7410 ha        1 PSN      0.139000
     25 H7          1.3240    0.3880    5.0420 h4        1 PSN      0.063200
     26 H121       -2.4490   -1.3070    1.9830 h1        1 PSN      0.048700
     27 H122       -3.0690   -2.4820    3.2380 h1        1 PSN      0.048700
     28 H16        -4.4260   -2.8160    0.8900 ha        1 PSN      0.146500
     29 H17        -4.6700   -4.5670   -0.8690 ha        1 PSN      0.116500
     30 H18        -2.7800   -6.1200   -1.3560 ha        1 PSN      0.113000
     31 H19        -0.6450   -5.9180   -0.0800 ha        1 PSN      0.116500
     32 H20        -0.4020   -4.1540    1.6880 ha        1 PSN      0.146500
@<TRIPOS>BOND
     1    1    2 ar  
     2    1    6 ar  
     3    1   21 1   
     4    2    3 ar  
     5    2   22 1   
     6    3    4 ar  
     7    3   23 1   
     8    4    5 ar  
     9    4    7 1   
    10    5    6 ar  
    11    5    8 1   
    12    6   24 1   
    13    7   20 2   
    14    7   25 1   
    15    8    9 1   
    16    9   10 1   
    17    9   11 1   
    18    9   19 1   
    19   10   12 1   
    20   12   13 1   
    21   12   26 1   
    22   12   27 1   
    23   13   14 ar  
    24   13   18 ar  
    25   14   15 ar  
    26   14   28 1   
    27   15   16 ar  
    28   15   29 1   
    29   16   17 ar  
    30   16   30 1   
    31   17   18 ar  
    32   17   31 1   
    33   18   32 1   
@<TRIPOS>SUBSTRUCTURE
     1 PSN         1 TEMP              0 ****  ****    0 ROOT
