@<TRIPOS>MOLECULE
PSN
   32    33     1     0     0
SMALL
bcc


@<TRIPOS>ATOM
      1 C1          2.7390    1.0980    0.4500 ca        1 PSN     -0.092000
      2 C2          3.2040    2.0310    1.3820 ca        1 PSN     -0.207000
      3 C3          2.5910    2.1220    2.6260 ca        1 PSN     -0.060000
      4 C4          1.5160    1.2920    2.9640 ca        1 PSN     -0.257600
      5 C5          1.0380    0.3530    2.0170 ca        1 PSN      0.275100
      6 C6          1.6680    0.2720    0.7510 ca        1 PSN     -0.197000
      7 C7          0.9050    1.3710    4.3020 c         1 PSN      0.579500
      8 O8         -0.0730   -0.3630    2.2470 os        1 PSN     -0.499500
      9 P9         -0.0700   -1.8910    2.9700 p5        1 PSN      1.441800
     10 O10        -1.6830   -2.1220    2.7800 os        1 PSN     -0.553200
     11 O11         0.2310   -1.6590    4.3880 o         1 PSN     -0.809000
     12 C12        -2.1430   -2.3040    1.4740 c3        1 PSN      0.236700
     13 C13        -2.6470   -3.7010    1.2390 ca        1 PSN     -0.090300
     14 C16        -4.0150   -3.9810    1.3080 ca        1 PSN     -0.113000
     15 C17        -4.4830   -5.2700    1.0540 ca        1 PSN     -0.149000
     16 C18        -3.5870   -6.2880    0.7340 ca        1 PSN     -0.145000
     17 C19        -2.2200   -6.0150    0.6720 ca        1 PSN     -0.149000
     18 C20        -1.7480   -4.7280    0.9240 ca        1 PSN     -0.113000
     19 O32         0.6140   -2.7780    2.0150 o         1 PSN     -0.809000
     20 O25         1.0780    2.3350    5.0590 o         1 PSN     -0.594100
     21 H1          3.2280    1.0210   -0.5320 ha        1 PSN      0.112000
     22 H2          4.0490    2.6850    1.1320 ha        1 PSN      0.114000
     23 H3          2.9420    2.8520    3.3730 ha        1 PSN      0.134000
     24 H6          1.3010   -0.4690    0.0250 ha        1 PSN      0.148000
     25 H7          0.2880    0.4820    4.5890 h4        1 PSN      0.075200
     26 H121       -1.3160   -2.0780    0.7410 h1        1 PSN      0.034700
     27 H122       -2.9920   -1.5760    1.3120 h1        1 PSN      0.034700
     28 H16        -4.7210   -3.1810    1.5730 ha        1 PSN      0.155000
     29 H17        -5.5600   -5.4830    1.1110 ha        1 PSN      0.115500
     30 H18        -3.9550   -7.3040    0.5350 ha        1 PSN      0.111000
     31 H19        -1.5100   -6.8180    0.4290 ha        1 PSN      0.115500
     32 H20        -0.6640   -4.5070    0.8910 ha        1 PSN      0.155000
@<TRIPOS>BOND
     1    1    2 ar  
     2    1    6 ar  
     3    1   21 1   
     4    2    3 ar  
     5    2   22 1   
     6    3    4 ar  
     7    3   23 1   
     8    4    5 ar  
     9    4    7 1   
    10    5    6 ar  
    11    5    8 1   
    12    6   24 1   
    13    7   20 2   
    14    7   25 1   
    15    8    9 1   
    16    9   10 1   
    17    9   11 1   
    18    9   19 1   
    19   10   12 1   
    20   12   13 1   
    21   12   26 1   
    22   12   27 1   
    23   13   14 ar  
    24   13   18 ar  
    25   14   15 ar  
    26   14   28 1   
    27   15   16 ar  
    28   15   29 1   
    29   16   17 ar  
    30   16   30 1   
    31   17   18 ar  
    32   17   31 1   
    33   18   32 1   
@<TRIPOS>SUBSTRUCTURE
     1 PSN         1 TEMP              0 ****  ****    0 ROOT
