@<TRIPOS>MOLECULE
PSO
   33    35     1     0     0
SMALL
bcc


@<TRIPOS>ATOM
      1 O1         -0.0740   -0.0710   -0.0220 os        1 PSO     -0.323200
      2 C2          1.3180   -0.1420   -0.0730 c         1 PSO      0.722800
      3 C3          2.0830   -0.1580    1.1610 cc        1 PSO     -0.266200
      4 C4          1.4720   -0.1050    2.3680 cd        1 PSO      0.049600
      5 C5         -0.6680    0.0280    3.6490 ca        1 PSO     -0.046000
      6 C6         -2.0490    0.0980    3.6340 ca        1 PSO     -0.114800
      7 C7         -2.7440    0.1050    2.3790 ca        1 PSO      0.103100
      8 C8         -2.1090    0.0500    1.1470 ca        1 PSO     -0.081300
      9 C9         -0.6970   -0.0180    1.2070 ca        1 PSO      0.157100
     10 C10         0.0240   -0.0300    2.4270 ca        1 PSO     -0.155800
     11 C4'        -3.0870    0.1690    4.6550 cc        1 PSO     -0.144400
     12 C5'        -4.2950    0.2110    3.9980 cd        1 PSO      0.089900
     13 O6'        -4.1190    0.1740    2.5920 os        1 PSO     -0.204200
     14 O11         1.7130   -0.1830   -1.2370 o         1 PSO     -0.567500
     15 C12         2.2510   -0.1220    3.6280 c3        1 PSO     -0.073900
     16 C13        -2.7880    0.2080    6.0990 c3        1 PSO      0.206600
     17 O14        -3.9470   -0.1490    6.8400 oh        1 PSO     -0.601800
     18 C15        -5.6940    0.2810    4.4300 c3        1 PSO     -0.047900
     19 C16        -2.8300    0.0590   -0.1410 c3        1 PSO     -0.042800
     20 H3          3.1750   -0.2160    1.0440 ha        1 PSO      0.168000
     21 H5         -0.1180    0.0170    4.6010 ha        1 PSO      0.142000
     22 H121        1.9590   -1.0050    4.2490 hc        1 PSO      0.058033
     23 H122        3.3490   -0.1810    3.4230 hc        1 PSO      0.058033
     24 H123        2.0510    0.8090    4.2160 hc        1 PSO      0.058033
     25 H131       -1.9510   -0.5080    6.3320 h1        1 PSO      0.032700
     26 H132       -2.4650    1.2480    6.3930 h1        1 PSO      0.032700
     27 H14        -3.6790   -0.1700    7.7660 ho        1 PSO      0.406000
     28 H151       -5.7410    0.3380    5.5460 hc        1 PSO      0.070700
     29 H152       -6.2470   -0.6290    4.0860 hc        1 PSO      0.070700
     30 H153       -6.1900    1.1820    3.9890 hc        1 PSO      0.070700
     31 H161       -2.5870   -0.8650   -0.7230 hc        1 PSO      0.058033
     32 H162       -3.9340    0.1090    0.0220 hc        1 PSO      0.058033
     33 H163       -2.5100    0.9410   -0.7520 hc        1 PSO      0.058033
@<TRIPOS>BOND
     1    1    2 1   
     2    1    9 1   
     3    2    3 1   
     4    2   14 2   
     5    3    4 2   
     6    3   20 1   
     7    4   10 1   
     8    4   15 1   
     9    5    6 ar  
    10    5   10 ar  
    11    5   21 1   
    12    6    7 ar  
    13    6   11 1   
    14    7    8 ar  
    15    7   13 1   
    16    8    9 ar  
    17    8   19 1   
    18    9   10 ar  
    19   11   12 2   
    20   11   16 1   
    21   12   13 1   
    22   12   18 1   
    23   15   22 1   
    24   15   23 1   
    25   15   24 1   
    26   16   17 1   
    27   16   25 1   
    28   16   26 1   
    29   17   27 1   
    30   18   28 1   
    31   18   29 1   
    32   18   30 1   
    33   19   31 1   
    34   19   32 1   
    35   19   33 1   
@<TRIPOS>SUBSTRUCTURE
     1 PSO         1 TEMP              0 ****  ****    0 ROOT
