@<TRIPOS>MOLECULE
PSO
   33    35     1     0     0
SMALL
bcc


@<TRIPOS>ATOM
      1 O1         -0.0740   -0.1270   -0.0200 os        1 PSO     -0.323200
      2 C2          1.3190   -0.1580   -0.0710 c         1 PSO      0.722800
      3 C3          2.0850   -0.1210    1.1620 cc        1 PSO     -0.266200
      4 C4          1.4740   -0.0580    2.3680 cd        1 PSO      0.049600
      5 C5         -0.6680    0.0390    3.6490 ca        1 PSO     -0.046000
      6 C6         -2.0500    0.0660    3.6350 ca        1 PSO     -0.114800
      7 C7         -2.7460    0.0310    2.3810 ca        1 PSO      0.103100
      8 C8         -2.1110   -0.0340    1.1490 ca        1 PSO     -0.081300
      9 C9         -0.6970   -0.0620    1.2090 ca        1 PSO      0.157100
     10 C10         0.0250   -0.0260    2.4280 ca        1 PSO     -0.155800
     11 C4'        -3.0890    0.1300    4.6560 cc        1 PSO     -0.144400
     12 C5'        -4.2990    0.1330    3.9990 cd        1 PSO      0.089900
     13 O6'        -4.1220    0.0720    2.5940 os        1 PSO     -0.204200
     14 O11         1.7140   -0.2160   -1.2350 o         1 PSO     -0.567500
     15 C12         2.2550   -0.0190    3.6270 c3        1 PSO     -0.073900
     16 C13        -2.7920    0.1570    6.1000 c3        1 PSO      0.206600
     17 O14        -3.9210    0.6400    6.8150 oh        1 PSO     -0.601800
     18 C15        -5.6980    0.1880    4.4300 c3        1 PSO     -0.047900
     19 C16        -2.8330   -0.0700   -0.1380 c3        1 PSO     -0.042800
     20 H3          3.1790   -0.1480    1.0440 ha        1 PSO      0.168000
     21 H5         -0.1170    0.0690    4.6000 ha        1 PSO      0.142000
     22 H121        1.9900   -0.8960    4.2700 hc        1 PSO      0.058033
     23 H122        3.3530   -0.0500    3.4220 hc        1 PSO      0.058033
     24 H123        2.0260    0.9190    4.1920 hc        1 PSO      0.058033
     25 H131       -2.5420   -0.8830    6.4570 h1        1 PSO      0.032700
     26 H132       -1.9060    0.8260    6.2910 h1        1 PSO      0.032700
     27 H14        -3.6500    0.6990    7.7390 ho        1 PSO      0.406000
     28 H151       -6.2570   -0.7020    4.0440 hc        1 PSO      0.070700
     29 H152       -6.1870    1.1110    4.0290 hc        1 PSO      0.070700
     30 H153       -5.7470    0.2030    5.5480 hc        1 PSO      0.070700
     31 H161       -2.5670   -1.0010   -0.7000 hc        1 PSO      0.058033
     32 H162       -3.9380   -0.0440    0.0260 hc        1 PSO      0.058033
     33 H163       -2.5360    0.8060   -0.7680 hc        1 PSO      0.058033
@<TRIPOS>BOND
     1    1    2 1   
     2    1    9 1   
     3    2    3 1   
     4    2   14 2   
     5    3    4 2   
     6    3   20 1   
     7    4   10 1   
     8    4   15 1   
     9    5    6 ar  
    10    5   10 ar  
    11    5   21 1   
    12    6    7 ar  
    13    6   11 1   
    14    7    8 ar  
    15    7   13 1   
    16    8    9 ar  
    17    8   19 1   
    18    9   10 ar  
    19   11   12 2   
    20   11   16 1   
    21   12   13 1   
    22   12   18 1   
    23   15   22 1   
    24   15   23 1   
    25   15   24 1   
    26   16   17 1   
    27   16   25 1   
    28   16   26 1   
    29   17   27 1   
    30   18   28 1   
    31   18   29 1   
    32   18   30 1   
    33   19   31 1   
    34   19   32 1   
    35   19   33 1   
@<TRIPOS>SUBSTRUCTURE
     1 PSO         1 TEMP              0 ****  ****    0 ROOT
