@<TRIPOS>MOLECULE
PSO
   33    35     1     0     0
SMALL
bcc


@<TRIPOS>ATOM
      1 O1          1.1660   -0.0900   -2.6520 os        1 PSO     -0.323200
      2 C2          0.3180   -0.0350   -3.7580 c         1 PSO      0.722800
      3 C3         -1.1140    0.0930   -3.5610 cc        1 PSO     -0.266200
      4 C4         -1.6500    0.1610   -2.3200 cd        1 PSO      0.049600
      5 C5         -1.2690    0.1710    0.1490 ca        1 PSO     -0.046000
      6 C6         -0.3780    0.1120    1.2040 ca        1 PSO     -0.114800
      7 C7          1.0250   -0.0190    0.9400 ca        1 PSO      0.103100
      8 C8          1.5660   -0.0880   -0.3360 ca        1 PSO     -0.081300
      9 C9          0.6200   -0.0220   -1.3870 ca        1 PSO      0.157100
     10 C10        -0.7730    0.1040   -1.1650 ca        1 PSO     -0.155800
     11 C4'        -0.5000    0.1470    2.6570 cc        1 PSO     -0.144400
     12 C5'         0.7730    0.0380    3.1700 cd        1 PSO      0.089900
     13 O6'         1.7370   -0.0660    2.1370 os        1 PSO     -0.204200
     14 O11         0.9600   -0.1080   -4.8050 o         1 PSO     -0.567500
     15 C12        -3.1120    0.2910   -2.1170 c3        1 PSO     -0.073900
     16 C13        -1.7940    0.2990    3.3490 c3        1 PSO      0.206600
     17 O14        -1.6680   -0.1190    4.7020 oh        1 PSO     -0.601800
     18 C15         1.3320    0.0040    4.5240 c3        1 PSO     -0.047900
     19 C16         3.0110   -0.2220   -0.6020 c3        1 PSO     -0.042800
     20 H3         -1.7200    0.1300   -4.4780 ha        1 PSO      0.168000
     21 H5         -2.3490    0.2670    0.3320 ha        1 PSO      0.142000
     22 H121       -3.6540    0.3220   -3.0940 hc        1 PSO      0.058033
     23 H122       -3.4970   -0.5780   -1.5260 hc        1 PSO      0.058033
     24 H123       -3.3410    1.2320   -1.5560 hc        1 PSO      0.058033
     25 H131       -2.1150    1.3790    3.3220 h1        1 PSO      0.032700
     26 H132       -2.5760   -0.3230    2.8290 h1        1 PSO      0.032700
     27 H14        -2.5520   -0.0610    5.0840 ho        1 PSO      0.406000
     28 H151        2.0780    0.8270    4.6550 hc        1 PSO      0.070700
     29 H152        0.5090    0.1220    5.2740 hc        1 PSO      0.070700
     30 H153        1.8500   -0.9730    4.7000 hc        1 PSO      0.070700
     31 H161        3.2080   -1.1510   -1.1940 hc        1 PSO      0.058033
     32 H162        3.3720    0.6500   -1.2040 hc        1 PSO      0.058033
     33 H163        3.5880   -0.2690    0.3540 hc        1 PSO      0.058033
@<TRIPOS>BOND
     1    1    2 1   
     2    1    9 1   
     3    2    3 1   
     4    2   14 2   
     5    3    4 2   
     6    3   20 1   
     7    4   10 1   
     8    4   15 1   
     9    5    6 ar  
    10    5   10 ar  
    11    5   21 1   
    12    6    7 ar  
    13    6   11 1   
    14    7    8 ar  
    15    7   13 1   
    16    8    9 ar  
    17    8   19 1   
    18    9   10 ar  
    19   11   12 2   
    20   11   16 1   
    21   12   13 1   
    22   12   18 1   
    23   15   22 1   
    24   15   23 1   
    25   15   24 1   
    26   16   17 1   
    27   16   25 1   
    28   16   26 1   
    29   17   27 1   
    30   18   28 1   
    31   18   29 1   
    32   18   30 1   
    33   19   31 1   
    34   19   32 1   
    35   19   33 1   
@<TRIPOS>SUBSTRUCTURE
     1 PSO         1 TEMP              0 ****  ****    0 ROOT
