@<TRIPOS>MOLECULE
PSP
   39    40     1     0     0
SMALL
bcc


@<TRIPOS>ATOM
      1 C1          1.2380    1.8100   -0.0760 c3        1 PSP     -0.000700
      2 C5A         4.9760   -0.2640   -0.3060 ca        1 PSP      0.053100
      3 O10         8.1170   -1.8200    0.3410 oh        1 PSP     -0.286500
      4 N9          7.0100   -1.2070    0.5920 n2        1 PSP     -0.333200
      5 C8          6.2480   -0.9520   -0.4520 ce        1 PSP      0.306800
      6 C4          4.4590    0.1710    0.9320 ca        1 PSP     -0.138000
      7 C3          3.2340    0.8330    0.9850 ca        1 PSP     -0.024300
      8 N2          2.5020    1.0790   -0.1500 na        1 PSP     -0.003100
      9 C7          2.9890    0.6580   -1.3630 ca        1 PSP     -0.024300
     10 C6          4.2070   -0.0070   -1.4640 ca        1 PSP     -0.138000
     11 C2         -0.0000    0.9110    0.0000 c3        1 PSP     -0.126400
     12 C5         -1.2380    1.8100    0.0770 c3        1 PSP     -0.000700
     13 N8         -2.5020    1.0790    0.1510 na        1 PSP     -0.003100
     14 C9         -3.2340    0.8340   -0.9850 ca        1 PSP     -0.024300
     15 C10        -4.4590    0.1720   -0.9320 ca        1 PSP     -0.138000
     16 C11        -4.9760   -0.2640    0.3060 ca        1 PSP      0.053100
     17 C12        -4.2080   -0.0080    1.4640 ca        1 PSP     -0.138000
     18 C13        -2.9890    0.6570    1.3640 ca        1 PSP     -0.024300
     19 C14        -6.2480   -0.9520    0.4500 ce        1 PSP      0.306800
     20 N15        -7.0100   -1.2070   -0.5940 n2        1 PSP     -0.333200
     21 O16        -8.1170   -1.8200   -0.3440 oh        1 PSP     -0.286500
     22 H1A         1.2740    2.4790    0.8340 h1        1 PSP      0.102700
     23 H2A         1.1680    2.4720   -0.9890 h1        1 PSP      0.102700
     24 H10A        8.5710   -1.9300    1.2120 ho        1 PSP      0.484000
     25 H8          6.5350   -1.2400   -1.4860 h4        1 PSP      0.049800
     26 H4A         5.0140    0.0030    1.8750 ha        1 PSP      0.211500
     27 H3A         2.8180    1.1920    1.9490 h4        1 PSP      0.203000
     28 H7A         2.3770    0.8790   -2.2610 h4        1 PSP      0.203000
     29 H6A         4.5660   -0.3240   -2.4610 ha        1 PSP      0.211500
     30 H3         -0.0550    0.2490   -0.9040 hc        1 PSP      0.083700
     31 H4          0.0540    0.2480    0.9040 hc        1 PSP      0.083700
     32 H6         -1.1680    2.4710    0.9920 h1        1 PSP      0.102700
     33 H7         -1.2740    2.4800   -0.8320 h1        1 PSP      0.102700
     34 H9         -2.8180    1.1940   -1.9480 h4        1 PSP      0.203000
     35 H10        -5.0130    0.0050   -1.8750 ha        1 PSP      0.211500
     36 H12        -4.5670   -0.3260    2.4610 ha        1 PSP      0.211500
     37 H13        -2.3770    0.8770    2.2620 h4        1 PSP      0.203000
     38 H14        -6.5360   -1.2410    1.4840 h4        1 PSP      0.049800
     39 H16        -8.5710   -1.9290   -1.2150 ho        1 PSP      0.484000
@<TRIPOS>BOND
     1    1    8 1   
     2    1   11 1   
     3    1   22 1   
     4    1   23 1   
     5    2    5 1   
     6    2    6 ar  
     7    2   10 ar  
     8    3    4 1   
     9    3   24 1   
    10    4    5 2   
    11    5   25 1   
    12    6    7 ar  
    13    6   26 1   
    14    7    8 1   
    15    7   27 1   
    16    8    9 2   
    17    9   10 ar  
    18    9   28 1   
    19   10   29 1   
    20   11   12 1   
    21   11   30 1   
    22   11   31 1   
    23   12   13 1   
    24   12   32 1   
    25   12   33 1   
    26   13   14 1   
    27   13   18 2   
    28   14   15 ar  
    29   14   34 1   
    30   15   16 ar  
    31   15   35 1   
    32   16   17 ar  
    33   16   19 1   
    34   17   18 ar  
    35   17   36 1   
    36   18   37 1   
    37   19   20 2   
    38   19   38 1   
    39   20   21 1   
    40   21   39 1   
@<TRIPOS>SUBSTRUCTURE
     1 PSP         1 TEMP              0 ****  ****    0 ROOT
