@<TRIPOS>MOLECULE
PSP
   39    40     1     0     0
SMALL
bcc


@<TRIPOS>ATOM
      1 C1          0.1600   -0.2280   -0.0520 c3        1 PSP     -0.000700
      2 C5A         4.4140    0.1680    0.2260 ca        1 PSP      0.053100
      3 O10         7.7850    0.6370    1.2870 oh        1 PSP     -0.286500
      4 N9          6.5050    0.5140    1.3860 n2        1 PSP     -0.333200
      5 C8          5.8590    0.3200    0.2540 ce        1 PSP      0.306800
      6 C4          3.6010    0.2090    1.3790 ca        1 PSP     -0.138000
      7 C3          2.2200    0.0650    1.2660 ca        1 PSP     -0.024300
      8 N2          1.6150   -0.1200    0.0470 na        1 PSP     -0.003100
      9 C7          2.3930   -0.1660   -1.0850 ca        1 PSP     -0.024300
     10 C6          3.7760   -0.0270   -1.0200 ca        1 PSP     -0.138000
     11 C2         -0.3600   -1.6690   -0.0360 c3        1 PSP     -0.126400
     12 C5         -1.8880   -1.6260   -0.1430 c3        1 PSP     -0.000700
     13 N8         -2.5220   -2.9430   -0.1410 na        1 PSP     -0.003100
     14 C9         -2.8240   -3.5750   -1.3230 ca        1 PSP     -0.024300
     15 C10        -3.4630   -4.8130   -1.3440 ca        1 PSP     -0.138000
     16 C11        -3.8160   -5.4480   -0.1350 ca        1 PSP      0.053100
     17 C12        -3.4950   -4.7870    1.0720 ca        1 PSP     -0.138000
     18 C13        -2.8560   -3.5500    1.0450 ca        1 PSP     -0.024300
     19 C14        -4.4920   -6.7330   -0.0680 ce        1 PSP      0.306800
     20 N15        -4.8240   -7.3880   -1.1610 n2        1 PSP     -0.333200
     21 O16        -5.4220   -8.5170   -0.9790 oh        1 PSP     -0.286500
     22 H1A        -0.2920    0.3450    0.8100 h1        1 PSP      0.102700
     23 H2A        -0.1600    0.2770   -1.0100 h1        1 PSP      0.102700
     24 H10A        8.1170    0.7820    2.2060 ho        1 PSP      0.484000
     25 H8          6.3780    0.2670   -0.7280 h4        1 PSP      0.049800
     26 H4A         4.0390    0.3620    2.3830 ha        1 PSP      0.211500
     27 H3A         1.5640    0.1060    2.1600 h4        1 PSP      0.202500
     28 H7A         1.8720   -0.3080   -2.0540 h4        1 PSP      0.202500
     29 H6A         4.3640   -0.0640   -1.9550 ha        1 PSP      0.211500
     30 H3          0.0740   -2.2480   -0.8930 hc        1 PSP      0.083700
     31 H4         -0.0530   -2.1840    0.9130 hc        1 PSP      0.083700
     32 H6         -2.3100   -1.0370    0.7230 h1        1 PSP      0.102700
     33 H7         -2.1830   -1.0980   -1.0970 h1        1 PSP      0.102700
     34 H9         -2.5490   -3.0540   -2.2640 h4        1 PSP      0.202500
     35 H10        -3.6890   -5.2770   -2.3220 ha        1 PSP      0.211500
     36 H12        -3.7520   -5.2380    2.0480 ha        1 PSP      0.211500
     37 H13        -2.6060   -3.0100    1.9810 h4        1 PSP      0.202500
     38 H14        -4.7110   -7.1200    0.9500 h4        1 PSP      0.049800
     39 H16        -5.6090   -8.8760   -1.8800 ho        1 PSP      0.484000
@<TRIPOS>BOND
     1    1    8 1   
     2    1   11 1   
     3    1   22 1   
     4    1   23 1   
     5    2    5 1   
     6    2    6 ar  
     7    2   10 ar  
     8    3    4 1   
     9    3   24 1   
    10    4    5 2   
    11    5   25 1   
    12    6    7 ar  
    13    6   26 1   
    14    7    8 1   
    15    7   27 1   
    16    8    9 2   
    17    9   10 ar  
    18    9   28 1   
    19   10   29 1   
    20   11   12 1   
    21   11   30 1   
    22   11   31 1   
    23   12   13 1   
    24   12   32 1   
    25   12   33 1   
    26   13   14 1   
    27   13   18 2   
    28   14   15 ar  
    29   14   34 1   
    30   15   16 ar  
    31   15   35 1   
    32   16   17 ar  
    33   16   19 1   
    34   17   18 ar  
    35   17   36 1   
    36   18   37 1   
    37   19   20 2   
    38   19   38 1   
    39   20   21 1   
    40   21   39 1   
@<TRIPOS>SUBSTRUCTURE
     1 PSP         1 TEMP              0 ****  ****    0 ROOT
