@<TRIPOS>MOLECULE
PSP
   39    40     1     0     0
SMALL
bcc


@<TRIPOS>ATOM
      1 C1          0.1640   -0.2300   -0.0570 c3        1 PSP     -0.000700
      2 C5A         4.4180    0.1620    0.2240 ca        1 PSP      0.053100
      3 O10         7.7870    0.6410    1.2840 oh        1 PSP     -0.286500
      4 N9          6.5070    0.5230    1.3820 n2        1 PSP     -0.333200
      5 C8          5.8630    0.3110    0.2520 ce        1 PSP      0.306800
      6 C4          3.6030    0.2240    1.3740 ca        1 PSP     -0.138000
      7 C3          2.2210    0.0810    1.2600 ca        1 PSP     -0.024300
      8 N2          1.6190   -0.1230    0.0440 na        1 PSP     -0.003100
      9 C7          2.3990   -0.1900   -1.0860 ca        1 PSP     -0.024300
     10 C6          3.7820   -0.0520   -1.0200 ca        1 PSP     -0.138000
     11 C2         -0.3580   -1.6700   -0.0370 c3        1 PSP     -0.126400
     12 C5         -1.8860   -1.6250   -0.1460 c3        1 PSP     -0.000700
     13 N8         -2.5220   -2.9420   -0.1420 na        1 PSP     -0.003100
     14 C9         -2.8380   -3.5680   -1.3220 ca        1 PSP     -0.024300
     15 C10        -3.4790   -4.8050   -1.3410 ca        1 PSP     -0.138000
     16 C11        -3.8200   -5.4450   -0.1300 ca        1 PSP      0.053100
     17 C12        -3.4830   -4.7880    1.0760 ca        1 PSP     -0.138000
     18 C13        -2.8430   -3.5530    1.0460 ca        1 PSP     -0.024300
     19 C14        -4.4970   -6.7290   -0.0600 ce        1 PSP      0.306800
     20 N15        -4.8430   -7.3790   -1.1520 n2        1 PSP     -0.333200
     21 O16        -5.4400   -8.5080   -0.9670 oh        1 PSP     -0.286500
     22 H1A        -0.2890    0.3470    0.8020 h1        1 PSP      0.102700
     23 H2A        -0.1540    0.2730   -1.0180 h1        1 PSP      0.102700
     24 H10A        8.1170    0.8020    2.2010 ho        1 PSP      0.484000
     25 H8          6.3840    0.2400   -0.7270 h4        1 PSP      0.049800
     26 H4A         4.0390    0.3920    2.3760 ha        1 PSP      0.211500
     27 H3A         1.5640    0.1380    2.1520 h4        1 PSP      0.202500
     28 H7A         1.8800   -0.3470   -2.0530 h4        1 PSP      0.202500
     29 H6A         4.3720   -0.1070   -1.9530 ha        1 PSP      0.211500
     30 H3          0.0760   -2.2520   -0.8930 hc        1 PSP      0.083700
     31 H4         -0.0520   -2.1830    0.9130 hc        1 PSP      0.083700
     32 H6         -2.3080   -1.0350    0.7200 h1        1 PSP      0.102700
     33 H7         -2.1800   -1.0980   -1.1010 h1        1 PSP      0.102700
     34 H9         -2.5730   -3.0450   -2.2640 h4        1 PSP      0.202500
     35 H10        -3.7180   -5.2650   -2.3180 ha        1 PSP      0.211500
     36 H12        -3.7290   -5.2430    2.0530 ha        1 PSP      0.211500
     37 H13        -2.5810   -3.0170    1.9810 h4        1 PSP      0.202500
     38 H14        -4.7050   -7.1200    0.9590 h4        1 PSP      0.049800
     39 H16        -5.6390   -8.8620   -1.8670 ho        1 PSP      0.484000
@<TRIPOS>BOND
     1    1    8 1   
     2    1   11 1   
     3    1   22 1   
     4    1   23 1   
     5    2    5 1   
     6    2    6 ar  
     7    2   10 ar  
     8    3    4 1   
     9    3   24 1   
    10    4    5 2   
    11    5   25 1   
    12    6    7 ar  
    13    6   26 1   
    14    7    8 1   
    15    7   27 1   
    16    8    9 2   
    17    9   10 ar  
    18    9   28 1   
    19   10   29 1   
    20   11   12 1   
    21   11   30 1   
    22   11   31 1   
    23   12   13 1   
    24   12   32 1   
    25   12   33 1   
    26   13   14 1   
    27   13   18 2   
    28   14   15 ar  
    29   14   34 1   
    30   15   16 ar  
    31   15   35 1   
    32   16   17 ar  
    33   16   19 1   
    34   17   18 ar  
    35   17   36 1   
    36   18   37 1   
    37   19   20 2   
    38   19   38 1   
    39   20   21 1   
    40   21   39 1   
@<TRIPOS>SUBSTRUCTURE
     1 PSP         1 TEMP              0 ****  ****    0 ROOT
