@<TRIPOS>MOLECULE
PSP
   39    40     1     0     0
SMALL
bcc


@<TRIPOS>ATOM
      1 C1          0.1630   -0.2300   -0.0300 c3        1 PSP     -0.000700
      2 C5A         4.4190    0.1610    0.2110 ca        1 PSP      0.053100
      3 O10         7.7990    0.6360    1.2400 oh        1 PSP     -0.286500
      4 N9          6.5190    0.5180    1.3490 n2        1 PSP     -0.333200
      5 C8          5.8640    0.3100    0.2260 ce        1 PSP      0.306800
      6 C4          3.6160    0.2180    1.3690 ca        1 PSP     -0.138000
      7 C3          2.2330    0.0750    1.2690 ca        1 PSP     -0.024300
      8 N2          1.6180   -0.1230    0.0570 na        1 PSP     -0.003100
      9 C7          2.3870   -0.1860   -1.0800 ca        1 PSP     -0.024300
     10 C6          3.7710   -0.0490   -1.0280 ca        1 PSP     -0.138000
     11 C2         -0.3580   -1.6710   -0.0250 c3        1 PSP     -0.126400
     12 C5         -1.8870   -1.6250   -0.1150 c3        1 PSP     -0.000700
     13 N8         -2.5220   -2.9420   -0.1240 na        1 PSP     -0.003100
     14 C9         -2.8630   -3.5460   -1.3100 ca        1 PSP     -0.024300
     15 C10        -3.5030   -4.7830   -1.3390 ca        1 PSP     -0.138000
     16 C11        -3.8180   -5.4460   -0.1350 ca        1 PSP      0.053100
     17 C12        -3.4570   -4.8140    1.0760 ca        1 PSP     -0.138000
     18 C13        -2.8180   -3.5780    1.0580 ca        1 PSP     -0.024300
     19 C14        -4.4930   -6.7320   -0.0770 ce        1 PSP      0.306800
     20 N15        -4.8620   -7.3610   -1.1740 n2        1 PSP     -0.333200
     21 O16        -5.4550   -8.4930   -0.9990 oh        1 PSP     -0.286500
     22 H1A        -0.2820    0.3340    0.8420 h1        1 PSP      0.102700
     23 H2A        -0.1660    0.2860   -0.9800 h1        1 PSP      0.102700
     24 H10A        8.1380    0.7940    2.1540 ho        1 PSP      0.484000
     25 H8          6.3760    0.2430   -0.7590 h4        1 PSP      0.049800
     26 H4A         4.0620    0.3820    2.3680 ha        1 PSP      0.211500
     27 H3A         1.5840    0.1290    2.1680 h4        1 PSP      0.203000
     28 H7A         1.8590   -0.3390   -2.0430 h4        1 PSP      0.203000
     29 H6A         4.3520   -0.0990   -1.9670 ha        1 PSP      0.211500
     30 H3          0.0670   -2.2400   -0.8930 hc        1 PSP      0.083700
     31 H4         -0.0410   -2.1970    0.9150 hc        1 PSP      0.083700
     32 H6         -2.3000   -1.0490    0.7650 h1        1 PSP      0.102700
     33 H7         -2.1930   -1.0840   -1.0580 h1        1 PSP      0.102700
     34 H9         -2.6180   -3.0040   -2.2470 h4        1 PSP      0.203000
     35 H10        -3.7620   -5.2230   -2.3210 ha        1 PSP      0.211500
     36 H12        -3.6830   -5.2880    2.0490 ha        1 PSP      0.211500
     37 H13        -2.5370   -3.0600    1.9980 h4        1 PSP      0.203000
     38 H14        -4.6800   -7.1440    0.9390 h4        1 PSP      0.049800
     39 H16        -5.6720   -8.8300   -1.9020 ho        1 PSP      0.484000
@<TRIPOS>BOND
     1    1    8 1   
     2    1   11 1   
     3    1   22 1   
     4    1   23 1   
     5    2    5 1   
     6    2    6 ar  
     7    2   10 ar  
     8    3    4 1   
     9    3   24 1   
    10    4    5 2   
    11    5   25 1   
    12    6    7 ar  
    13    6   26 1   
    14    7    8 1   
    15    7   27 1   
    16    8    9 2   
    17    9   10 ar  
    18    9   28 1   
    19   10   29 1   
    20   11   12 1   
    21   11   30 1   
    22   11   31 1   
    23   12   13 1   
    24   12   32 1   
    25   12   33 1   
    26   13   14 1   
    27   13   18 2   
    28   14   15 ar  
    29   14   34 1   
    30   15   16 ar  
    31   15   35 1   
    32   16   17 ar  
    33   16   19 1   
    34   17   18 ar  
    35   17   36 1   
    36   18   37 1   
    37   19   20 2   
    38   19   38 1   
    39   20   21 1   
    40   21   39 1   
@<TRIPOS>SUBSTRUCTURE
     1 PSP         1 TEMP              0 ****  ****    0 ROOT
