@<TRIPOS>MOLECULE
PSQ
   30    29     1     0     0
SMALL
bcc


@<TRIPOS>ATOM
      1 S          -0.2980    0.7770    0.5280 s6        1 PSQ      1.541700
      2 O           0.7110    0.6590    1.5230 o         1 PSQ     -0.749200
      3 O1         -1.2630    1.7750    0.8210 o         1 PSQ     -0.749200
      4 O2         -0.9090   -0.4660    0.1880 o         1 PSQ     -0.749200
      5 P           0.3760    1.4780   -2.4880 p5        1 PSQ      1.680200
      6 N          -0.3840    0.1670   -3.0110 n3        1 PSQ     -1.110900
      7 O3          1.6940    1.6280   -3.1750 o         1 PSQ     -0.914300
      8 N1         -0.5800    2.7400   -2.7450 n3        1 PSQ     -0.999300
      9 C          -2.3490    5.7430   -7.9760 c         1 PSQ      0.886600
     10 O4         -2.1950    6.8850   -7.4590 o         1 PSQ     -0.853800
     11 O5         -2.3770    5.5350   -9.2250 o         1 PSQ     -0.853800
     12 C1         -2.5540    4.5260   -7.0150 c3        1 PSQ      0.025500
     13 C2         -1.3750    4.4680   -6.0410 c3        1 PSQ     -0.064400
     14 C3         -1.6240    3.5300   -4.8790 c3        1 PSQ     -0.098400
     15 C4         -0.4290    3.5380   -3.9170 c3        1 PSQ      0.214800
     16 N2          0.5410    1.3040   -0.8870 n3        1 PSQ     -0.955200
     17 N3         -2.8110    3.2640   -7.6990 n3        1 PSQ     -0.893800
     18 HN1        -0.9750   -0.3940   -2.4540 hn        1 PSQ      0.422300
     19 HN2        -0.2090   -0.2160   -3.8990 hn        1 PSQ      0.422300
     20 HN11       -1.3290    3.0070   -2.1610 hn        1 PSQ      0.429800
     21 H11        -3.4880    4.7520   -6.4200 h1        1 PSQ      0.040700
     22 H21        -0.4440    4.1580   -6.5830 hc        1 PSQ      0.044700
     23 H22        -1.2100    5.5130   -5.6630 hc        1 PSQ      0.044700
     24 H31        -1.8040    2.4910   -5.2580 hc        1 PSQ      0.035700
     25 H32        -2.5510    3.8480   -4.3350 hc        1 PSQ      0.035700
     26 H41         0.4900    3.1750   -4.4660 h1        1 PSQ      0.042700
     27 H42        -0.2430    4.6170   -3.6300 h1        1 PSQ      0.042700
     28 HN21        1.4700    1.5480   -0.6200 hn        1 PSQ      0.424800
     29 HN31       -3.2870    3.4800   -8.5610 hn        1 PSQ      0.328300
     30 HN32       -1.9320    2.8520   -7.9580 hn        1 PSQ      0.328300
@<TRIPOS>BOND
     1    1    2 1   
     2    1    3 1   
     3    1    4 1   
     4    1   16 1   
     5    5    6 1   
     6    5    7 2   
     7    5    8 1   
     8    5   16 1   
     9    6   18 1   
    10    6   19 1   
    11    8   15 1   
    12    8   20 1   
    13    9   10 1   
    14    9   11 1   
    15    9   12 1   
    16   12   13 1   
    17   12   17 1   
    18   12   21 1   
    19   13   14 1   
    20   13   22 1   
    21   13   23 1   
    22   14   15 1   
    23   14   24 1   
    24   14   25 1   
    25   15   26 1   
    26   15   27 1   
    27   16   28 1   
    28   17   29 1   
    29   17   30 1   
@<TRIPOS>SUBSTRUCTURE
     1 PSQ         1 TEMP              0 ****  ****    0 ROOT
