@<TRIPOS>MOLECULE
PSQ
   34    33     1     0     0
SMALL
bcc


@<TRIPOS>ATOM
      1 S           0.0000    0.0000    0.0000 s6        1 PSQ      0.963700
      2 O           1.5210    0.0000    0.0000 o         1 PSQ     -0.480200
      3 O1         -0.3860    0.0000    1.3680 o         1 PSQ     -0.480200
      4 O2         -0.3860   -0.9700   -0.9630 o         1 PSQ     -0.480200
      5 P          -0.0640    1.9040   -2.1240 p5        1 PSQ      0.505200
      6 N          -0.6570    0.7820   -3.2290 nz        1 PSQ     -0.205700
      7 O3          1.4120    1.9590   -2.2220 o         1 PSQ     -0.364300
      8 N1         -0.7050    3.4220   -2.4690 ny        1 PSQ     -0.247100
      9 C          -1.8810    4.8730   -8.4150 c         1 PSQ      0.940600
     10 O4         -1.6950    6.1550   -8.7620 o         1 PSQ     -0.619300
     11 O5         -1.7000    3.9950   -9.2260 o         1 PSQ     -0.619300
     12 C1         -2.3120    4.5260   -7.0140 c3        1 PSQ     -0.189500
     13 C2         -1.0790    4.3180   -6.1350 c3        1 PSQ     -0.011400
     14 C3         -1.5180    3.9660   -4.7130 c3        1 PSQ     -0.058400
     15 C4         -0.2830    3.7580   -3.8340 c3        1 PSQ      0.063800
     16 N2         -0.4960    1.4580   -0.6070 ny        1 PSQ     -0.300000
     17 N3         -3.1090    3.2920   -7.0390 nz        1 PSQ      0.085400
     18 HN1        -1.6580    0.8100   -3.2290 hn        1 PSQ      0.320467
     19 HN2        -0.3180    1.0030   -4.1440 hn        1 PSQ      0.320467
     20 HN11       -0.3490    4.0980   -1.8240 hn        1 PSQ      0.321300
     21 H11        -2.9110    5.3330   -6.6100 hx        1 PSQ      0.107700
     22 H21        -0.4800    3.5100   -6.5380 hc        1 PSQ      0.074200
     23 H22        -0.4910    5.2280   -6.1160 hc        1 PSQ      0.074200
     24 H31        -2.1160    4.7740   -4.3090 hc        1 PSQ      0.015700
     25 H32        -2.1050    3.0560   -4.7310 hc        1 PSQ      0.015700
     26 H41         0.3160    2.9500   -4.2360 hx        1 PSQ      0.092200
     27 H42         0.3050    4.6680   -3.8150 hx        1 PSQ      0.092200
     28 HN21       -1.4960    1.4690   -0.5690 hn        1 PSQ      0.379300
     29 HN31       -3.6800    3.2800   -7.8610 hn        1 PSQ      0.220800
     30 HN32       -2.4980    2.5000   -7.0450 hn        1 PSQ      0.220800
     31 HN3        -0.3480   -0.1350   -2.9720 hn        1 PSQ      0.320467
     32 H12        -1.7040    3.3910   -2.4180 hn        1 PSQ      0.321300
     33 H221       -0.1670    2.1660    0.0190 hn        1 PSQ      0.379300
     34 H33        -3.6940    3.2560   -6.2270 hn        1 PSQ      0.220800
@<TRIPOS>BOND
     1    1    2 1   
     2    1    3 1   
     3    1    4 1   
     4    1   16 1   
     5    5    6 1   
     6    5    7 2   
     7    5    8 1   
     8    5   16 1   
     9    6   18 1   
    10    6   19 1   
    11    6   31 1   
    12    8   15 1   
    13    8   20 1   
    14    8   32 1   
    15    9   10 1   
    16    9   11 1   
    17    9   12 1   
    18   12   13 1   
    19   12   17 1   
    20   12   21 1   
    21   13   14 1   
    22   13   22 1   
    23   13   23 1   
    24   14   15 1   
    25   14   24 1   
    26   14   25 1   
    27   15   26 1   
    28   15   27 1   
    29   16   28 1   
    30   16   33 1   
    31   17   29 1   
    32   17   30 1   
    33   17   34 1   
@<TRIPOS>SUBSTRUCTURE
     1 PSQ         1 TEMP              0 ****  ****    0 ROOT
