@<TRIPOS>MOLECULE
PSQ
   30    29     1     0     0
SMALL
bcc


@<TRIPOS>ATOM
      1 S          -0.3730    0.9710   -4.1910 s6        1 PSQ      1.541700
      2 O          -1.0890    0.4980   -5.3250 o         1 PSQ     -0.749200
      3 O1         -0.8630    2.2060   -3.6930 o         1 PSQ     -0.749200
      4 O2          1.0390    0.9980   -4.3800 o         1 PSQ     -0.749200
      5 P          -0.1640   -0.7030   -1.5080 p5        1 PSQ      1.680200
      6 N           1.4380   -0.6450   -1.5430 n3        1 PSQ     -1.110900
      7 O3         -0.6310   -2.0860   -1.1910 o         1 PSQ     -0.914300
      8 N1         -0.6740    0.3630   -0.4240 n3        1 PSQ     -0.999300
      9 C          -0.4520    0.4870    5.8560 c         1 PSQ      0.886600
     10 O4         -1.6410    0.8980    5.9620 o         1 PSQ     -0.853800
     11 O5          0.1800   -0.0840    6.7950 o         1 PSQ     -0.853800
     12 C1          0.2890    0.7310    4.5010 c3        1 PSQ      0.025500
     13 C2         -0.5440    0.1210    3.3710 c3        1 PSQ     -0.064400
     14 C3         -0.0830    0.5680    2.0000 c3        1 PSQ     -0.098400
     15 C4         -0.9720   -0.0430    0.9090 c3        1 PSQ      0.214800
     16 N2         -0.6720   -0.2080   -2.9630 n3        1 PSQ     -0.955200
     17 N3          1.6830    0.3020    4.4990 n3        1 PSQ     -0.893800
     18 HN1         1.9620   -0.0570   -2.1380 hn        1 PSQ      0.422300
     19 HN2         1.9920   -1.2840   -1.0430 hn        1 PSQ      0.422300
     20 HN11       -0.7670    1.3320   -0.5880 hn        1 PSQ      0.429800
     21 H11         0.3090    1.8510    4.3530 h1        1 PSQ      0.040700
     22 H21        -0.5130   -0.9980    3.4330 hc        1 PSQ      0.044700
     23 H22        -1.6090    0.4360    3.5410 hc        1 PSQ      0.044700
     24 H31        -0.1230    1.6870    1.9400 hc        1 PSQ      0.035700
     25 H32         0.9830    0.2660    1.8380 hc        1 PSQ      0.035700
     26 H41        -0.8900   -1.1700    0.9530 h1        1 PSQ      0.042700
     27 H42        -2.0420    0.2250    1.1670 h1        1 PSQ      0.042700
     28 HN21       -1.3840   -0.8210   -3.2930 hn        1 PSQ      0.424800
     29 HN31        2.0300    0.4020    5.4390 hn        1 PSQ      0.328300
     30 HN32        1.7190   -0.6800    4.2870 hn        1 PSQ      0.328300
@<TRIPOS>BOND
     1    1    2 1   
     2    1    3 1   
     3    1    4 1   
     4    1   16 1   
     5    5    6 1   
     6    5    7 2   
     7    5    8 1   
     8    5   16 1   
     9    6   18 1   
    10    6   19 1   
    11    8   15 1   
    12    8   20 1   
    13    9   10 1   
    14    9   11 1   
    15    9   12 1   
    16   12   13 1   
    17   12   17 1   
    18   12   21 1   
    19   13   14 1   
    20   13   22 1   
    21   13   23 1   
    22   14   15 1   
    23   14   24 1   
    24   14   25 1   
    25   15   26 1   
    26   15   27 1   
    27   16   28 1   
    28   17   29 1   
    29   17   30 1   
@<TRIPOS>SUBSTRUCTURE
     1 PSQ         1 TEMP              0 ****  ****    0 ROOT
