@<TRIPOS>MOLECULE
PSR
   56    55     1     0     0
SMALL
bcc


@<TRIPOS>ATOM
      1 O23         0.0000    0.0000    0.0000 o         1 PSR     -0.511833
      2 P24         1.6170    0.0000    0.0000 p5        1 PSR      0.827900
      3 O25         1.9890    0.0000    1.5750 o         1 PSR     -0.511833
      4 O26         2.2590   -1.0940   -0.8030 o         1 PSR     -0.511833
      5 O27         2.0020    1.5020   -0.4550 os        1 PSR     -0.493200
      6 C28         1.4320    2.5910    0.2610 c3        1 PSR      0.293400
      7 C29         1.9110    3.9480   -0.3140 c3        1 PSR     -0.100000
      8 C30         3.4510    4.0260   -0.1860 c3        1 PSR      0.012900
      9 C31         1.5670    4.0280   -1.8150 c3        1 PSR      0.012900
     10 C32         1.2880    5.1410    0.4690 c3        1 PSR      0.145100
     11 O33         1.6510    5.0600    1.8440 oh        1 PSR     -0.518800
     12 C34        -0.2390    5.1890    0.4270 c         1 PSR      0.294100
     13 O35        -0.9370    4.5750    1.2320 o         1 PSR     -0.391100
     14 N36        -0.7230    6.0050   -0.5830 ny        1 PSR      0.081200
     15 C37        -2.1320    6.2300   -0.8060 c3        1 PSR      0.019800
     16 C38        -2.6730    5.1870   -1.7740 c3        1 PSR     -0.060400
     17 C39        -1.9680    5.2200   -3.1180 c         1 PSR     -0.019900
     18 O40        -1.0630    6.0080   -3.3830 o         1 PSR     -0.665100
     19 N41        -2.4750    4.2640   -3.9850 ny        1 PSR      0.270200
     20 C42        -1.9820    4.0850   -5.3310 c3        1 PSR     -0.004200
     21 C43        -0.8370    3.0850   -5.4170 c3        1 PSR      0.041700
     22 S1         -1.3080    1.4440   -4.7900 ss        1 PSR     -0.409700
     23 C1          0.2330    0.5960   -4.9540 c         1 PSR      0.704700
     24 O1          1.2440    1.1290   -5.3910 o         1 PSR     -0.523100
     25 C2          0.1580   -0.8470   -4.4970 c3        1 PSR     -0.097400
     26 C3          1.4920   -1.5720   -4.6670 c3        1 PSR     -0.017400
     27 C4          1.4130   -3.0070   -4.1750 c3        1 PSR      0.011900
     28 H281        0.3520    2.5370    0.1900 h1        1 PSR     -0.000300
     29 H282        1.7230    2.5240    1.3020 h1        1 PSR     -0.000300
     30 H301        3.7870    5.0170   -0.4670 hc        1 PSR      0.010700
     31 H302        3.9050    3.2920   -0.8410 hc        1 PSR      0.010700
     32 H303        3.7390    3.8240    0.8380 hc        1 PSR      0.010700
     33 H311        2.3410    3.5350   -2.3890 hc        1 PSR      0.010700
     34 H312        1.5010    5.0670   -2.1150 hc        1 PSR      0.010700
     35 H313        0.6170    3.5390   -1.9940 hc        1 PSR      0.010700
     36 H321        1.6760    6.0660    0.0590 h1        1 PSR     -0.003300
     37 H331        1.8560    5.9220    2.1660 ho        1 PSR      0.386000
     38 H361       -0.3180    6.9070   -0.4280 hn        1 PSR      0.279300
     39 H371       -2.6620    6.1560    0.1360 hx        1 PSR      0.073700
     40 H372       -2.2770    7.2190   -1.2240 hx        1 PSR      0.073700
     41 H381       -3.7300    5.3690   -1.9290 hc        1 PSR      0.040200
     42 H382       -2.5470    4.2040   -1.3370 hc        1 PSR      0.040200
     43 H411       -3.4540    4.4560   -4.0700 hn        1 PSR      0.198800
     44 H421       -2.7960    3.7360   -5.9560 hx        1 PSR      0.073200
     45 H422       -1.6390    5.0410   -5.7060 hx        1 PSR      0.073200
     46 H431       -0.0020    3.4570   -4.8350 h1        1 PSR      0.074200
     47 H432       -0.5290    2.9920   -6.4510 h1        1 PSR      0.074200
     48 HC21       -0.1250   -0.8710   -3.4520 hc        1 PSR      0.059700
     49 HC22       -0.5990   -1.3620   -5.0780 hc        1 PSR      0.059700
     50 HC31        1.7630   -1.5720   -5.7160 hc        1 PSR      0.025700
     51 HC32        2.2540   -1.0460   -4.1050 hc        1 PSR      0.025700
     52 HC41        2.4150   -3.3930   -4.0270 hc        1 PSR      0.008033
     53 HC42        0.8720   -3.0380   -3.2370 hc        1 PSR      0.008033
     54 HC43        0.8970   -3.6130   -4.9100 hc        1 PSR      0.008033
     55 H362       -0.3620    5.6320   -1.4380 hn        1 PSR      0.279300
     56 H412       -2.3590    3.3820   -3.5260 hn        1 PSR      0.198800
@<TRIPOS>BOND
     1    1    2 1   
     2    2    3 1   
     3    2    4 1   
     4    2    5 1   
     5    5    6 1   
     6    6    7 1   
     7    6   28 1   
     8    6   29 1   
     9    7    8 1   
    10    7    9 1   
    11    7   10 1   
    12    8   30 1   
    13    8   31 1   
    14    8   32 1   
    15    9   33 1   
    16    9   34 1   
    17    9   35 1   
    18   10   11 1   
    19   10   12 1   
    20   10   36 1   
    21   11   37 1   
    22   12   13 2   
    23   12   14 1   
    24   14   15 1   
    25   14   38 1   
    26   14   55 1   
    27   15   16 1   
    28   15   39 1   
    29   15   40 1   
    30   16   17 1   
    31   16   41 1   
    32   16   42 1   
    33   17   18 2   
    34   17   19 1   
    35   19   20 1   
    36   19   43 1   
    37   19   56 1   
    38   20   21 1   
    39   20   44 1   
    40   20   45 1   
    41   21   22 1   
    42   21   46 1   
    43   21   47 1   
    44   22   23 1   
    45   23   24 2   
    46   23   25 1   
    47   25   26 1   
    48   25   48 1   
    49   25   49 1   
    50   26   27 1   
    51   26   50 1   
    52   26   51 1   
    53   27   52 1   
    54   27   53 1   
    55   27   54 1   
@<TRIPOS>SUBSTRUCTURE
     1 PSR         1 TEMP              0 ****  ****    0 ROOT
