@<TRIPOS>MOLECULE
PSR
   54    53     1     0     0
SMALL
bcc


@<TRIPOS>ATOM
      1 O23         0.6220    2.2330   -6.9140 o         1 PSR     -0.838500
      2 P24         1.6960    2.4640   -5.9210 p5        1 PSR      1.428800
      3 O25         0.9460    3.4160   -4.8250 oh        1 PSR     -0.780400
      4 O26         3.0610    2.9440   -6.1980 o         1 PSR     -0.838500
      5 O27         1.8320    1.0950   -4.9990 os        1 PSR     -0.571200
      6 C28         0.7210    0.2630   -4.9120 c3        1 PSR      0.180400
      7 C29         1.1520   -1.2190   -4.9630 c3        1 PSR     -0.088000
      8 C30         1.7210   -1.5390   -6.3370 c3        1 PSR     -0.082600
      9 C31         2.2080   -1.4770   -3.9040 c3        1 PSR     -0.082600
     10 C32        -0.0620   -2.1420   -4.7330 c3        1 PSR      0.089100
     11 O33        -1.1160   -1.8920   -5.6420 oh        1 PSR     -0.597800
     12 C34        -0.6330   -2.0420   -3.3080 c         1 PSR      0.634100
     13 O35        -1.5230   -1.2030   -3.0470 o         1 PSR     -0.640100
     14 N36        -0.1980   -2.9470   -2.3700 n         1 PSR     -0.568900
     15 C37        -0.7090   -2.9570   -1.0280 c3        1 PSR      0.105000
     16 C38         0.2820   -3.4770    0.0130 c3        1 PSR     -0.169400
     17 C39         0.6620   -4.9210   -0.2700 c         1 PSR      0.652100
     18 O40         1.3700   -5.1990   -1.2700 o         1 PSR     -0.666100
     19 N41         0.1930   -5.8910    0.5710 n         1 PSR     -0.544900
     20 C42         0.5420   -7.2800    0.4290 c3        1 PSR      0.104000
     21 C43         0.6500   -8.0190    1.7550 c3        1 PSR      0.004700
     22 S1         -0.7500   -7.7310    2.7930 ss        1 PSR     -0.604700
     23 C1          0.0210   -7.3310    4.4520 c2        1 PSR      0.686900
     24 O1          1.2710   -7.3030    4.5310 o         1 PSR     -0.752300
     25 C2         -1.0000   -7.1260    5.3290 c2        1 PSR     -0.536200
     26 C3         -0.7640   -6.7980    6.7440 c3        1 PSR      0.044800
     27 C4         -1.5630   -5.5950    7.1930 c3        1 PSR     -0.081100
     28 H281        0.1990    0.4300   -3.9240 h1        1 PSR      0.038700
     29 H282        0.0100    0.4790   -5.7600 h1        1 PSR      0.038700
     30 H301        2.0720   -2.5980   -6.3780 hc        1 PSR      0.038033
     31 H302        0.9360   -1.3870   -7.1170 hc        1 PSR      0.038033
     32 H303        2.5840   -0.8640   -6.5520 hc        1 PSR      0.038033
     33 H311        1.8430   -1.1560   -2.8990 hc        1 PSR      0.038033
     34 H312        2.4780   -2.5590   -3.8670 hc        1 PSR      0.038033
     35 H313        3.1180   -0.8750   -4.1460 hc        1 PSR      0.038033
     36 H321        0.2420   -3.2060   -4.9590 h1        1 PSR      0.074700
     37 H331       -1.4610   -1.0070   -5.4490 ho        1 PSR      0.426000
     38 H361        0.5590   -3.5610   -2.5790 hn        1 PSR      0.340500
     39 H371       -1.6360   -3.6030   -0.9970 h1        1 PSR      0.051700
     40 H372       -1.0180   -1.9090   -0.7430 h1        1 PSR      0.051700
     41 H381        1.2280   -2.8740   -0.0070 hc        1 PSR      0.071700
     42 H382       -0.1840   -3.3540    1.0250 hc        1 PSR      0.071700
     43 H411       -0.3170   -5.6570    1.4010 hn        1 PSR      0.344500
     44 H421        1.5220   -7.3590   -0.1250 h1        1 PSR      0.040200
     45 H422       -0.2470   -7.7790   -0.2070 h1        1 PSR      0.040200
     46 H431        1.5690   -7.7090    2.3200 h1        1 PSR      0.068700
     47 H432        0.7280   -9.1110    1.5360 h1        1 PSR      0.068700
     48 HC21       -2.0400   -7.2130    5.0020 ha        1 PSR      0.107000
     49 HC22        0.0040    3.4240   -4.9530 ho        1 PSR      0.422000
     50 HC31       -1.0480   -7.6730    7.3970 hc        1 PSR      0.003200
     51 HC32        0.3290   -6.6040    6.9200 hc        1 PSR      0.003200
     52 HC41       -1.3870   -5.3810    8.2760 hc        1 PSR      0.007033
     53 HC42       -1.2730   -4.6940    6.6020 hc        1 PSR      0.007033
     54 HC43       -2.6560   -5.7710    7.0430 hc        1 PSR      0.007033
@<TRIPOS>BOND
     1    1    2 1   
     2    2    3 1   
     3    2    4 1   
     4    2    5 1   
     5    3   49 1   
     6    5    6 1   
     7    6    7 1   
     8    6   28 1   
     9    6   29 1   
    10    7    8 1   
    11    7    9 1   
    12    7   10 1   
    13    8   30 1   
    14    8   31 1   
    15    8   32 1   
    16    9   33 1   
    17    9   34 1   
    18    9   35 1   
    19   10   11 1   
    20   10   12 1   
    21   10   36 1   
    22   11   37 1   
    23   12   13 2   
    24   12   14 1   
    25   14   15 1   
    26   14   38 1   
    27   15   16 1   
    28   15   39 1   
    29   15   40 1   
    30   16   17 1   
    31   16   41 1   
    32   16   42 1   
    33   17   18 2   
    34   17   19 1   
    35   19   20 1   
    36   19   43 1   
    37   20   21 1   
    38   20   44 1   
    39   20   45 1   
    40   21   22 1   
    41   21   46 1   
    42   21   47 1   
    43   22   23 1   
    44   23   24 1   
    45   23   25 2   
    46   25   26 1   
    47   25   48 1   
    48   26   27 1   
    49   26   50 1   
    50   26   51 1   
    51   27   52 1   
    52   27   53 1   
    53   27   54 1   
@<TRIPOS>SUBSTRUCTURE
     1 PSR         1 TEMP              0 ****  ****    0 ROOT
