@<TRIPOS>MOLECULE
PSR
   54    53     1     0     0
SMALL
bcc


@<TRIPOS>ATOM
      1 O23         4.8780   -3.5470   -5.4610 o         1 PSR     -0.835500
      2 P24         4.3420   -2.1730   -5.4090 p5        1 PSR      1.424800
      3 O25         2.7680   -2.4000   -5.0170 oh        1 PSR     -0.782400
      4 O26         4.4550   -1.1290   -6.4450 o         1 PSR     -0.835500
      5 O27         4.8050   -1.5220   -3.9590 os        1 PSR     -0.574200
      6 C28         4.7780   -0.1370   -3.8300 c3        1 PSR      0.187400
      7 C29         3.9790    0.2980   -2.5800 c3        1 PSR     -0.095000
      8 C30         2.4870    0.1410   -2.8350 c3        1 PSR     -0.084100
      9 C31         4.3850   -0.5510   -1.3910 c3        1 PSR     -0.084100
     10 C32         4.2400    1.7900   -2.2800 c3        1 PSR      0.090100
     11 O33         4.0520    2.6110   -3.4160 oh        1 PSR     -0.598800
     12 C34         5.6520    2.0550   -1.7320 c         1 PSR      0.634100
     13 O35         6.5950    2.2990   -2.5170 o         1 PSR     -0.638100
     14 N36         5.8200    2.1020   -0.3680 n         1 PSR     -0.568900
     15 C37         7.0950    2.3800    0.2330 c3        1 PSR      0.105000
     16 C38         7.3060    1.7060    1.5890 c3        1 PSR     -0.169400
     17 C39         6.2840    2.1920    2.6040 c         1 PSR      0.652100
     18 O40         5.0770    1.8660    2.4850 o         1 PSR     -0.666100
     19 N41         6.7140    3.0030    3.6180 n         1 PSR     -0.545900
     20 C42         5.8410    3.4700    4.6630 c3        1 PSR      0.104000
     21 C43         6.5310    3.6180    6.0110 c3        1 PSR      0.004700
     22 S1          8.0480    4.5160    5.8870 ss        1 PSR     -0.604700
     23 C1          9.2470    3.4670    6.8710 c2        1 PSR      0.686900
     24 O1          8.8270    2.3990    7.3700 o         1 PSR     -0.752300
     25 C2         10.4470    4.1110    6.8560 c2        1 PSR     -0.536200
     26 C3         11.6320    3.5780    7.5460 c3        1 PSR      0.044800
     27 C4         12.8510    3.5490    6.6500 c3        1 PSR     -0.081100
     28 H281        5.8360    0.2350   -3.6990 h1        1 PSR      0.041200
     29 H282        4.3250    0.3310   -4.7500 h1        1 PSR      0.041200
     30 H301        1.9070    0.3860   -1.9130 hc        1 PSR      0.038367
     31 H302        2.2570   -0.9100   -3.1370 hc        1 PSR      0.038367
     32 H303        2.1680    0.8290   -3.6540 hc        1 PSR      0.038367
     33 H311        4.0870   -1.6110   -1.5810 hc        1 PSR      0.038367
     34 H312        3.8900   -0.1920   -0.4570 hc        1 PSR      0.038367
     35 H313        5.4920   -0.5280   -1.2540 hc        1 PSR      0.038367
     36 H321        3.4620    2.1570   -1.5490 h1        1 PSR      0.073700
     37 H331        4.7460    2.3860   -4.0530 ho        1 PSR      0.427000
     38 H361        5.0770    1.8280    0.2380 hn        1 PSR      0.339500
     39 H371        7.9140    2.0470   -0.4680 h1        1 PSR      0.052200
     40 H372        7.1970    3.4970    0.3670 h1        1 PSR      0.052200
     41 H381        8.3570    1.9120    1.9170 hc        1 PSR      0.071700
     42 H382        7.1840    0.5940    1.5010 hc        1 PSR      0.071700
     43 H411        7.6850    3.2070    3.7440 hn        1 PSR      0.344500
     44 H421        5.4230    4.4720    4.3520 h1        1 PSR      0.040200
     45 H422        4.9720    2.7570    4.7630 h1        1 PSR      0.040200
     46 H431        5.8370    4.1620    6.6960 h1        1 PSR      0.068700
     47 H432        6.7580    2.6180    6.4650 h1        1 PSR      0.068700
     48 HC21        2.6260   -3.2570   -4.6330 ho        1 PSR      0.421000
     49 HC22       10.5600    5.0650    6.3330 ha        1 PSR      0.107000
     50 HC31       11.8740    4.2100    8.4480 hc        1 PSR      0.003200
     51 HC32       11.4250    2.5400    7.9240 hc        1 PSR      0.003200
     52 HC41       13.7420    3.1630    7.2030 hc        1 PSR      0.007033
     53 HC42       12.6680    2.8890    5.7680 hc        1 PSR      0.007033
     54 HC43       13.0860    4.5740    6.2750 hc        1 PSR      0.007033
@<TRIPOS>BOND
     1    1    2 1   
     2    2    3 1   
     3    2    4 1   
     4    2    5 1   
     5    3   48 1   
     6    5    6 1   
     7    6    7 1   
     8    6   28 1   
     9    6   29 1   
    10    7    8 1   
    11    7    9 1   
    12    7   10 1   
    13    8   30 1   
    14    8   31 1   
    15    8   32 1   
    16    9   33 1   
    17    9   34 1   
    18    9   35 1   
    19   10   11 1   
    20   10   12 1   
    21   10   36 1   
    22   11   37 1   
    23   12   13 2   
    24   12   14 1   
    25   14   15 1   
    26   14   38 1   
    27   15   16 1   
    28   15   39 1   
    29   15   40 1   
    30   16   17 1   
    31   16   41 1   
    32   16   42 1   
    33   17   18 2   
    34   17   19 1   
    35   19   20 1   
    36   19   43 1   
    37   20   21 1   
    38   20   44 1   
    39   20   45 1   
    40   21   22 1   
    41   21   46 1   
    42   21   47 1   
    43   22   23 1   
    44   23   24 1   
    45   23   25 2   
    46   25   26 1   
    47   25   49 1   
    48   26   27 1   
    49   26   50 1   
    50   26   51 1   
    51   27   52 1   
    52   27   53 1   
    53   27   54 1   
@<TRIPOS>SUBSTRUCTURE
     1 PSR         1 TEMP              0 ****  ****    0 ROOT
