@<TRIPOS>MOLECULE
PSS
   45    46     1     0     0
SMALL
bcc


@<TRIPOS>ATOM
      1 C           3.3670    1.7760    0.4570 c         1 PSS      0.905600
      2 N           1.3440    0.2700    0.9210 n         1 PSS     -0.405800
      3 O           2.6110    2.7750    0.6030 o         1 PSS     -0.831800
      4 C1         -0.3890    1.5220    2.2610 c3        1 PSS      0.131800
      5 N1         -1.4330    0.7180    1.6600 n3        1 PSS     -0.795200
      6 C2          1.0100    0.8910    2.1920 c3        1 PSS      0.048000
      7 C3         -1.1150    0.4050    0.2750 c3        1 PSS      0.093500
      8 C4          0.3850    0.1680   -0.0660 c         1 PSS      0.667500
      9 C5         -1.9050   -0.8000   -0.2630 c3        1 PSS     -0.043100
     10 C6         -3.3720   -0.5620   -0.2750 ca        1 PSS     -0.049300
     11 C7         -4.2200   -1.2800    0.5760 ca        1 PSS     -0.125000
     12 C8         -5.5980   -1.0690    0.5420 ca        1 PSS     -0.132500
     13 C9         -6.1420   -0.1390   -0.3410 ca        1 PSS     -0.145000
     14 C10        -5.3030    0.5830   -1.1910 ca        1 PSS     -0.132500
     15 C11        -3.9260    0.3730   -1.1600 ca        1 PSS     -0.125000
     16 C12         2.7830    0.3260    0.6450 c3        1 PSS     -0.031300
     17 C13         3.2860   -0.5510   -0.4980 c3        1 PSS     -0.074400
     18 C14         3.0250   -2.0240   -0.2710 c3        1 PSS     -0.072400
     19 C15         3.7420   -2.8720   -1.3010 c3        1 PSS     -0.080400
     20 C16         3.4760   -4.3410   -1.0980 c3        1 PSS     -0.087100
     21 OXT         4.6040    1.8420    0.2240 o         1 PSS     -0.831800
     22 H1         -0.3650    2.5160    1.7310 h1        1 PSS      0.063200
     23 H1A        -0.6480    1.7010    3.3400 h1        1 PSS      0.063200
     24 HN1        -1.5500   -0.1330    2.1830 hn        1 PSS      0.340800
     25 H2          1.0970    0.0900    2.9830 h1        1 PSS      0.056700
     26 H2A         1.7590    1.7070    2.4230 h1        1 PSS      0.056700
     27 H3         -1.4020    1.3190   -0.3290 h1        1 PSS      0.085700
     28 H5         -1.5490   -0.9910   -1.3140 hc        1 PSS      0.066700
     29 H5A        -1.6620   -1.7120    0.3440 hc        1 PSS      0.066700
     30 H7         -3.7950   -2.0110    1.2800 ha        1 PSS      0.133000
     31 H8         -6.2550   -1.6370    1.2160 ha        1 PSS      0.121000
     32 H9         -7.2280    0.0290   -0.3670 ha        1 PSS      0.118000
     33 H10        -5.7280    1.3210   -1.8860 ha        1 PSS      0.121000
     34 H11        -3.2630    0.9450   -1.8270 ha        1 PSS      0.133000
     35 H12         3.2640   -0.0640    1.5960 h1        1 PSS      0.030700
     36 H13         2.8320   -0.2260   -1.4690 hc        1 PSS      0.071200
     37 H13A        4.3940   -0.3640   -0.5650 hc        1 PSS      0.071200
     38 H14         3.3640   -2.3200    0.7560 hc        1 PSS      0.029700
     39 H14A        1.9210   -2.2190   -0.3320 hc        1 PSS      0.029700
     40 H15         3.4070   -2.5660   -2.3280 hc        1 PSS      0.037200
     41 H15A        4.8450   -2.6770   -1.2420 hc        1 PSS      0.037200
     42 H16         3.8210   -4.6670   -0.0870 hc        1 PSS      0.020367
     43 H16A        2.3830   -4.5570   -1.1790 hc        1 PSS      0.020367
     44 H16B        4.0130   -4.9470   -1.8660 hc        1 PSS      0.020367
     45 O1          0.6270   -0.1840   -1.2420 o         1 PSS     -0.676500
@<TRIPOS>BOND
     1    1    3 1   
     2    1   16 1   
     3    1   21 1   
     4    2    6 1   
     5    2    8 1   
     6    2   16 1   
     7    4    5 1   
     8    4    6 1   
     9    4   22 1   
    10    4   23 1   
    11    5    7 1   
    12    5   24 1   
    13    6   25 1   
    14    6   26 1   
    15    7    8 1   
    16    7    9 1   
    17    7   27 1   
    18    8   45 2   
    19    9   10 1   
    20    9   28 1   
    21    9   29 1   
    22   10   11 ar  
    23   10   15 ar  
    24   11   12 ar  
    25   11   30 1   
    26   12   13 ar  
    27   12   31 1   
    28   13   14 ar  
    29   13   32 1   
    30   14   15 ar  
    31   14   33 1   
    32   15   34 1   
    33   16   17 1   
    34   16   35 1   
    35   17   18 1   
    36   17   36 1   
    37   17   37 1   
    38   18   19 1   
    39   18   38 1   
    40   18   39 1   
    41   19   20 1   
    42   19   40 1   
    43   19   41 1   
    44   20   42 1   
    45   20   43 1   
    46   20   44 1   
@<TRIPOS>SUBSTRUCTURE
     1 PSS         1 TEMP              0 ****  ****    0 ROOT
