@<TRIPOS>MOLECULE
PST
   36    37     1     0     0
SMALL
bcc


@<TRIPOS>ATOM
      1 P           0.6090   -0.3320   -3.7070 p5        1 PST      1.266200
      2 OP1         2.0420   -1.0240   -3.6560 oh        1 PST     -0.735400
      3 OP2        -0.1920   -1.5960   -4.2300 oh        1 PST     -0.735400
      4 SP          0.3310    1.3190   -4.5150 s         1 PST     -0.539000
      5 O5'         0.3660   -0.4430   -2.1300 os        1 PST     -0.577200
      6 C5'        -0.4050    0.5250   -1.4470 c3        1 PST      0.137400
      7 C4'        -1.6730   -0.1130   -0.8780 c3        1 PST      0.122100
      8 O4'        -1.3370   -1.0190    0.1790 os        1 PST     -0.413600
      9 C3'        -2.6110    0.9700   -0.3010 c3        1 PST      0.123100
     10 O3'        -3.8190    0.9030   -1.0360 oh        1 PST     -0.590800
     11 C2'        -2.8280    0.5860    1.1680 c3        1 PST     -0.136400
     12 C1'        -1.8370   -0.5610    1.4440 c3        1 PST      0.314500
     13 N1         -0.7380   -0.2420    2.3560 n         1 PST     -0.383000
     14 C2         -0.0020    0.9670    2.2360 c         1 PST      0.811500
     15 O2         -0.3320    1.8670    1.4300 o         1 PST     -0.664500
     16 N3          1.1080    1.1630    3.0690 n         1 PST     -0.584500
     17 C4          1.5840    0.1870    3.9630 c         1 PST      0.714700
     18 O4          2.5820    0.4460    4.6530 o         1 PST     -0.600500
     19 C5          0.8370   -1.0850    3.9890 cc        1 PST     -0.245400
     20 C5M         1.3250   -2.1330    4.9060 c3        1 PST     -0.032900
     21 C6         -0.2500   -1.2470    3.1870 cd        1 PST      0.037600
     22 HOP1        2.4790   -1.1030   -2.8080 ho        1 PST      0.498500
     23 HOP2        0.2000   -2.4570   -4.0780 ho        1 PST      0.498500
     24 H5'        -0.6700    1.3590   -2.1610 h1        1 PST      0.092700
     25 H5''        0.2300    0.9160   -0.6010 h1        1 PST      0.092700
     26 H4'        -2.2020   -0.7380   -1.6490 h1        1 PST      0.098700
     27 H3'        -2.1470    1.9910   -0.3780 h1        1 PST      0.080700
     28 HO3        -4.2980    1.7240   -0.8650 ho        1 PST      0.413000
     29 H2'        -3.8700    0.2090    1.3190 hc        1 PST      0.083200
     30 H2''       -2.6640    1.4660    1.8360 hc        1 PST      0.083200
     31 H1'        -2.3710   -1.4580    1.8850 h2        1 PST      0.087700
     32 HN3         1.5830    2.0380    2.9930 hn        1 PST      0.354500
     33 H71         1.2430   -1.7800    5.9660 hc        1 PST      0.054033
     34 H72         0.7380   -3.0770    4.7940 hc        1 PST      0.054033
     35 H73         2.4040   -2.3480    4.7000 hc        1 PST      0.054033
     36 H6         -0.8170   -2.1980    3.1710 h4        1 PST      0.167000
@<TRIPOS>BOND
     1    1    2 1   
     2    1    3 1   
     3    1    4 2   
     4    1    5 1   
     5    2   22 1   
     6    3   23 1   
     7    5    6 1   
     8    6    7 1   
     9    6   24 1   
    10    6   25 1   
    11    7    8 1   
    12    7    9 1   
    13    7   26 1   
    14    8   12 1   
    15    9   10 1   
    16    9   11 1   
    17    9   27 1   
    18   10   28 1   
    19   11   12 1   
    20   11   29 1   
    21   11   30 1   
    22   12   13 1   
    23   12   31 1   
    24   13   14 1   
    25   13   21 1   
    26   14   15 2   
    27   14   16 1   
    28   16   17 1   
    29   16   32 1   
    30   17   18 2   
    31   17   19 1   
    32   19   20 1   
    33   19   21 2   
    34   20   33 1   
    35   20   34 1   
    36   20   35 1   
    37   21   36 1   
@<TRIPOS>SUBSTRUCTURE
     1 PST         1 TEMP              0 ****  ****    0 ROOT
