@<TRIPOS>MOLECULE
PSU
   32    33     1     0     0
SMALL
bcc


@<TRIPOS>ATOM
      1 N1         -1.3570   -1.1380    3.8580 n         1 PSU     -0.413500
      2 C2         -1.1570   -0.4300    5.0590 c         1 PSU      0.700100
      3 N3         -0.0580    0.4310    5.1190 n         1 PSU     -0.593500
      4 C4          0.8290    0.6150    4.0200 c         1 PSU      0.684300
      5 C5          0.5260   -0.1320    2.8160 ce        1 PSU     -0.484500
      6 C6         -0.5570   -1.0010    2.7600 c1        1 PSU     -0.079900
      7 O2         -1.9210   -0.5600    6.0600 o         1 PSU     -0.742100
      8 O4          1.7910    1.3910    4.2380 o         1 PSU     -0.701100
      9 C1'         1.4170    0.0650    1.6460 c3        1 PSU      0.227300
     10 C2'         1.6290   -1.2210    0.8110 c3        1 PSU      0.120100
     11 O2'         2.9470   -1.7160    0.9420 oh        1 PSU     -0.607800
     12 C3'         1.2760   -0.8280   -0.6410 c3        1 PSU      0.102100
     13 C4'         1.0390    0.6950   -0.6020 c3        1 PSU      0.082100
     14 O3'         2.3640   -1.1640   -1.4800 oh        1 PSU     -0.646800
     15 O4'         0.8660    1.0740    0.7660 os        1 PSU     -0.424600
     16 C5'        -0.2040    1.1500   -1.3830 c3        1 PSU      0.200400
     17 O5'         0.1370    1.8350   -2.5510 os        1 PSU     -0.581200
     18 P           0.0140    1.0300   -3.9800 p5        1 PSU      1.441800
     19 OP1        -1.5700    0.6140   -3.9490 oh        1 PSU     -0.789400
     20 OP2         0.2670    1.9770   -5.0810 o         1 PSU     -0.850000
     21 OP3         0.6740   -0.2840   -3.7780 o         1 PSU     -0.850000
     22 HN1        -2.1430   -1.7380    3.8250 hn        1 PSU      0.314500
     23 HN3         0.0950    0.9310    5.9620 hn        1 PSU      0.300500
     24 H6         -1.6900   -0.2940   -3.6930 ho        1 PSU      0.424000
     25 H1'         2.4150    0.4650    1.9880 h1        1 PSU      0.041700
     26 H2'         0.9690   -2.0500    1.1820 h1        1 PSU      0.104700
     27 HO2'        3.5190   -1.1450    0.4140 ho        1 PSU      0.400000
     28 H3'         0.3530   -1.3700   -0.9780 h1        1 PSU      0.051700
     29 H4'         1.9480    1.2310   -0.9950 h1        1 PSU      0.050700
     30 HO3'        2.0570   -1.0200   -2.3930 ho        1 PSU      0.462000
     31 H5'        -0.8510    0.2660   -1.6370 h1        1 PSU      0.028200
     32 H5''       -0.7890    1.8620   -0.7350 h1        1 PSU      0.028200
@<TRIPOS>BOND
     1    1    2 1   
     2    1    6 2   
     3    1   22 1   
     4    2    3 1   
     5    2    7 2   
     6    3    4 1   
     7    3   23 1   
     8    4    5 1   
     9    4    8 2   
    10    5    6 2   
    11    5    9 1   
    12    9   10 1   
    13    9   15 1   
    14    9   25 1   
    15   10   11 1   
    16   10   12 1   
    17   10   26 1   
    18   11   27 1   
    19   12   13 1   
    20   12   14 1   
    21   12   28 1   
    22   13   15 1   
    23   13   16 1   
    24   13   29 1   
    25   14   30 1   
    26   16   17 1   
    27   16   31 1   
    28   16   32 1   
    29   17   18 1   
    30   18   19 1   
    31   18   20 1   
    32   18   21 1   
    33   19   24 1   
@<TRIPOS>SUBSTRUCTURE
     1 PSU         1 TEMP              0 ****  ****    0 ROOT
