@<TRIPOS>MOLECULE
PSV
   24    24     1     0     0
SMALL
bcc


@<TRIPOS>ATOM
      1 C1          1.9690   -0.7880   -0.5880 c3        1 PSV      0.119400
      2 O1          2.6170   -1.4910    0.4570 oh        1 PSV     -0.603800
      3 C2          0.8320    0.0130    0.0490 c3        1 PSV      0.295600
      4 O2          1.1640    0.5730    1.2950 oh        1 PSV     -0.623800
      5 C3          0.2890    1.1620   -0.8460 c3        1 PSV      0.106100
      6 O3          1.0010    2.3570   -0.7030 oh        1 PSV     -0.563800
      7 C4         -1.1930    1.2490   -0.4020 c3        1 PSV      0.093100
      8 O4         -1.3530    2.1900    0.6360 oh        1 PSV     -0.583800
      9 C5         -1.5170   -0.1810    0.0760 c3        1 PSV      0.058100
     10 O5         -0.2690   -0.8530    0.3360 os        1 PSV     -0.444600
     11 C6         -2.2760   -0.9840   -0.9780 c3        1 PSV      0.128400
     12 O6         -2.5500   -2.2930   -0.5320 oh        1 PSV     -0.592800
     13 H1          2.6780   -0.0700   -1.0800 h1        1 PSV      0.049700
     14 H1A         1.5550   -1.5070   -1.3420 h1        1 PSV      0.049700
     15 HO1         3.3950   -1.9080    0.0700 ho        1 PSV      0.415000
     16 HO2         1.5240   -0.1340    1.8510 ho        1 PSV      0.448000
     17 H3          0.3760    0.8860   -1.9300 h1        1 PSV      0.093700
     18 HO3         0.8990    2.6560    0.2130 ho        1 PSV      0.427000
     19 H4         -1.8670    1.5990   -1.2240 h1        1 PSV      0.103700
     20 HO4        -0.8210    1.8840    1.3870 ho        1 PSV      0.419000
     21 H5         -2.0800   -0.1750    1.0480 h1        1 PSV      0.091700
     22 H6         -3.2820   -0.5210   -1.1660 h1        1 PSV      0.049200
     23 H6A        -1.6860   -1.0180   -1.9330 h1        1 PSV      0.049200
     24 HO6        -1.7120   -2.6740   -0.2330 ho        1 PSV      0.416000
@<TRIPOS>BOND
     1    1    2 1   
     2    1    3 1   
     3    1   13 1   
     4    1   14 1   
     5    2   15 1   
     6    3    4 1   
     7    3    5 1   
     8    3   10 1   
     9    4   16 1   
    10    5    6 1   
    11    5    7 1   
    12    5   17 1   
    13    6   18 1   
    14    7    8 1   
    15    7    9 1   
    16    7   19 1   
    17    8   20 1   
    18    9   10 1   
    19    9   11 1   
    20    9   21 1   
    21   11   12 1   
    22   11   22 1   
    23   11   23 1   
    24   12   24 1   
@<TRIPOS>SUBSTRUCTURE
     1 PSV         1 TEMP              0 ****  ****    0 ROOT
