@<TRIPOS>MOLECULE
PSW
   14    13     1     0     0
SMALL
bcc


@<TRIPOS>ATOM
      1 N           1.4810    1.7420   -0.4410 n3        1 PSW     -0.884800
      2 C           2.7760   -0.4080    0.0100 c         1 PSW      0.899600
      3 O           3.7540    0.1780   -0.5280 o         1 PSW     -0.821800
      4 CA          1.4550    0.4390    0.2080 c3        1 PSW      0.013500
      5 CB          0.2800   -0.4310   -0.2120 c3        1 PSW      0.021700
      6 SE         -1.1130    0.2740    0.6260 ss        1 PSW     -0.154100
      7 SD         -2.7650   -0.9900    0.2440 sh        1 PSW     -0.345800
      8 OXT         2.7690   -1.5970    0.4200 o         1 PSW     -0.821800
      9 HN1         2.3790    2.1530   -0.2410 hn        1 PSW      0.335800
     10 HN2         1.4480    1.6060   -1.4360 hn        1 PSW      0.335800
     11 HA          1.3830    0.6310    1.3210 h1        1 PSW      0.065700
     12 HB1C        0.1280   -0.4360   -1.3150 h1        1 PSW      0.079700
     13 HB2C        0.4750   -1.4790    0.1310 h1        1 PSW      0.079700
     14 HD         -3.2570   -0.3730   -0.8190 hs        1 PSW      0.197800
@<TRIPOS>BOND
     1    1    4 1   
     2    1    9 1   
     3    1   10 1   
     4    2    3 1   
     5    2    4 1   
     6    2    8 1   
     7    4    5 1   
     8    4   11 1   
     9    5    6 1   
    10    5   12 1   
    11    5   13 1   
    12    6    7 1   
    13    7   14 1   
@<TRIPOS>SUBSTRUCTURE
     1 PSW         1 TEMP              0 ****  ****    0 ROOT
