@<TRIPOS>MOLECULE
PSX
   28    27     1     0     0
SMALL
bcc


@<TRIPOS>ATOM
      1 CAA         4.9100   -0.4230    1.1170 c3        1 PSX     -0.083100
      2 C6          3.8660    0.5540    0.6440 c3        1 PSX     -0.082400
      3 C5          2.6110   -0.1610    0.1400 c3        1 PSX      0.156100
      4 OC5         2.9770   -0.8280   -1.0640 oh        1 PSX     -0.657800
      5 C4          1.4410    0.8120   -0.0420 c3        1 PSX     -0.108700
      6 CAB         1.6810    1.7780   -1.1770 c3        1 PSX     -0.067100
      7 C3          0.1080    0.0520   -0.2280 c3        1 PSX      0.204100
      8 OC3         0.1580   -0.5690   -1.5190 oh        1 PSX     -0.715800
      9 C2         -1.0930    0.9310   -0.0460 c3        1 PSX     -0.308600
     10 P1         -2.4750   -0.1370    0.4950 p5        1 PSX      1.220700
     11 O2P        -2.3780   -1.2290   -0.5610 o         1 PSX     -0.951833
     12 O1P        -2.0820   -0.5710    1.8860 o         1 PSX     -0.951833
     13 O3P        -3.6910    0.7500    0.4080 o         1 PSX     -0.951833
     14 HAA1        4.5360   -1.0070    1.9920 hc        1 PSX      0.019367
     15 HAA2        5.1570   -1.1420    0.2970 hc        1 PSX      0.019367
     16 HAA3        5.8430    0.1100    1.4210 hc        1 PSX      0.019367
     17 H61         3.5740    1.2370    1.4830 hc        1 PSX      0.033200
     18 H62         4.2840    1.1820   -0.1840 hc        1 PSX      0.033200
     19 H5          2.3060   -0.9470    0.8910 h1        1 PSX      0.036700
     20 HOC5        2.1490   -1.0440   -1.5200 ho        1 PSX      0.446000
     21 H4          1.3390    1.3910    0.9180 hc        1 PSX      0.044700
     22 HAB1        1.8720    1.2160   -2.1230 hc        1 PSX      0.019033
     23 HAB2        0.7710    2.4110   -1.3200 hc        1 PSX      0.019033
     24 HAB3        2.5570    2.4380   -0.9670 hc        1 PSX      0.019033
     25 H3          0.0530   -0.7690    0.5510 h1        1 PSX      0.055700
     26 HOC3       -0.7370   -0.9820   -1.5980 ho        1 PSX      0.482000
     27 H21        -0.9260    1.6940    0.7390 hc        1 PSX      0.025200
     28 H22        -1.3930    1.4260   -0.9900 hc        1 PSX      0.025200
@<TRIPOS>BOND
     1    1    2 1   
     2    1   14 1   
     3    1   15 1   
     4    1   16 1   
     5    2    3 1   
     6    2   17 1   
     7    2   18 1   
     8    3    4 1   
     9    3    5 1   
    10    3   19 1   
    11    4   20 1   
    12    5    6 1   
    13    5    7 1   
    14    5   21 1   
    15    6   22 1   
    16    6   23 1   
    17    6   24 1   
    18    7    8 1   
    19    7    9 1   
    20    7   25 1   
    21    8   26 1   
    22    9   10 1   
    23    9   27 1   
    24    9   28 1   
    25   10   11 1   
    26   10   12 1   
    27   10   13 1   
@<TRIPOS>SUBSTRUCTURE
     1 PSX         1 TEMP              0 ****  ****    0 ROOT
