@<TRIPOS>MOLECULE
PSX
   28    27     1     0     0
SMALL
bcc


@<TRIPOS>ATOM
      1 CAA         0.0010   -0.4110    0.0680 c3        1 PSX     -0.083100
      2 C6          1.4740   -0.0980    0.0450 c3        1 PSX     -0.082400
      3 C5          2.0260    0.1300    1.4530 c3        1 PSX      0.156100
      4 OC5         1.4570    1.3480    1.9220 oh        1 PSX     -0.657800
      5 C4          3.5580    0.1350    1.4660 c3        1 PSX     -0.108700
      6 CAB         4.1250    1.3390    0.7530 c3        1 PSX     -0.067100
      7 C3          4.1030    0.0340    2.9090 c3        1 PSX      0.204100
      8 OC3         3.8140    1.2810    3.5530 oh        1 PSX     -0.715800
      9 C2          5.5570   -0.3280    2.9560 c3        1 PSX     -0.308600
     10 P1          5.8600   -1.1670    4.5520 p5        1 PSX      1.220700
     11 O2P         5.2070   -0.1640    5.4920 o         1 PSX     -0.951833
     12 O1P         5.1250   -2.4790    4.4230 o         1 PSX     -0.951833
     13 O3P         7.3620   -1.2670    4.6460 o         1 PSX     -0.951833
     14 HAA1       -0.4000   -0.5110   -0.9700 hc        1 PSX      0.019367
     15 HAA2       -0.1900   -1.3670    0.6130 hc        1 PSX      0.019367
     16 HAA3       -0.5540    0.4060    0.5910 hc        1 PSX      0.019367
     17 H61         2.0380   -0.9430   -0.4270 hc        1 PSX      0.033200
     18 H62         1.6540    0.8230   -0.5690 hc        1 PSX      0.033200
     19 H5          1.6670   -0.7010    2.1290 h1        1 PSX      0.036700
     20 HOC5        1.9990    1.6310    2.6750 ho        1 PSX      0.446000
     21 H4          3.8970   -0.7990    0.9370 hc        1 PSX      0.044700
     22 HAB1        3.8580    1.3270   -0.3330 hc        1 PSX      0.019033
     23 HAB2        3.7260    2.2770    1.2110 hc        1 PSX      0.019033
     24 HAB3        5.2370    1.3390    0.8580 hc        1 PSX      0.019033
     25 H3          3.5300   -0.7800    3.4510 h1        1 PSX      0.055700
     26 HOC3        4.2370    1.1720    4.4400 ho        1 PSX      0.482000
     27 H21         5.8310   -1.0310    2.1460 hc        1 PSX      0.025200
     28 H22         6.2100    0.5660    2.9110 hc        1 PSX      0.025200
@<TRIPOS>BOND
     1    1    2 1   
     2    1   14 1   
     3    1   15 1   
     4    1   16 1   
     5    2    3 1   
     6    2   17 1   
     7    2   18 1   
     8    3    4 1   
     9    3    5 1   
    10    3   19 1   
    11    4   20 1   
    12    5    6 1   
    13    5    7 1   
    14    5   21 1   
    15    6   22 1   
    16    6   23 1   
    17    6   24 1   
    18    7    8 1   
    19    7    9 1   
    20    7   25 1   
    21    8   26 1   
    22    9   10 1   
    23    9   27 1   
    24    9   28 1   
    25   10   11 1   
    26   10   12 1   
    27   10   13 1   
@<TRIPOS>SUBSTRUCTURE
     1 PSX         1 TEMP              0 ****  ****    0 ROOT
