@<TRIPOS>MOLECULE
PSX
   28    27     1     0     0
SMALL
bcc


@<TRIPOS>ATOM
      1 CAA        -0.0010   -0.3870    0.0650 c3        1 PSX     -0.083100
      2 C6          1.4730   -0.0770    0.0440 c3        1 PSX     -0.082400
      3 C5          2.0260    0.1380    1.4540 c3        1 PSX      0.156100
      4 OC5         1.4610    1.3540    1.9330 oh        1 PSX     -0.657800
      5 C4          3.5580    0.1380    1.4660 c3        1 PSX     -0.108700
      6 CAB         4.1280    1.3460    0.7630 c3        1 PSX     -0.067100
      7 C3          4.1030    0.0240    2.9080 c3        1 PSX      0.204100
      8 OC3         3.8180    1.2660    3.5630 oh        1 PSX     -0.715800
      9 C2          5.5570   -0.3430    2.9520 c3        1 PSX     -0.308600
     10 P1          5.8580   -1.1960    4.5410 p5        1 PSX      1.220700
     11 O2P         5.2070   -0.1980    5.4890 o         1 PSX     -0.951833
     12 O1P         5.1190   -2.5040    4.4020 o         1 PSX     -0.951833
     13 O3P         7.3590   -1.3010    4.6330 o         1 PSX     -0.951833
     14 HAA1       -0.4020   -0.4770   -0.9730 hc        1 PSX      0.019367
     15 HAA2       -0.1940   -1.3470    0.6020 hc        1 PSX      0.019367
     16 HAA3       -0.5530    0.4270    0.5950 hc        1 PSX      0.019367
     17 H61         2.0340   -0.9200   -0.4350 hc        1 PSX      0.033200
     18 H62         1.6550    0.8480   -0.5620 hc        1 PSX      0.033200
     19 H5          1.6650   -0.6980    2.1230 h1        1 PSX      0.036700
     20 HOC5        2.0040    1.6290    2.6880 ho        1 PSX      0.446000
     21 H4          3.8940   -0.7920    0.9300 hc        1 PSX      0.044700
     22 HAB1        3.8610    1.3440   -0.3230 hc        1 PSX      0.019033
     23 HAB2        3.7320    2.2810    1.2280 hc        1 PSX      0.019033
     24 HAB3        5.2400    1.3420    0.8670 hc        1 PSX      0.019033
     25 H3          3.5290   -0.7920    3.4440 h1        1 PSX      0.055700
     26 HOC3        4.2420    1.1490    4.4480 ho        1 PSX      0.482000
     27 H21         5.8280   -1.0400    2.1370 hc        1 PSX      0.025200
     28 H22         6.2120    0.5490    2.9140 hc        1 PSX      0.025200
@<TRIPOS>BOND
     1    1    2 1   
     2    1   14 1   
     3    1   15 1   
     4    1   16 1   
     5    2    3 1   
     6    2   17 1   
     7    2   18 1   
     8    3    4 1   
     9    3    5 1   
    10    3   19 1   
    11    4   20 1   
    12    5    6 1   
    13    5    7 1   
    14    5   21 1   
    15    6   22 1   
    16    6   23 1   
    17    6   24 1   
    18    7    8 1   
    19    7    9 1   
    20    7   25 1   
    21    8   26 1   
    22    9   10 1   
    23    9   27 1   
    24    9   28 1   
    25   10   11 1   
    26   10   12 1   
    27   10   13 1   
@<TRIPOS>SUBSTRUCTURE
     1 PSX         1 TEMP              0 ****  ****    0 ROOT
