@<TRIPOS>MOLECULE
PSY
   20    20     1     0     0
SMALL
bcc


@<TRIPOS>ATOM
      1 C1          0.1640    0.1260   -0.1540 ca        1 PSY     -0.146000
      2 C2          1.5000    0.5190   -0.0730 ca        1 PSY     -0.111500
      3 C3         -0.5010   -0.3360    0.9830 ca        1 PSY     -0.111500
      4 C4          2.1840    0.4500    1.1380 ca        1 PSY     -0.160500
      5 C5          0.1590   -0.4090    2.2070 ca        1 PSY     -0.160500
      6 C6          1.5060   -0.0170    2.2760 ca        1 PSY      0.147100
      7 O1          2.1780    0.0020    3.4680 os        1 PSY     -0.475800
      8 S           2.3580   -1.3290    4.4990 sy        1 PSY      1.641400
      9 O2          3.1010   -0.7890    5.5290 o         1 PSY     -0.644800
     10 O3          1.0780   -1.8030    4.7070 o         1 PSY     -0.644800
     11 C7          3.2380   -2.3710    3.5830 ce        1 PSY     -0.532100
     12 C8          4.5670   -2.4850    3.5480 c2        1 PSY      0.025000
     13 H1         -0.3670    0.1830   -1.1150 ha        1 PSY      0.134000
     14 H2          2.0190    0.8900   -0.9690 ha        1 PSY      0.135500
     15 H3         -1.5560   -0.6400    0.9170 ha        1 PSY      0.135500
     16 H4          3.2310    0.7720    1.2210 ha        1 PSY      0.156500
     17 H5         -0.3590   -0.7700    3.1100 ha        1 PSY      0.156500
     18 H7          2.6490   -3.0540    2.9370 h4        1 PSY      0.190000
     19 H8          5.2260   -1.8470    4.1620 ha        1 PSY      0.132000
     20 H8A         5.0850   -3.2190    2.9130 ha        1 PSY      0.132000
@<TRIPOS>BOND
     1    1    2 ar  
     2    1    3 ar  
     3    1   13 1   
     4    2    4 ar  
     5    2   14 1   
     6    3    5 ar  
     7    3   15 1   
     8    4    6 ar  
     9    4   16 1   
    10    5    6 ar  
    11    5   17 1   
    12    6    7 1   
    13    7    8 1   
    14    8    9 2   
    15    8   10 2   
    16    8   11 1   
    17   11   12 2   
    18   11   18 1   
    19   12   19 1   
    20   12   20 1   
@<TRIPOS>SUBSTRUCTURE
     1 PSY         1 TEMP              0 ****  ****    0 ROOT
