@<TRIPOS>MOLECULE
PSY
   20    20     1     0     0
SMALL
bcc


@<TRIPOS>ATOM
      1 C1          0.0990    0.0740   -0.1260 ca        1 PSY     -0.146000
      2 C2          1.4330    0.4810   -0.0830 ca        1 PSY     -0.111500
      3 C3         -0.5340   -0.3760    1.0330 ca        1 PSY     -0.111500
      4 C4          2.1460    0.4360    1.1130 ca        1 PSY     -0.160500
      5 C5          0.1550   -0.4250    2.2420 ca        1 PSY     -0.160500
      6 C6          1.5000   -0.0200    2.2730 ca        1 PSY      0.147100
      7 O1          2.1990    0.0230    3.4480 os        1 PSY     -0.475800
      8 S           2.4160   -1.2910    4.4950 sy        1 PSY      1.641400
      9 O2          3.1790   -0.7290    5.4980 o         1 PSY     -0.644800
     10 O3          1.1460   -1.7720    4.7400 o         1 PSY     -0.644800
     11 C7          3.2840   -2.3390    3.5730 ce        1 PSY     -0.532100
     12 C8          4.6120   -2.4410    3.5070 c2        1 PSY      0.025000
     13 H1         -0.4550    0.1120   -1.0750 ha        1 PSY      0.134000
     14 H2          1.9270    0.8440   -0.9960 ha        1 PSY      0.135500
     15 H3         -1.5880   -0.6920    0.9970 ha        1 PSY      0.135500
     16 H4          3.1910    0.7700    1.1660 ha        1 PSY      0.156500
     17 H5         -0.3380   -0.7780    3.1620 ha        1 PSY      0.156500
     18 H7          2.6850   -3.0370    2.9510 h4        1 PSY      0.190000
     19 H8          5.2800   -1.7880    4.0960 ha        1 PSY      0.132000
     20 H8A         5.1210   -3.1800    2.8710 ha        1 PSY      0.132000
@<TRIPOS>BOND
     1    1    2 ar  
     2    1    3 ar  
     3    1   13 1   
     4    2    4 ar  
     5    2   14 1   
     6    3    5 ar  
     7    3   15 1   
     8    4    6 ar  
     9    4   16 1   
    10    5    6 ar  
    11    5   17 1   
    12    6    7 1   
    13    7    8 1   
    14    8    9 2   
    15    8   10 2   
    16    8   11 1   
    17   11   12 2   
    18   11   18 1   
    19   12   19 1   
    20   12   20 1   
@<TRIPOS>SUBSTRUCTURE
     1 PSY         1 TEMP              0 ****  ****    0 ROOT
