@<TRIPOS>MOLECULE
PSY
   20    20     1     0     0
SMALL
bcc


@<TRIPOS>ATOM
      1 C1          3.5010   -0.5690   -0.2890 ca        1 PSY     -0.146000
      2 C2          2.8200   -1.4890    0.5090 ca        1 PSY     -0.111500
      3 C3          2.8840    0.6250   -0.6630 ca        1 PSY     -0.111500
      4 C4          1.5200   -1.2280    0.9340 ca        1 PSY     -0.160500
      5 C5          1.5870    0.9130   -0.2460 ca        1 PSY     -0.160500
      6 C6          0.9080   -0.0230    0.5510 ca        1 PSY      0.147100
      7 O1         -0.3380    0.2420    1.0500 os        1 PSY     -0.475800
      8 S          -1.6900    0.6470    0.1130 sy        1 PSY      1.641400
      9 O2         -2.6640    0.8030    1.0770 o         1 PSY     -0.644800
     10 O3         -1.2820    1.7040   -0.6750 o         1 PSY     -0.644800
     11 C7         -1.9200   -0.7110   -0.7830 ce        1 PSY     -0.532100
     12 C8         -2.7010   -1.7500   -0.4820 c2        1 PSY      0.025000
     13 H1          4.5270   -0.7840   -0.6210 ha        1 PSY      0.134000
     14 H2          3.3120   -2.4260    0.8100 ha        1 PSY      0.135500
     15 H3          3.4250    1.3520   -1.2880 ha        1 PSY      0.135500
     16 H4          0.9780   -1.9350    1.5770 ha        1 PSY      0.156500
     17 H5          1.0930    1.8540   -0.5360 ha        1 PSY      0.156500
     18 H7         -1.3660   -0.7490   -1.7440 h4        1 PSY      0.190000
     19 H8         -3.2880   -1.7900    0.4520 ha        1 PSY      0.132000
     20 H8A        -2.8120   -2.6230   -1.1430 ha        1 PSY      0.132000
@<TRIPOS>BOND
     1    1    2 ar  
     2    1    3 ar  
     3    1   13 1   
     4    2    4 ar  
     5    2   14 1   
     6    3    5 ar  
     7    3   15 1   
     8    4    6 ar  
     9    4   16 1   
    10    5    6 ar  
    11    5   17 1   
    12    6    7 1   
    13    7    8 1   
    14    8    9 2   
    15    8   10 2   
    16    8   11 1   
    17   11   12 2   
    18   11   18 1   
    19   12   19 1   
    20   12   20 1   
@<TRIPOS>SUBSTRUCTURE
     1 PSY         1 TEMP              0 ****  ****    0 ROOT
