@<TRIPOS>MOLECULE
PSZ
   36    37     1     0     0
SMALL
bcc


@<TRIPOS>ATOM
      1 O1T        -0.1510   -1.5250   -0.2670 o         1 PSZ     -0.842300
      2 C3A         1.0880   -1.3230   -0.0940 c         1 PSZ      0.932200
      3 O2T         1.6690   -1.5140    1.0120 o         1 PSZ     -0.842300
      4 C2T         1.9080   -0.8400   -1.2620 cc        1 PSZ     -0.089700
      5 S           1.2570   -0.5220   -2.7890 ss        1 PSZ     -0.064800
      6 C5T         2.7280   -0.0880   -3.4590 cc        1 PSZ     -0.270100
      7 C4T         3.7680   -0.1840   -2.5420 cd        1 PSZ      0.096600
      8 C3T         3.2630   -0.6160   -1.2480 cd        1 PSZ     -0.186000
      9 N4A         5.1360   -0.0210   -2.7910 nu        1 PSZ     -0.722600
     10 C4A         5.5230    0.5090   -4.0890 c3        1 PSZ      0.224100
     11 C4          7.0030    0.4460   -4.3380 ca        1 PSZ     -0.170300
     12 C3          7.6490   -0.8150   -4.3980 ca        1 PSZ     -0.003200
     13 O3          7.0020   -2.0200   -4.2080 oh        1 PSZ     -0.542100
     14 C2          9.0240   -0.8950   -4.7070 ca        1 PSZ      0.306600
     15 C2A         9.6700   -2.2390   -4.7530 c3        1 PSZ     -0.107400
     16 N1          9.7580    0.2190   -4.9890 nb        1 PSZ     -0.677000
     17 C6          9.1480    1.4010   -4.9420 ca        1 PSZ      0.373200
     18 C5          7.7710    1.5820   -4.5960 ca        1 PSZ     -0.136600
     19 C5A         7.2480    3.0010   -4.5800 c3        1 PSZ      0.241700
     20 O4P         8.2060    3.9210   -4.2530 os        1 PSZ     -0.561200
     21 P           8.7950    4.9280   -5.5460 p5        1 PSZ      1.314900
     22 O3P         9.1620    6.2020   -4.8440 o         1 PSZ     -0.921500
     23 O1P         9.9410    4.0710   -6.0270 o         1 PSZ     -0.921500
     24 O2P         7.6070    4.9870   -6.4700 o         1 PSZ     -0.921500
     25 H5T         2.8240    0.2340   -4.4910 h4        1 PSZ      0.152000
     26 H3T         3.8940   -0.7530   -0.3680 ha        1 PSZ      0.157000
     27 HN4A        5.6130    0.4280   -2.0350 hn        1 PSZ      0.395800
     28 H4A1        5.0130   -0.1250   -4.8750 h1        1 PSZ      0.046200
     29 H4A2        5.1560    1.5670   -4.2320 h1        1 PSZ      0.046200
     30 HO3         6.1620   -1.8490   -3.7600 ho        1 PSZ      0.432000
     31 H2A1        9.3960   -2.7540   -5.7080 hc        1 PSZ      0.020700
     32 H2A2        9.2970   -2.8630   -3.9030 hc        1 PSZ      0.020700
     33 H2A3       10.7830   -2.1720   -4.6930 hc        1 PSZ      0.020700
     34 H6          9.7270    2.3450   -5.2260 h4        1 PSZ      0.155100
     35 H5A1        6.8130    3.2210   -5.6050 h1        1 PSZ      0.022200
     36 H5A2        6.4190    3.0530   -3.8100 h1        1 PSZ      0.022200
@<TRIPOS>BOND
     1    1    2 1   
     2    2    3 1   
     3    2    4 1   
     4    4    5 1   
     5    4    8 2   
     6    5    6 1   
     7    6    7 2   
     8    6   25 1   
     9    7    8 1   
    10    7    9 1   
    11    8   26 1   
    12    9   10 1   
    13    9   27 1   
    14   10   11 1   
    15   10   28 1   
    16   10   29 1   
    17   11   12 ar  
    18   11   18 ar  
    19   12   13 1   
    20   12   14 ar  
    21   13   30 1   
    22   14   15 1   
    23   14   16 ar  
    24   15   31 1   
    25   15   32 1   
    26   15   33 1   
    27   16   17 ar  
    28   17   18 ar  
    29   17   34 1   
    30   18   19 1   
    31   19   20 1   
    32   19   35 1   
    33   19   36 1   
    34   20   21 1   
    35   21   22 1   
    36   21   23 1   
    37   21   24 1   
@<TRIPOS>SUBSTRUCTURE
     1 PSZ         1 TEMP              0 ****  ****    0 ROOT
