@<TRIPOS>MOLECULE
PSZ
   36    37     1     0     0
SMALL
bcc


@<TRIPOS>ATOM
      1 O1T         7.2900    0.0740   -0.0400 o         1 PSZ     -0.842300
      2 C3A         6.2860    0.2970    0.7000 c         1 PSZ      0.932200
      3 O2T         6.3840    0.5410    1.9370 o         1 PSZ     -0.842300
      4 C2T         4.9140    0.2790    0.0770 cc        1 PSZ     -0.089700
      5 S           4.6370   -0.0550   -1.5560 ss        1 PSZ     -0.064800
      6 C5T         2.9800    0.1390   -1.4390 cc        1 PSZ     -0.270100
      7 C4T         2.5830    0.4770   -0.1510 cd        1 PSZ      0.096600
      8 C3T         3.7360    0.5420    0.7330 cd        1 PSZ     -0.186000
      9 N4A         1.2980    0.8340    0.2750 nh        1 PSZ     -0.722600
     10 C4A         0.2030    0.6370   -0.6610 c3        1 PSZ      0.224100
     11 C4         -1.0910    1.2430   -0.1970 ca        1 PSZ     -0.170300
     12 C3         -1.1830    2.6470   -0.0220 ca        1 PSZ     -0.003200
     13 O3         -0.1290    3.5180   -0.2250 oh        1 PSZ     -0.542100
     14 C2         -2.4110    3.2400    0.3400 ca        1 PSZ      0.306600
     15 C2A        -2.4670    4.7200    0.5220 c3        1 PSZ     -0.107400
     16 N1         -3.5440    2.4960    0.4960 nb        1 PSZ     -0.677000
     17 C6         -3.4580    1.1790    0.3220 ca        1 PSZ      0.373200
     18 C5         -2.2490    0.4880   -0.0020 ca        1 PSZ     -0.136600
     19 C5A        -2.3350   -1.0150   -0.1500 c3        1 PSZ      0.241700
     20 O4P        -3.3030   -1.5750    0.6380 os        1 PSZ     -0.561200
     21 P          -4.7350   -2.1460   -0.1720 p5        1 PSZ      1.314900
     22 O3P        -5.1820   -3.2870    0.6920 o         1 PSZ     -0.921500
     23 O1P        -5.5710   -0.8890   -0.1140 o         1 PSZ     -0.921500
     24 O2P        -4.2080   -2.5010   -1.5370 o         1 PSZ     -0.921500
     25 H5T         2.3170    0.0000   -2.2880 h4        1 PSZ      0.152000
     26 H3T         3.6710    0.7820    1.7960 ha        1 PSZ      0.157000
     27 HN4A        1.0870    0.4900    1.1900 hn        1 PSZ      0.395800
     28 H4A1        0.4940    1.1440   -1.6290 h1        1 PSZ      0.046200
     29 H4A2        0.0490   -0.4560   -0.8970 h1        1 PSZ      0.046200
     30 HO3         0.6930    3.0100   -0.2090 ho        1 PSZ      0.432000
     31 H2A1       -2.4870    5.2200   -0.4790 hc        1 PSZ      0.020700
     32 H2A2       -3.3690    5.0390    1.0970 hc        1 PSZ      0.020700
     33 H2A3       -1.5500    5.0640    1.0620 hc        1 PSZ      0.020700
     34 H6         -4.4040    0.5400    0.3950 h4        1 PSZ      0.155100
     35 H5A1       -2.5250   -1.2450   -1.2440 h1        1 PSZ      0.022200
     36 H5A2       -1.3310   -1.4470    0.1480 h1        1 PSZ      0.022200
@<TRIPOS>BOND
     1    1    2 1   
     2    2    3 1   
     3    2    4 1   
     4    4    5 1   
     5    4    8 2   
     6    5    6 1   
     7    6    7 2   
     8    6   25 1   
     9    7    8 1   
    10    7    9 1   
    11    8   26 1   
    12    9   10 1   
    13    9   27 1   
    14   10   11 1   
    15   10   28 1   
    16   10   29 1   
    17   11   12 ar  
    18   11   18 ar  
    19   12   13 1   
    20   12   14 ar  
    21   13   30 1   
    22   14   15 1   
    23   14   16 ar  
    24   15   31 1   
    25   15   32 1   
    26   15   33 1   
    27   16   17 ar  
    28   17   18 ar  
    29   17   34 1   
    30   18   19 1   
    31   19   20 1   
    32   19   35 1   
    33   19   36 1   
    34   20   21 1   
    35   21   22 1   
    36   21   23 1   
    37   21   24 1   
@<TRIPOS>SUBSTRUCTURE
     1 PSZ         1 TEMP              0 ****  ****    0 ROOT
