@<TRIPOS>MOLECULE
PSZ
   37    38     1     0     0
SMALL
bcc


@<TRIPOS>ATOM
      1 O1T        -0.2080   -2.2030   -0.8860 o         1 PSZ     -0.834800
      2 C3A         1.0510   -2.1760   -0.7650 c         1 PSZ      0.932200
      3 O2T         1.6920   -2.9020    0.0460 o         1 PSZ     -0.834800
      4 C2T         1.8360   -1.2310   -1.6420 cc        1 PSZ     -0.092700
      5 S           1.1450   -0.2350   -2.8140 ss        1 PSZ     -0.028800
      6 C5T         2.6070    0.4100   -3.3040 cc        1 PSZ     -0.262100
      7 C4T         3.6710   -0.1100   -2.5780 cd        1 PSZ      0.073600
      8 C3T         3.2010   -1.0770   -1.6050 cd        1 PSZ     -0.192000
      9 N4A         5.0200    0.2780   -2.6770 nh        1 PSZ     -0.674600
     10 C4A         5.4530    0.7010   -3.9990 c3        1 PSZ      0.218100
     11 C4          6.9020    0.4490   -4.3070 ca        1 PSZ     -0.077300
     12 C3          7.4700   -0.8320   -4.1210 ca        1 PSZ     -0.012200
     13 O3          6.6360   -1.8480   -3.7020 oh        1 PSZ     -0.498100
     14 C2          8.8320   -1.0700   -4.4300 ca        1 PSZ      0.311600
     15 C2A         9.4040   -2.4310   -4.2000 c3        1 PSZ     -0.140400
     16 N1          9.6260   -0.0890   -4.9260 nb        1 PSZ     -0.666000
     17 C6          9.0780    1.1140   -5.1300 ca        1 PSZ      0.396200
     18 C5          7.7290    1.4440   -4.8450 ca        1 PSZ     -0.157600
     19 C5A         7.2230    2.8230   -5.1560 c3        1 PSZ      0.235700
     20 O4P         8.1730    3.5750   -5.8410 os        1 PSZ     -0.575200
     21 P           8.4430    5.1250   -5.3120 p5        1 PSZ      1.427800
     22 O3P         9.3070    4.7650   -3.9740 oh        1 PSZ     -0.785400
     23 O1P         9.2850    5.7880   -6.3220 o         1 PSZ     -0.833000
     24 O2P         7.1660    5.6040   -4.7410 o         1 PSZ     -0.833000
     25 H5T         2.6860    1.1560   -4.0890 h4        1 PSZ      0.150000
     26 H3T         3.8540   -1.6210   -0.9200 ha        1 PSZ      0.156000
     27 HN4A        8.7710    4.7850   -3.1890 ho        1 PSZ      0.426000
     28 H4A1        4.8510    0.2000   -4.8170 h1        1 PSZ      0.055700
     29 H4A2        5.2370    1.8080   -4.0550 h1        1 PSZ      0.055700
     30 HO3         7.1750   -2.4980   -3.2290 ho        1 PSZ      0.411000
     31 H2A1        8.7800   -3.1940   -4.7280 hc        1 PSZ      0.039700
     32 H2A2       10.4540   -2.5120   -4.5740 hc        1 PSZ      0.039700
     33 H2A3        9.4030   -2.6610   -3.1050 hc        1 PSZ      0.039700
     34 H6          9.7460    1.8900   -5.5550 h4        1 PSZ      0.057100
     35 H5A1        6.3090    2.7080   -5.8130 h1        1 PSZ      0.045700
     36 H5A2        6.9210    3.3490   -4.2040 h1        1 PSZ      0.045700
     37 H4A3        5.6150   -0.4390   -2.3000 hn        1 PSZ      0.377800
@<TRIPOS>BOND
     1    1    2 1   
     2    2    3 1   
     3    2    4 1   
     4    4    5 1   
     5    4    8 2   
     6    5    6 1   
     7    6    7 2   
     8    6   25 1   
     9    7    8 1   
    10    7    9 1   
    11    8   26 1   
    12    9   10 1   
    13    9   37 1   
    14   10   11 1   
    15   10   28 1   
    16   10   29 1   
    17   11   12 ar  
    18   11   18 ar  
    19   12   13 1   
    20   12   14 ar  
    21   13   30 1   
    22   14   15 1   
    23   14   16 ar  
    24   15   31 1   
    25   15   32 1   
    26   15   33 1   
    27   16   17 ar  
    28   17   18 ar  
    29   17   34 1   
    30   18   19 1   
    31   19   20 1   
    32   19   35 1   
    33   19   36 1   
    34   20   21 1   
    35   21   22 1   
    36   21   23 1   
    37   21   24 1   
    38   22   27 1   
@<TRIPOS>SUBSTRUCTURE
     1 PSZ         1 TEMP              0 ****  ****    0 ROOT
