@<TRIPOS>MOLECULE
PSZ
   36    37     1     0     0
SMALL
bcc


@<TRIPOS>ATOM
      1 O1T        -0.1060   -1.5770   -0.2160 o         1 PSZ     -0.842300
      2 C3A         1.1360   -1.3830   -0.0580 c         1 PSZ      0.932200
      3 O2T         1.7320   -1.6000    1.0350 o         1 PSZ     -0.842300
      4 C2T         1.9400   -0.8780   -1.2280 cc        1 PSZ     -0.089700
      5 S           1.2680   -0.5260   -2.7380 ss        1 PSZ     -0.064800
      6 C5T         2.7310   -0.0840   -3.4200 cc        1 PSZ     -0.270100
      7 C4T         3.7830   -0.2020   -2.5210 cd        1 PSZ      0.096600
      8 C3T         3.2960   -0.6590   -1.2290 cd        1 PSZ     -0.186000
      9 N4A         5.1480   -0.0380   -2.7870 nh        1 PSZ     -0.722600
     10 C4A         5.5180    0.5180   -4.0780 c3        1 PSZ      0.224100
     11 C4          6.9940    0.4560   -4.3500 ca        1 PSZ     -0.170300
     12 C3          7.6350   -0.8050   -4.4460 ca        1 PSZ     -0.003200
     13 O3          6.9870   -2.0130   -4.2720 oh        1 PSZ     -0.542100
     14 C2          9.0050   -0.8830   -4.7770 ca        1 PSZ      0.306600
     15 C2A         9.6460   -2.2280   -4.8610 c3        1 PSZ     -0.107400
     16 N1          9.7390    0.2350   -5.0460 nb        1 PSZ     -0.677000
     17 C6          9.1330    1.4170   -4.9660 ca        1 PSZ      0.373200
     18 C5          7.7620    1.5950   -4.5960 ca        1 PSZ     -0.136600
     19 C5A         7.2440    3.0150   -4.5430 c3        1 PSZ      0.241700
     20 O4P         8.2100    3.9250   -4.2110 os        1 PSZ     -0.561200
     21 P           8.7830    4.9570   -5.4900 p5        1 PSZ      1.314900
     22 O3P         9.1640    6.2150   -4.7670 o         1 PSZ     -0.921500
     23 O1P         9.9190    4.1070   -6.0060 o         1 PSZ     -0.921500
     24 O2P         7.5820    5.0390   -6.3950 o         1 PSZ     -0.921500
     25 H5T         2.8120    0.2600   -4.4470 h4        1 PSZ      0.152000
     26 H3T         3.9390   -0.8170   -0.3610 ha        1 PSZ      0.157000
     27 HN4A        5.6380    0.3940   -2.0290 hn        1 PSZ      0.395800
     28 H4A1        5.1530    1.5800   -4.1940 h1        1 PSZ      0.046200
     29 H4A2        4.9950   -0.0970   -4.8700 h1        1 PSZ      0.046200
     30 HO3         6.1540   -1.8470   -3.8090 ho        1 PSZ      0.432000
     31 H2A1        9.3580   -2.7200   -5.8230 hc        1 PSZ      0.020700
     32 H2A2       10.7600   -2.1660   -4.8140 hc        1 PSZ      0.020700
     33 H2A3        9.2810   -2.8690   -4.0210 hc        1 PSZ      0.020700
     34 H6          9.7110    2.3650   -5.2380 h4        1 PSZ      0.155100
     35 H5A1        6.4260    3.0530   -3.7590 h1        1 PSZ      0.022200
     36 H5A2        6.7950    3.2580   -5.5560 h1        1 PSZ      0.022200
@<TRIPOS>BOND
     1    1    2 1   
     2    2    3 1   
     3    2    4 1   
     4    4    5 1   
     5    4    8 2   
     6    5    6 1   
     7    6    7 2   
     8    6   25 1   
     9    7    8 1   
    10    7    9 1   
    11    8   26 1   
    12    9   10 1   
    13    9   27 1   
    14   10   11 1   
    15   10   28 1   
    16   10   29 1   
    17   11   12 ar  
    18   11   18 ar  
    19   12   13 1   
    20   12   14 ar  
    21   13   30 1   
    22   14   15 1   
    23   14   16 ar  
    24   15   31 1   
    25   15   32 1   
    26   15   33 1   
    27   16   17 ar  
    28   17   18 ar  
    29   17   34 1   
    30   18   19 1   
    31   19   20 1   
    32   19   35 1   
    33   19   36 1   
    34   20   21 1   
    35   21   22 1   
    36   21   23 1   
    37   21   24 1   
@<TRIPOS>SUBSTRUCTURE
     1 PSZ         1 TEMP              0 ****  ****    0 ROOT
