@<TRIPOS>MOLECULE
PT0
   35    34     1     0     0
SMALL
bcc


@<TRIPOS>ATOM
      1 N           1.4620    1.6420   -1.4820 n3        1 PT0     -0.897800
      2 O          -3.1370    0.8950    1.3150 o         1 PT0     -0.525000
      3 P           0.2570    1.5530    0.7200 p5        1 PT0      1.502100
      4 C5         -2.3340    0.8260    0.3810 c         1 PT0      0.672100
      5 C6         -3.5470   -1.1370   -0.2370 c3        1 PT0      0.141400
      6 O6         -2.4960   -0.1950   -0.5210 os        1 PT0     -0.449900
      7 C7         -3.5030   -2.1620   -1.3440 c3        1 PT0     -0.101100
      8 CA          1.1950    0.7260   -0.3910 c3        1 PT0     -0.136700
      9 CB          2.4180    0.1270    0.3060 c3        1 PT0     -0.090400
     10 CG          2.6470   -1.3380   -0.0420 c3        1 PT0     -0.065700
     11 CP         -1.2420    1.7660    0.0230 c3        1 PT0     -0.455600
     12 O1P         0.8480    2.7470    1.3110 o         1 PT0     -0.867300
     13 O2P         0.0150    0.5220    1.9330 oh        1 PT0     -0.802400
     14 CD1         3.0340   -1.5060   -1.4960 c3        1 PT0     -0.092600
     15 CD2         3.7210   -1.9170    0.8570 c3        1 PT0     -0.092600
     16 HN          2.0820    2.3650   -1.1610 hn        1 PT0      0.364800
     17 HNA         1.8900    1.1690   -2.2560 hn        1 PT0      0.364800
     18 H6         -3.3590   -1.5940    0.7690 h1        1 PT0      0.055700
     19 H6A        -4.5240   -0.5860   -0.2130 h1        1 PT0      0.055700
     20 H7         -3.6560   -1.6760   -2.3370 hc        1 PT0      0.048367
     21 H7A        -2.5170   -2.6850   -1.3560 hc        1 PT0      0.048367
     22 H7B        -4.3130   -2.9120   -1.1750 hc        1 PT0      0.048367
     23 HA          0.6100   -0.1370   -0.8350 h1        1 PT0      0.114700
     24 HB          3.3560    0.6940    0.0510 hc        1 PT0      0.056700
     25 HBA         2.2780    0.2100    1.4190 hc        1 PT0      0.056700
     26 HG          1.6900   -1.9050    0.1420 hc        1 PT0      0.053700
     27 HP         -1.6160    2.7960    0.3000 hc        1 PT0      0.147700
     28 HPA        -1.1650    1.7740   -1.1020 hc        1 PT0      0.147700
     29 HO2P        0.1720    0.8660    2.8090 ho        1 PT0      0.484000
     30 HD1         2.2230   -1.1310   -2.1660 hc        1 PT0      0.036200
     31 HD1A        3.9710   -0.9420   -1.7220 hc        1 PT0      0.036200
     32 HD1B        3.2080   -2.5850   -1.7250 hc        1 PT0      0.036200
     33 HD2         3.4170   -1.8390    1.9290 hc        1 PT0      0.036200
     34 HD2A        3.8880   -2.9930    0.6130 hc        1 PT0      0.036200
     35 HD2B        4.6840   -1.3690    0.7210 hc        1 PT0      0.036200
@<TRIPOS>BOND
     1    1    8 1   
     2    1   16 1   
     3    1   17 1   
     4    2    4 2   
     5    3    8 1   
     6    3   11 1   
     7    3   12 2   
     8    3   13 1   
     9    4    6 1   
    10    4   11 1   
    11    5    6 1   
    12    5    7 1   
    13    5   18 1   
    14    5   19 1   
    15    7   20 1   
    16    7   21 1   
    17    7   22 1   
    18    8    9 1   
    19    8   23 1   
    20    9   10 1   
    21    9   24 1   
    22    9   25 1   
    23   10   14 1   
    24   10   15 1   
    25   10   26 1   
    26   11   27 1   
    27   11   28 1   
    28   13   29 1   
    29   14   30 1   
    30   14   31 1   
    31   14   32 1   
    32   15   33 1   
    33   15   34 1   
    34   15   35 1   
@<TRIPOS>SUBSTRUCTURE
     1 PT0         1 TEMP              0 ****  ****    0 ROOT
