@<TRIPOS>MOLECULE
PT1
   34    29     1     0     0
SMALL
bcc


@<TRIPOS>ATOM
      1 C2         -2.3230    0.6410    3.9550 c1        1 PT1      0.238000
      2 C3         -1.6100   -0.0620    2.9690 c1        1 PT1     -0.185000
      3 C5         -1.5570   -1.4170    3.0060 c1        1 PT1      0.077000
      4 N6         -0.9800    0.6230    1.9590 n2        1 PT1     -0.049000
      5 C7         -2.8970   -1.4080    4.9750 c1        1 PT1      0.186000
      6 N9         -2.2010   -2.1000    4.0120 n1        1 PT1     -0.220000
      7 C10        -0.3030   -0.0530    1.0000 c1        1 PT1     -0.079000
      8 N11        -3.4880   -2.3880    5.8680 n3        1 PT1     -0.322000
      9 C12        -0.2460   -1.4330    1.0360 c1        1 PT1     -0.034000
     10 C21         3.1770    0.7980   -6.1610 c1        1 PT1      0.357000
     11 O22         4.3130    1.3090   -6.2550 o         1 PT1     -0.565000
     12 O1         -2.0160    2.0270    4.1760 o         1 PT1     -0.206000
     13 N4         -2.9510   -0.0270    4.9340 n2        1 PT1     -0.317000
     14 N8         -0.8650   -2.1070    2.0260 n2        1 PT1     -0.108000
     15 C13         0.8260    0.4130    0.0710 c3        1 PT1     -0.025000
     16 N14         0.2780    0.8330   -1.1480 n3        1 PT1     -0.264000
     17 C15         1.0700    0.7840   -2.3530 c2        1 PT1     -0.028000
     18 C16         0.9890    1.8200   -3.2750 c2        1 PT1     -0.193000
     19 C17         1.8700   -0.3350   -2.6260 c1        1 PT1     -0.170000
     20 C18         1.7070    1.7470   -4.4760 c1        1 PT1     -0.091000
     21 C19         2.5870   -0.4030   -3.8310 c1        1 PT1     -0.094000
     22 C20         2.5010    0.6380   -4.7480 c1        1 PT1     -0.111000
     23 O23         2.6150    0.3360   -7.1780 o         1 PT1     -0.565000
     24 H111       -4.0760   -2.1350    6.4650 hn        1 PT1      0.221000
     25 H112       -3.1860   -3.2850    5.8520 hn        1 PT1      0.221000
     26 H12         0.2490   -1.9250    0.3360 ha        1 PT1      0.199000
     27 HO1        -2.7590    2.4580    4.4830 ho        1 PT1      0.238000
     28 H131        1.3050    1.1560    0.4860 h1        1 PT1      0.100500
     29 H132        1.4810   -0.3690   -0.0960 h1        1 PT1      0.100500
     30 H14        -0.5520    1.1150   -1.1810 hn        1 PT1      0.162000
     31 H16         0.4090    2.6000   -3.0930 ha        1 PT1      0.106000
     32 H17         1.8710   -1.0910   -2.0190 ha        1 PT1      0.109000
     33 H18         1.6770    2.4770   -5.0970 ha        1 PT1      0.154000
     34 H19         3.0870   -1.2370   -4.0710 ha        1 PT1      0.154000
@<TRIPOS>BOND
     1    1    2 1   
     2    1   13 1   
     3    2    4 1   
     4    3    6 1   
     5    3   14 1   
     6    4    7 1   
     7    5    8 1   
     8    5   13 1   
     9    7   15 1   
    10    8   24 1   
    11    8   25 1   
    12    9   14 1   
    13    9   26 1   
    14   10   11 1   
    15   10   23 1   
    16   12   27 1   
    17   15   16 1   
    18   15   28 1   
    19   15   29 1   
    20   16   17 1   
    21   16   30 1   
    22   17   18 1   
    23   17   19 1   
    24   18   20 1   
    25   18   31 1   
    26   19   32 1   
    27   20   33 1   
    28   21   22 1   
    29   21   34 1   
@<TRIPOS>SUBSTRUCTURE
     1 PT1         1 TEMP              0 ****  ****    0 ROOT
