@<TRIPOS>MOLECULE
PT1
   34    36     1     0     0
SMALL
bcc


@<TRIPOS>ATOM
      1 C2         -0.1300    0.3850    0.2400 ca        1 PT1      0.675300
      2 C3          1.2920    0.1400    0.0620 ca        1 PT1      0.085000
      3 C5          2.0120   -0.1910    1.2770 ca        1 PT1      0.601000
      4 N6          1.9030    0.2220   -1.1650 nb        1 PT1     -0.568000
      5 C7          0.0440   -0.0410    2.5260 ca        1 PT1      0.909900
      6 N9          1.3920   -0.2680    2.5050 nb        1 PT1     -0.750000
      7 C10         3.2090   -0.0170   -1.2020 ca        1 PT1      0.279300
      8 N11        -0.6280   -0.2240    3.7390 nh        1 PT1     -0.927500
      9 C12         3.9400   -0.3510    0.0090 ca        1 PT1      0.347900
     10 C21         5.5440    0.3100   -8.8540 c         1 PT1      0.909200
     11 O22         4.7740    0.1150   -9.8370 o         1 PT1     -0.832800
     12 O1         -0.8480    0.7190   -0.8720 oh        1 PT1     -0.572300
     13 N4         -0.7500    0.3130    1.4200 nb        1 PT1     -0.841000
     14 N8          3.3900   -0.4360    1.2030 nb        1 PT1     -0.629000
     15 C13         3.9960    0.0830   -2.4900 c3        1 PT1      0.132500
     16 N14         3.4600   -0.7130   -3.5740 nh        1 PT1     -0.700600
     17 C15         3.9760   -0.3980   -4.8640 ca        1 PT1      0.069600
     18 C16         3.1650   -0.5940   -6.0040 ca        1 PT1     -0.193500
     19 C17         5.3050    0.0340   -5.0490 ca        1 PT1     -0.193500
     20 C18         3.6790   -0.3730   -7.2770 ca        1 PT1     -0.086500
     21 C19         5.7990    0.2530   -6.3330 ca        1 PT1     -0.086500
     22 C20         4.9960    0.0560   -7.4580 ca        1 PT1     -0.140600
     23 O23         6.7400    0.7070   -8.9570 o         1 PT1     -0.832800
     24 H111       -1.5240    0.1960    3.8220 hn        1 PT1      0.429300
     25 H112       -0.0680   -0.2450    4.5590 hn        1 PT1      0.429300
     26 H12         5.0270   -0.5560   -0.0490 h4        1 PT1      0.042100
     27 HO1        -1.7840    0.8480   -0.6340 ho        1 PT1      0.442000
     28 H131        5.0420   -0.2930   -2.2880 h1        1 PT1      0.053200
     29 H132        4.0780    1.1810   -2.7530 h1        1 PT1      0.053200
     30 H14         2.4570   -0.7050   -3.5850 hn        1 PT1      0.381800
     31 H16         2.1230   -0.9280   -5.8910 ha        1 PT1      0.106500
     32 H17         5.9670    0.1960   -4.1880 ha        1 PT1      0.106500
     33 H18         3.0540   -0.5280   -8.1730 ha        1 PT1      0.151500
     34 H19         6.8370    0.5900   -6.4860 ha        1 PT1      0.151500
@<TRIPOS>BOND
     1    1    2 ar  
     2    1   12 1   
     3    1   13 ar  
     4    2    3 ar  
     5    2    4 ar  
     6    3    6 ar  
     7    3   14 ar  
     8    4    7 ar  
     9    5    6 ar  
    10    5    8 1   
    11    5   13 ar  
    12    7    9 ar  
    13    7   15 1   
    14    8   24 1   
    15    8   25 1   
    16    9   14 ar  
    17    9   26 1   
    18   10   11 1   
    19   10   22 1   
    20   10   23 1   
    21   12   27 1   
    22   15   16 1   
    23   15   28 1   
    24   15   29 1   
    25   16   17 1   
    26   16   30 1   
    27   17   18 ar  
    28   17   19 ar  
    29   18   20 ar  
    30   18   31 1   
    31   19   21 ar  
    32   19   32 1   
    33   20   22 ar  
    34   20   33 1   
    35   21   22 ar  
    36   21   34 1   
@<TRIPOS>SUBSTRUCTURE
     1 PT1         1 TEMP              0 ****  ****    0 ROOT
