@<TRIPOS>MOLECULE
PT1
   34    36     1     0     0
SMALL
bcc


@<TRIPOS>ATOM
      1 C2          1.4560    0.4310    3.8980 ca        1 PT1      0.672300
      2 C3          0.2310    0.1430    3.1680 ca        1 PT1      0.027000
      3 C5         -0.9190   -0.1960    3.9800 ca        1 PT1      0.614000
      4 N6          0.1810    0.2010    1.7960 nb        1 PT1     -0.615000
      5 C7          0.3680    0.0190    5.9140 ca        1 PT1      0.909900
      6 N9         -0.8530   -0.2460    5.3520 nb        1 PT1     -0.755000
      7 C10        -0.9850   -0.0690    1.2240 ca        1 PT1      0.289300
      8 N11         0.4890   -0.1280    7.2950 nh        1 PT1     -0.932500
      9 C12        -2.1460   -0.4130    2.0310 ca        1 PT1      0.348900
     10 C21         0.3120    0.3790   -6.6430 c         1 PT1      0.909200
     11 O22         1.4380    0.1730   -7.1780 o         1 PT1     -0.831300
     12 O1          2.6150    0.7880    3.2690 oh        1 PT1     -0.586300
     13 N4          1.5440    0.3850    5.2280 nb        1 PT1     -0.771000
     14 N8         -2.1380   -0.4770    3.3450 nb        1 PT1     -0.625000
     15 C13        -1.1670    0.0040   -0.2760 c3        1 PT1      0.128500
     16 N14        -0.2420   -0.8190   -1.0280 nh        1 PT1     -0.698600
     17 C15        -0.1080   -0.4660   -2.4020 ca        1 PT1      0.064600
     18 C16         1.1230   -0.6750   -3.0610 ca        1 PT1     -0.192500
     19 C17        -1.1990    0.0210   -3.1510 ca        1 PT1     -0.192500
     20 C18         1.2450   -0.4120   -4.4210 ca        1 PT1     -0.086500
     21 C19        -1.0550    0.2830   -4.5100 ca        1 PT1     -0.086500
     22 C20         0.1640    0.0750   -5.1600 ca        1 PT1     -0.138600
     23 O23        -0.6970    0.8250   -7.2580 o         1 PT1     -0.831300
     24 H111        1.2850    0.2730    7.7310 hn        1 PT1      0.435300
     25 H112       -0.3500   -0.1730    7.8240 hn        1 PT1      0.435300
     26 H12        -3.1060   -0.6440    1.5300 h4        1 PT1      0.043100
     27 HO1         2.4610    0.7880    2.3080 ho        1 PT1      0.462000
     28 H131       -2.2060   -0.3640   -0.5200 h1        1 PT1      0.055700
     29 H132       -1.1190    1.0960   -0.5720 h1        1 PT1      0.055700
     30 H14         0.6590   -0.8680   -0.5910 hn        1 PT1      0.375800
     31 H16         1.9920   -1.0560   -2.5030 ha        1 PT1      0.106500
     32 H17        -2.1740    0.1910   -2.6730 ha        1 PT1      0.106500
     33 H18         2.2010   -0.5760   -4.9450 ha        1 PT1      0.153000
     34 H19        -1.9030    0.6640   -5.1040 ha        1 PT1      0.153000
@<TRIPOS>BOND
     1    1    2 ar  
     2    1   12 1   
     3    1   13 ar  
     4    2    3 ar  
     5    2    4 ar  
     6    3    6 ar  
     7    3   14 ar  
     8    4    7 ar  
     9    5    6 ar  
    10    5    8 1   
    11    5   13 ar  
    12    7    9 ar  
    13    7   15 1   
    14    8   24 1   
    15    8   25 1   
    16    9   14 ar  
    17    9   26 1   
    18   10   11 1   
    19   10   22 1   
    20   10   23 1   
    21   12   27 1   
    22   15   16 1   
    23   15   28 1   
    24   15   29 1   
    25   16   17 1   
    26   16   30 1   
    27   17   18 ar  
    28   17   19 ar  
    29   18   20 ar  
    30   18   31 1   
    31   19   21 ar  
    32   19   32 1   
    33   20   22 ar  
    34   20   33 1   
    35   21   22 ar  
    36   21   34 1   
@<TRIPOS>SUBSTRUCTURE
     1 PT1         1 TEMP              0 ****  ****    0 ROOT
