@<TRIPOS>MOLECULE
PT1
   36    38     1     0     0
SMALL
bcc


@<TRIPOS>ATOM
      1 C2         -0.0470   -0.7330    0.4010 ca        1 PT1      0.708300
      2 C3          1.2480   -0.1320    0.0840 ca        1 PT1      0.157000
      3 C5          1.9300    0.5310    1.1750 ca        1 PT1      0.583000
      4 N6          1.7900   -0.1920   -1.1770 nb        1 PT1     -0.595000
      5 C7          0.1810   -0.0100    2.5860 ca        1 PT1      0.767900
      6 N9          1.3740    0.5870    2.4500 nb        1 PT1     -0.629000
      7 C10         2.9730    0.3880   -1.3530 ca        1 PT1      0.287300
      8 N11        -0.4280    0.0430    3.9520 n4        1 PT1     -0.819300
      9 C12         3.6640    1.0570   -0.2590 ca        1 PT1      0.369900
     10 C21         6.1160    0.0530   -8.6290 c         1 PT1      0.913200
     11 O22         5.9100    1.0630   -9.3420 o         1 PT1     -0.769300
     12 O1         -0.6990   -1.3560   -0.6030 oh        1 PT1     -0.539300
     13 N4         -0.5820   -0.6760    1.6360 nb        1 PT1     -0.792000
     14 N8          3.1720    1.1320    0.9620 nb        1 PT1     -0.557000
     15 C13         3.6710    0.3920   -2.6870 c3        1 PT1      0.046500
     16 N14         2.9490   -0.2970   -3.7940 n4        1 PT1     -0.597400
     17 C15         3.7320   -0.2220   -5.0300 ca        1 PT1     -0.149400
     18 C16         3.5430    0.8710   -5.9000 ca        1 PT1     -0.126000
     19 C17         4.6640   -1.2390   -5.3190 ca        1 PT1     -0.126000
     20 C18         4.3050    0.9370   -7.0590 ca        1 PT1     -0.090000
     21 C19         5.4110   -1.1450   -6.4850 ca        1 PT1     -0.090000
     22 C20         5.2470   -0.0570   -7.3540 ca        1 PT1     -0.061600
     23 O23         6.9390   -0.8760   -8.8070 o         1 PT1     -0.769300
     24 H111        0.1940    0.5520    4.5990 hn        1 PT1      0.489800
     25 H112       -0.5710   -0.9170    4.2930 hn        1 PT1      0.489800
     26 H12         4.6520    1.5360   -0.4290 h4        1 PT1      0.086100
     27 HO1        -1.5550   -1.7270   -0.2990 ho        1 PT1      0.486000
     28 H131        4.6820   -0.1060   -2.5720 hx        1 PT1      0.140700
     29 H132        3.8480    1.4650   -3.0050 hx        1 PT1      0.140700
     30 H14         2.0360    0.1480   -3.9460 hn        1 PT1      0.452800
     31 H16         2.8070    1.6570   -5.6780 ha        1 PT1      0.126000
     32 H17         4.8000   -2.0960   -4.6440 ha        1 PT1      0.126000
     33 H18         4.1940    1.7720   -7.7770 ha        1 PT1      0.198000
     34 H19         6.1540   -1.9170   -6.7600 ha        1 PT1      0.198000
     35 H113       -1.3370    0.5240    3.8960 hn        1 PT1      0.489800
     36 H142        2.7960   -1.2830   -3.5520 hn        1 PT1      0.452800
@<TRIPOS>BOND
     1    1    2 ar  
     2    1   12 1   
     3    1   13 ar  
     4    2    3 ar  
     5    2    4 ar  
     6    3    6 ar  
     7    3   14 ar  
     8    4    7 ar  
     9    5    6 ar  
    10    5    8 1   
    11    5   13 ar  
    12    7    9 ar  
    13    7   15 1   
    14    8   24 1   
    15    8   25 1   
    16    8   35 1   
    17    9   14 ar  
    18    9   26 1   
    19   10   11 1   
    20   10   22 1   
    21   10   23 1   
    22   12   27 1   
    23   15   16 1   
    24   15   28 1   
    25   15   29 1   
    26   16   17 1   
    27   16   30 1   
    28   16   36 1   
    29   17   18 ar  
    30   17   19 ar  
    31   18   20 ar  
    32   18   31 1   
    33   19   21 ar  
    34   19   32 1   
    35   20   22 ar  
    36   20   33 1   
    37   21   22 ar  
    38   21   34 1   
@<TRIPOS>SUBSTRUCTURE
     1 PT1         1 TEMP              0 ****  ****    0 ROOT
