@<TRIPOS>MOLECULE
PT1
   34    36     1     0     0
SMALL
bcc


@<TRIPOS>ATOM
      1 C2         -0.1270    0.4220    0.2450 ca        1 PT1      0.675300
      2 C3          1.2900    0.1530    0.0650 ca        1 PT1      0.085000
      3 C5          2.0050   -0.2010    1.2770 ca        1 PT1      0.601000
      4 N6          1.9030    0.2370   -1.1610 nb        1 PT1     -0.568000
      5 C7          0.0390   -0.0290    2.5270 ca        1 PT1      0.909900
      6 N9          1.3820   -0.2790    2.5040 nb        1 PT1     -0.750000
      7 C10         3.2050   -0.0240   -1.1990 ca        1 PT1      0.279300
      8 N11        -0.6370   -0.2120    3.7380 nv        1 PT1     -0.927500
      9 C12         3.9300   -0.3830    0.0080 ca        1 PT1      0.347900
     10 C21         5.5510    0.3160   -8.8480 c         1 PT1      0.909200
     11 O22         4.7790    0.1380   -9.8330 o         1 PT1     -0.832800
     12 O1         -0.8390    0.7790   -0.8640 oh        1 PT1     -0.572300
     13 N4         -0.7480    0.3490    1.4240 nb        1 PT1     -0.841000
     14 N8          3.3770   -0.4690    1.2010 nb        1 PT1     -0.629000
     15 C13         3.9940    0.0740   -2.4870 c3        1 PT1      0.132500
     16 N14         3.4470   -0.7070   -3.5760 nu        1 PT1     -0.700600
     17 C15         3.9680   -0.3920   -4.8640 ca        1 PT1      0.069600
     18 C16         3.1550   -0.5680   -6.0060 ca        1 PT1     -0.193500
     19 C17         5.3030    0.0220   -5.0460 ca        1 PT1     -0.193500
     20 C18         3.6740   -0.3480   -7.2780 ca        1 PT1     -0.086500
     21 C19         5.8020    0.2410   -6.3270 ca        1 PT1     -0.086500
     22 C20         4.9980    0.0620   -7.4550 ca        1 PT1     -0.140600
     23 O23         6.7530    0.6950   -8.9480 o         1 PT1     -0.832800
     24 H111       -0.0780   -0.2510    4.5580 hn        1 PT1      0.429300
     25 H112       -1.5260    0.2230    3.8250 hn        1 PT1      0.429300
     26 H12         5.0130   -0.6060   -0.0510 h4        1 PT1      0.042100
     27 HO1        -1.7720    0.9220   -0.6250 ho        1 PT1      0.442000
     28 H131        4.0910    1.1730   -2.7420 h1        1 PT1      0.053200
     29 H132        5.0340   -0.3190   -2.2880 h1        1 PT1      0.053200
     30 H14         2.4430   -0.6820   -3.5880 hn        1 PT1      0.381800
     31 H16         2.1090   -0.8880   -5.8960 ha        1 PT1      0.106500
     32 H17         5.9670    0.1690   -4.1830 ha        1 PT1      0.106500
     33 H18         3.0480   -0.4880   -8.1750 ha        1 PT1      0.151500
     34 H19         6.8460    0.5630   -6.4780 ha        1 PT1      0.151500
@<TRIPOS>BOND
     1    1    2 ar  
     2    1   12 1   
     3    1   13 ar  
     4    2    3 ar  
     5    2    4 ar  
     6    3    6 ar  
     7    3   14 ar  
     8    4    7 ar  
     9    5    6 ar  
    10    5    8 1   
    11    5   13 ar  
    12    7    9 ar  
    13    7   15 1   
    14    8   24 1   
    15    8   25 1   
    16    9   14 ar  
    17    9   26 1   
    18   10   11 1   
    19   10   22 1   
    20   10   23 1   
    21   12   27 1   
    22   15   16 1   
    23   15   28 1   
    24   15   29 1   
    25   16   17 1   
    26   16   30 1   
    27   17   18 ar  
    28   17   19 ar  
    29   18   20 ar  
    30   18   31 1   
    31   19   21 ar  
    32   19   32 1   
    33   20   22 ar  
    34   20   33 1   
    35   21   22 ar  
    36   21   34 1   
@<TRIPOS>SUBSTRUCTURE
     1 PT1         1 TEMP              0 ****  ****    0 ROOT
