@<TRIPOS>MOLECULE
PT3
   25    24     1     0     0
SMALL
bcc


@<TRIPOS>ATOM
      1 O1          1.8120    1.0270   -0.6130 o         1 PT3     -0.826800
      2 O11         1.6380    0.4530   -2.7740 o         1 PT3     -0.826800
      3 C1          1.3040    0.3640   -1.5610 c         1 PT3      0.899600
      4 C2          0.1770   -0.6450   -1.2230 c3        1 PT3     -0.018900
      5 O2         -0.1620   -1.4570   -2.3290 oh        1 PT3     -0.626800
      6 C3         -1.0850    0.1070   -0.7570 c3        1 PT3      0.066100
      7 O3         -2.2650   -0.4120   -1.3270 oh        1 PT3     -0.584800
      8 C4         -1.1730    0.0410    0.7750 c         1 PT3      0.623100
      9 O41        -2.0540   -0.6400    1.3450 o         1 PT3     -0.653100
     10 N4         -0.2570    0.8030    1.4720 n         1 PT3     -0.559900
     11 C41        -0.1020    0.6870    2.8930 c3        1 PT3      0.090000
     12 C42         1.1150   -0.1270    3.3450 c3        1 PT3     -0.114400
     13 C43         1.2320   -0.1080    4.8460 c3        1 PT3     -0.086100
     14 H21         0.5280   -1.3540   -0.4260 h1        1 PT3      0.053700
     15 HO2         0.1270   -0.9810   -3.1260 ho        1 PT3      0.431000
     16 H31        -1.0560    1.1810   -1.0970 h1        1 PT3      0.095700
     17 HO3        -2.2180   -1.3740   -1.2460 ho        1 PT3      0.412000
     18 H41N        0.5450    1.1300    0.9550 hn        1 PT3      0.361500
     19 H411       -1.0320    0.2250    3.3300 h1        1 PT3      0.043700
     20 H412       -0.0000    1.7320    3.3100 h1        1 PT3      0.043700
     21 H421        2.0470    0.2920    2.8840 hc        1 PT3      0.052700
     22 H422        1.0140   -1.1850    2.9850 hc        1 PT3      0.052700
     23 H431        2.1140   -0.7100    5.1740 hc        1 PT3      0.024367
     24 H432        1.3600    0.9370    5.2200 hc        1 PT3      0.024367
     25 H433        0.3160   -0.5380    5.3190 hc        1 PT3      0.024367
@<TRIPOS>BOND
     1    1    3 1   
     2    2    3 1   
     3    3    4 1   
     4    4    5 1   
     5    4    6 1   
     6    4   14 1   
     7    5   15 1   
     8    6    7 1   
     9    6    8 1   
    10    6   16 1   
    11    7   17 1   
    12    8    9 2   
    13    8   10 1   
    14   10   11 1   
    15   10   18 1   
    16   11   12 1   
    17   11   19 1   
    18   11   20 1   
    19   12   13 1   
    20   12   21 1   
    21   12   22 1   
    22   13   23 1   
    23   13   24 1   
    24   13   25 1   
@<TRIPOS>SUBSTRUCTURE
     1 PT3         1 TEMP              0 ****  ****    0 ROOT
