@<TRIPOS>MOLECULE
PT3
   25    24     1     0     0
SMALL
bcc


@<TRIPOS>ATOM
      1 O1         -0.1710   -0.0970   -0.1510 o         1 PT3     -0.822300
      2 O11         2.0230   -0.1930   -0.6380 o         1 PT3     -0.822300
      3 C1          1.0420   -0.0980    0.1610 c         1 PT3      0.895600
      4 C2          1.4410    0.0160    1.6620 c3        1 PT3     -0.029900
      5 O2          2.5720    0.8620    1.8010 oh        1 PT3     -0.638800
      6 C3          1.7770   -1.3930    2.1800 c3        1 PT3      0.069100
      7 O3          2.9480   -1.9120    1.5710 oh        1 PT3     -0.629800
      8 C4          2.0030   -1.3880    3.6990 c         1 PT3      0.663100
      9 O41         1.2270   -1.9980    4.4660 o         1 PT3     -0.647100
     10 N4          3.1040   -0.7020    4.1730 n         1 PT3     -0.547900
     11 C41         3.3170   -0.4500    5.5660 c3        1 PT3      0.091000
     12 C42         3.0100    0.9810    6.0190 c3        1 PT3     -0.112400
     13 C43         3.3220    1.1470    7.4830 c3        1 PT3     -0.087100
     14 H21         0.6250    0.4770    2.2720 h1        1 PT3      0.072700
     15 HO2         3.0800    0.7780    0.9780 ho        1 PT3      0.425000
     16 H31         0.9130   -2.0840    1.9660 h1        1 PT3      0.075700
     17 HO3         2.9600   -1.5770    0.6560 ho        1 PT3      0.448000
     18 H41N        3.5680   -0.1050    3.5210 hn        1 PT3      0.329500
     19 H411        4.4010   -0.6660    5.7960 h1        1 PT3      0.047200
     20 H412        2.6830   -1.1650    6.1660 h1        1 PT3      0.047200
     21 H421        1.9280    1.2110    5.8330 hc        1 PT3      0.048200
     22 H422        3.6120    1.7110    5.4170 hc        1 PT3      0.048200
     23 H431        4.4020    0.9430    7.6830 hc        1 PT3      0.026367
     24 H432        3.0940    2.1890    7.8130 hc        1 PT3      0.026367
     25 H433        2.7130    0.4410    8.0980 hc        1 PT3      0.026367
@<TRIPOS>BOND
     1    1    3 1   
     2    2    3 1   
     3    3    4 1   
     4    4    5 1   
     5    4    6 1   
     6    4   14 1   
     7    5   15 1   
     8    6    7 1   
     9    6    8 1   
    10    6   16 1   
    11    7   17 1   
    12    8    9 2   
    13    8   10 1   
    14   10   11 1   
    15   10   18 1   
    16   11   12 1   
    17   11   19 1   
    18   11   20 1   
    19   12   13 1   
    20   12   21 1   
    21   12   22 1   
    22   13   23 1   
    23   13   24 1   
    24   13   25 1   
@<TRIPOS>SUBSTRUCTURE
     1 PT3         1 TEMP              0 ****  ****    0 ROOT
