@<TRIPOS>MOLECULE
PT6
   44    46     1     0     0
SMALL
bcc


@<TRIPOS>ATOM
      1 O1         -0.5410    0.2490   -0.3480 o         1 PT6     -0.645500
      2 C18         0.6750   -0.0260   -0.3690 c         1 PT6      0.708700
      3 N1          1.3390   -0.3340    0.8510 n         1 PT6     -0.352000
      4 C7          0.6080   -0.3390    2.1020 c3        1 PT6      0.117300
      5 C6          0.5580   -1.6330    2.8700 ca        1 PT6     -0.064300
      6 C5          0.9920   -2.8350    2.3050 ca        1 PT6     -0.166000
      7 C4          0.9450   -4.0150    3.0430 ca        1 PT6     -0.092000
      8 C3          0.4760   -4.0130    4.3480 ca        1 PT6     -0.190000
      9 C2          0.0130   -2.8130    4.9360 ca        1 PT6      0.142600
     10 N          -0.5370   -2.8440    6.2230 nv        1 PT6     -0.819200
     11 C1          0.0450   -1.6100    4.1780 ca        1 PT6     -0.129300
     12 C          -0.4840   -0.3660    4.7910 c3        1 PT6     -0.055800
     13 C17         1.4800   -0.0380   -1.5830 cc        1 PT6     -0.364200
     14 C10         2.8150   -0.3320   -1.5360 cd        1 PT6      0.217100
     15 C9          3.4500   -0.6400   -0.2820 cd        1 PT6     -0.261000
     16 C8          2.6850   -0.6340    0.8530 cc        1 PT6      0.032600
     17 O           3.6640   -0.3700   -2.6130 os        1 PT6     -0.324900
     18 C11         3.0700   -0.0690   -3.8870 c3        1 PT6      0.129400
     19 C12         4.2060   -0.1700   -4.8970 c3        1 PT6     -0.008100
     20 C13         3.7450    0.1990   -6.2430 cc        1 PT6     -0.120400
     21 S           3.6810   -0.8950   -7.5190 ss        1 PT6      0.021200
     22 C16         3.1190    0.2340   -8.6110 cc        1 PT6     -0.168100
     23 C15         2.9670    1.4740   -8.0290 cd        1 PT6     -0.153000
     24 C14         3.3330    1.4550   -6.6470 cd        1 PT6     -0.153000
     25 H17         0.9370    0.2010   -2.5060 ha        1 PT6      0.168000
     26 H71C       -0.4580   -0.0250    1.8770 h1        1 PT6      0.083700
     27 H72C        1.0800    0.4480    2.7640 h1        1 PT6      0.083700
     28 H8          3.1220   -0.8750    1.8410 h4        1 PT6      0.161000
     29 H5          1.3660   -2.8740    1.2720 ha        1 PT6      0.138000
     30 H4          1.2850   -4.9580    2.5870 ha        1 PT6      0.133000
     31 H3          0.4530   -4.9530    4.9190 ha        1 PT6      0.132000
     32 HN1        -0.4790   -1.9830    6.7220 hn        1 PT6      0.390300
     33 HN2        -0.2580   -3.6310    6.7670 hn        1 PT6      0.390300
     34 HC1        -0.5540    0.4790    4.0660 hc        1 PT6      0.044700
     35 HC2         0.1740   -0.0400    5.6360 hc        1 PT6      0.044700
     36 HC3        -1.5160   -0.5370    5.1910 hc        1 PT6      0.044700
     37 H9          4.5210   -0.8730   -0.2580 ha        1 PT6      0.165000
     38 H111        2.6410    0.9670   -3.8640 h1        1 PT6      0.052700
     39 H112        2.2600   -0.8120   -4.1040 h1        1 PT6      0.052700
     40 H121        5.0410    0.5120   -4.5760 hc        1 PT6      0.066700
     41 H122        4.6140   -1.2170   -4.8860 hc        1 PT6      0.066700
     42 H14         3.2890    2.3360   -6.0040 ha        1 PT6      0.154000
     43 H16         2.9080   -0.0060   -9.6520 h4        1 PT6      0.172000
     44 H15         2.6130    2.3720   -8.5400 ha        1 PT6      0.154000
@<TRIPOS>BOND
     1    1    2 2   
     2    2    3 1   
     3    2   13 1   
     4    3    4 1   
     5    3   16 1   
     6    4    5 1   
     7    4   26 1   
     8    4   27 1   
     9    5    6 ar  
    10    5   11 ar  
    11    6    7 ar  
    12    6   29 1   
    13    7    8 ar  
    14    7   30 1   
    15    8    9 ar  
    16    8   31 1   
    17    9   10 1   
    18    9   11 ar  
    19   10   32 1   
    20   10   33 1   
    21   11   12 1   
    22   12   34 1   
    23   12   35 1   
    24   12   36 1   
    25   13   14 2   
    26   13   25 1   
    27   14   15 1   
    28   14   17 1   
    29   15   16 2   
    30   15   37 1   
    31   16   28 1   
    32   17   18 1   
    33   18   19 1   
    34   18   38 1   
    35   18   39 1   
    36   19   20 1   
    37   19   40 1   
    38   19   41 1   
    39   20   21 1   
    40   20   24 2   
    41   21   22 1   
    42   22   23 2   
    43   22   43 1   
    44   23   24 1   
    45   23   44 1   
    46   24   42 1   
@<TRIPOS>SUBSTRUCTURE
     1 PT6         1 TEMP              0 ****  ****    0 ROOT
