@<TRIPOS>MOLECULE
PT6
   44    46     1     0     0
SMALL
bcc


@<TRIPOS>ATOM
      1 O1         -0.5410    0.2510   -0.3540 o         1 PT6     -0.645500
      2 C18         0.6760   -0.0250   -0.3710 c         1 PT6      0.708700
      3 N1          1.3360   -0.3350    0.8510 n         1 PT6     -0.352000
      4 C7          0.6000   -0.3400    2.0990 c3        1 PT6      0.117300
      5 C6          0.5460   -1.6350    2.8650 ca        1 PT6     -0.064300
      6 C5          0.9810   -2.8370    2.3000 ca        1 PT6     -0.166000
      7 C4          0.9310   -4.0180    3.0360 ca        1 PT6     -0.092000
      8 C3          0.4580   -4.0170    4.3400 ca        1 PT6     -0.190000
      9 C2         -0.0060   -2.8180    4.9280 ca        1 PT6      0.142600
     10 N          -0.5610   -2.8500    6.2130 nh        1 PT6     -0.819200
     11 C1          0.0290   -1.6130    4.1710 ca        1 PT6     -0.129300
     12 C          -0.5010   -0.3700    4.7840 c3        1 PT6     -0.055800
     13 C17         1.4850   -0.0350   -1.5830 cc        1 PT6     -0.364200
     14 C10         2.8190   -0.3300   -1.5310 cd        1 PT6      0.217100
     15 C9          3.4500   -0.6400   -0.2760 cd        1 PT6     -0.261000
     16 C8          2.6810   -0.6350    0.8570 cc        1 PT6      0.032600
     17 O           3.6720   -0.3670   -2.6050 os        1 PT6     -0.324900
     18 C11         3.0830   -0.0650   -3.8810 c3        1 PT6      0.129400
     19 C12         4.2230   -0.1660   -4.8870 c3        1 PT6     -0.008100
     20 C13         3.7650    0.2030   -6.2350 cc        1 PT6     -0.120400
     21 S           3.7090   -0.8910   -7.5110 ss        1 PT6      0.021200
     22 C16         3.1490    0.2380   -8.6050 cc        1 PT6     -0.168100
     23 C15         2.9920    1.4770   -8.0240 cd        1 PT6     -0.153000
     24 C14         3.3530    1.4580   -6.6410 cd        1 PT6     -0.153000
     25 H17         0.9450    0.2050   -2.5070 ha        1 PT6      0.168000
     26 H71C        1.0710    0.4450    2.7640 h1        1 PT6      0.083700
     27 H72C       -0.4650   -0.0250    1.8700 h1        1 PT6      0.083700
     28 H8          3.1150   -0.8770    1.8460 h4        1 PT6      0.161000
     29 H5          1.3590   -2.8750    1.2680 ha        1 PT6      0.138000
     30 H4          1.2720   -4.9600    2.5800 ha        1 PT6      0.133000
     31 H3          0.4320   -4.9580    4.9090 ha        1 PT6      0.132000
     32 HN1        -0.2840   -3.6370    6.7560 hn        1 PT6      0.390300
     33 HN2        -0.5030   -1.9900    6.7130 hn        1 PT6      0.390300
     34 HC1         0.1540   -0.0450    5.6320 hc        1 PT6      0.044700
     35 HC2        -1.5350   -0.5400    5.1810 hc        1 PT6      0.044700
     36 HC3        -0.5690    0.4760    4.0600 hc        1 PT6      0.044700
     37 H9          4.5210   -0.8730   -0.2480 ha        1 PT6      0.165000
     38 H111        2.2730   -0.8080   -4.1020 h1        1 PT6      0.052700
     39 H112        2.6540    0.9710   -3.8590 h1        1 PT6      0.052700
     40 H121        5.0560    0.5170   -4.5640 hc        1 PT6      0.066700
     41 H122        4.6310   -1.2120   -4.8750 hc        1 PT6      0.066700
     42 H14         3.3040    2.3390   -5.9970 ha        1 PT6      0.154000
     43 H16         2.9420   -0.0030   -9.6460 h4        1 PT6      0.172000
     44 H15         2.6380    2.3740   -8.5360 ha        1 PT6      0.154000
@<TRIPOS>BOND
     1    1    2 2   
     2    2    3 1   
     3    2   13 1   
     4    3    4 1   
     5    3   16 1   
     6    4    5 1   
     7    4   26 1   
     8    4   27 1   
     9    5    6 ar  
    10    5   11 ar  
    11    6    7 ar  
    12    6   29 1   
    13    7    8 ar  
    14    7   30 1   
    15    8    9 ar  
    16    8   31 1   
    17    9   10 1   
    18    9   11 ar  
    19   10   32 1   
    20   10   33 1   
    21   11   12 1   
    22   12   34 1   
    23   12   35 1   
    24   12   36 1   
    25   13   14 2   
    26   13   25 1   
    27   14   15 1   
    28   14   17 1   
    29   15   16 2   
    30   15   37 1   
    31   16   28 1   
    32   17   18 1   
    33   18   19 1   
    34   18   38 1   
    35   18   39 1   
    36   19   20 1   
    37   19   40 1   
    38   19   41 1   
    39   20   21 1   
    40   20   24 2   
    41   21   22 1   
    42   22   23 2   
    43   22   43 1   
    44   23   24 1   
    45   23   44 1   
    46   24   42 1   
@<TRIPOS>SUBSTRUCTURE
     1 PT6         1 TEMP              0 ****  ****    0 ROOT
