@<TRIPOS>MOLECULE
PT6
   45    47     1     0     0
SMALL
bcc


@<TRIPOS>ATOM
      1 O1          0.2340    0.0890    0.6360 o         1 PT6     -0.680500
      2 C18         1.4330   -0.0840    0.3270 c         1 PT6      0.719700
      3 N1          2.3790   -0.2780    1.3730 n         1 PT6     -0.367000
      4 C7          1.9460   -0.2180    2.7510 c3        1 PT6      0.128300
      5 C6          1.3590   -1.5120    3.2660 ca        1 PT6     -0.084300
      6 C5          2.2020   -2.6200    3.3710 ca        1 PT6     -0.059000
      7 C4          1.7250   -3.8480    3.8310 ca        1 PT6     -0.108000
      8 C3          0.3880   -3.9830    4.1820 ca        1 PT6     -0.098000
      9 C2         -0.4640   -2.8680    4.0760 ca        1 PT6     -0.089400
     10 N          -1.8760   -3.0430    4.4240 n4        1 PT6     -0.698000
     11 C1          0.0020   -1.6110    3.6310 ca        1 PT6      0.008700
     12 C          -0.8840   -0.4270    3.5360 c3        1 PT6     -0.107800
     13 C17         1.9320   -0.1050   -1.0370 cc        1 PT6     -0.361200
     14 C10         3.2610   -0.3100   -1.2930 cd        1 PT6      0.230100
     15 C9          4.1890   -0.5100   -0.2060 cd        1 PT6     -0.221000
     16 C8          3.7150   -0.4830    1.0740 cc        1 PT6      0.006600
     17 O           3.8410   -0.3520   -2.5280 os        1 PT6     -0.313900
     18 C11         2.9640   -0.1170   -3.6480 c3        1 PT6      0.128400
     19 C12         3.8610   -0.1740   -4.8790 c3        1 PT6     -0.004100
     20 C13         3.0890    0.1270   -6.0940 cc        1 PT6     -0.138400
     21 S           2.8390   -0.9940   -7.3210 ss        1 PT6      0.032200
     22 C16         1.9700    0.0660   -8.2700 cc        1 PT6     -0.161100
     23 C15         1.8510    1.3040   -7.6760 cd        1 PT6     -0.153000
     24 C14         2.5050    1.3410   -6.4060 cd        1 PT6     -0.149000
     25 H17         1.1770    0.0600   -1.8170 ha        1 PT6      0.178000
     26 H71C        2.8270    0.0460    3.4080 h1        1 PT6      0.085200
     27 H72C        1.1910    0.6180    2.8320 h1        1 PT6      0.085200
     28 H8          4.3950   -0.6160    1.9370 h4        1 PT6      0.155000
     29 H5          3.2630   -2.5240    3.0780 ha        1 PT6      0.164000
     30 H4          2.4040   -4.7130    3.9110 ha        1 PT6      0.173000
     31 H3          0.0180   -4.9600    4.5340 ha        1 PT6      0.154000
     32 HN1        -2.1220   -2.4110    5.1940 hn        1 PT6      0.462800
     33 HN2        -2.4570   -2.8170    3.6060 hn        1 PT6      0.462800
     34 HC1        -1.9460   -0.6190    3.8160 hc        1 PT6      0.080700
     35 HC2        -0.8790   -0.0350    2.4780 hc        1 PT6      0.080700
     36 HC3        -0.5050    0.3880    4.2070 hc        1 PT6      0.080700
     37 H9          5.2530   -0.6680   -0.4280 ha        1 PT6      0.179000
     38 H111        2.1790   -0.9160   -3.6720 h1        1 PT6      0.055200
     39 H112        2.4860    0.8910   -3.5410 h1        1 PT6      0.055200
     40 H121        4.6950    0.5710   -4.7580 hc        1 PT6      0.069700
     41 H122        4.3320   -1.1910   -4.9450 hc        1 PT6      0.069700
     42 H14         2.5380    2.2320   -5.7760 ha        1 PT6      0.153000
     43 H16         1.5610   -0.2110   -9.2410 h4        1 PT6      0.177000
     44 H15         1.3300    2.1620   -8.1050 ha        1 PT6      0.159000
     45 HN3        -2.0520   -4.0120    4.7090 hn        1 PT6      0.462800
@<TRIPOS>BOND
     1    1    2 2   
     2    2    3 1   
     3    2   13 1   
     4    3    4 1   
     5    3   16 1   
     6    4    5 1   
     7    4   26 1   
     8    4   27 1   
     9    5    6 ar  
    10    5   11 ar  
    11    6    7 ar  
    12    6   29 1   
    13    7    8 ar  
    14    7   30 1   
    15    8    9 ar  
    16    8   31 1   
    17    9   10 1   
    18    9   11 ar  
    19   10   32 1   
    20   10   33 1   
    21   10   45 1   
    22   11   12 1   
    23   12   34 1   
    24   12   35 1   
    25   12   36 1   
    26   13   14 2   
    27   13   25 1   
    28   14   15 1   
    29   14   17 1   
    30   15   16 2   
    31   15   37 1   
    32   16   28 1   
    33   17   18 1   
    34   18   19 1   
    35   18   38 1   
    36   18   39 1   
    37   19   20 1   
    38   19   40 1   
    39   19   41 1   
    40   20   21 1   
    41   20   24 2   
    42   21   22 1   
    43   22   23 2   
    44   22   43 1   
    45   23   24 1   
    46   23   44 1   
    47   24   42 1   
@<TRIPOS>SUBSTRUCTURE
     1 PT6         1 TEMP              0 ****  ****    0 ROOT
