@<TRIPOS>MOLECULE
PTA
   28    27     1     0     0
SMALL
bcc


@<TRIPOS>ATOM
      1 N           1.0570    1.8070   -1.2010 n3        1 PTA     -0.875800
      2 CA          0.8260    0.5690   -0.4930 c3        1 PTA     -0.141700
      3 CB          1.9070    0.1130    0.4750 c3        1 PTA     -0.108400
      4 CG          3.2940   -0.0210   -0.1280 c3        1 PTA     -0.057700
      5 CD1         4.2830   -0.4220    0.9490 c3        1 PTA     -0.089600
      6 CD2         3.3150   -1.0250   -1.2610 c3        1 PTA     -0.089600
      7 P          -0.5890    0.7430    0.4100 p5        1 PTA      1.533100
      8 O1P        -0.6000    1.9830    1.1940 o         1 PTA     -0.895300
      9 O2P        -0.5940   -0.5060    1.4370 oh        1 PTA     -0.816400
     10 CM         -1.8330    0.4490   -0.5990 c3        1 PTA     -0.609600
     11 C          -1.9840   -1.0200   -1.0890 c         1 PTA      0.921600
     12 O          -2.6170   -1.8360   -0.3540 o         1 PTA     -0.823800
     13 OXT        -1.4940   -1.3310   -2.2080 o         1 PTA     -0.823800
     14 H           1.1850    2.5450   -0.5300 hn        1 PTA      0.344300
     15 H2          1.8760    1.7440   -1.7740 hn        1 PTA      0.344300
     16 HA          0.6880   -0.2350   -1.2810 h1        1 PTA      0.133700
     17 HB2         1.9400    0.8420    1.3300 hc        1 PTA      0.063700
     18 HB3         1.5850   -0.8780    0.8960 hc        1 PTA      0.063700
     19 HG          3.6140    0.9810   -0.5350 hc        1 PTA      0.030700
     20 HD11        4.0120   -1.4180    1.3750 hc        1 PTA      0.031200
     21 HD12        5.3140   -0.4870    0.5250 hc        1 PTA      0.031200
     22 HD13        4.2840    0.3280    1.7760 hc        1 PTA      0.031200
     23 HD21        2.6790   -0.6710   -2.1080 hc        1 PTA      0.031200
     24 HD22        4.3580   -1.1670   -1.6340 hc        1 PTA      0.031200
     25 HD23        2.9220   -2.0120   -0.9160 hc        1 PTA      0.031200
     26 HOP2       -1.2130   -1.2150    1.2460 ho        1 PTA      0.490000
     27 HM1        -2.8160    0.7020   -0.1280 hc        1 PTA      0.109200
     28 HM2        -1.7710    1.0600   -1.5350 hc        1 PTA      0.109200
@<TRIPOS>BOND
     1    1    2 1   
     2    1   14 1   
     3    1   15 1   
     4    2    3 1   
     5    2    7 1   
     6    2   16 1   
     7    3    4 1   
     8    3   17 1   
     9    3   18 1   
    10    4    5 1   
    11    4    6 1   
    12    4   19 1   
    13    5   20 1   
    14    5   21 1   
    15    5   22 1   
    16    6   23 1   
    17    6   24 1   
    18    6   25 1   
    19    7    8 2   
    20    7    9 1   
    21    7   10 1   
    22    9   26 1   
    23   10   11 1   
    24   10   27 1   
    25   10   28 1   
    26   11   12 1   
    27   11   13 1   
@<TRIPOS>SUBSTRUCTURE
     1 PTA         1 TEMP              0 ****  ****    0 ROOT
