@<TRIPOS>MOLECULE
PTB
   33    34     1     0     0
SMALL
bcc


@<TRIPOS>ATOM
      1 N           1.1970    0.2620   -0.3110 n7        1 PTB     -0.808200
      2 CA          2.2470    0.2810    0.7100 c3        1 PTB      0.090500
      3 C           3.2340   -0.8550    0.4680 c         1 PTB      0.526600
      4 O           3.5150   -1.7260    1.2870 o         1 PTB     -0.488100
      5 CB          1.5910    0.1900    2.1050 c3        1 PTB     -0.092400
      6 CG          0.0880    0.2630    1.8690 c3        1 PTB     -0.097400
      7 CD         -0.1040    0.2160    0.3450 c3        1 PTB      0.155800
      8 C2          3.8830   -0.8010   -0.8570 cc        1 PTB      0.375900
      9 N3          3.9530    0.1690   -1.7930 nd        1 PTB     -0.315000
     10 N4          4.6470   -0.2750   -2.8240 nd        1 PTB     -0.359000
     11 C5          5.0390   -1.5460   -2.5820 cc        1 PTB      0.482700
     12 O1          4.5730   -1.9330   -1.3180 os        1 PTB     -0.354800
     13 C6          5.8270   -2.5420   -3.3700 c3        1 PTB     -0.068300
     14 C7          7.0650   -2.9320   -2.5700 c3        1 PTB     -0.092767
     15 C8          6.2420   -1.9350   -4.7020 c3        1 PTB     -0.092767
     16 C9          4.9580   -3.7730   -3.6100 c3        1 PTB     -0.092767
     17 HN          1.2820    1.0490   -0.9240 hn        1 PTB      0.379800
     18 HA          2.8620    1.2300    0.6490 h1        1 PTB      0.069700
     19 HB1         1.9430    1.0340    2.7460 hc        1 PTB      0.065700
     20 HB2         1.8710   -0.7670    2.6120 hc        1 PTB      0.065700
     21 HG1        -0.4380   -0.5930    2.3570 hc        1 PTB      0.051700
     22 HG2        -0.3370    1.2080    2.2890 hc        1 PTB      0.051700
     23 HD1        -0.5920   -0.7530    0.0460 h1        1 PTB      0.047700
     24 HD2        -0.7690    1.0540    0.0040 h1        1 PTB      0.047700
     25 H71         7.7190   -2.0430   -2.4060 hc        1 PTB      0.050033
     26 H72         7.6430   -3.7040   -3.1320 hc        1 PTB      0.050033
     27 H73         6.7680   -3.3510   -1.5780 hc        1 PTB      0.050033
     28 H81         5.3440   -1.6420   -5.2970 hc        1 PTB      0.050033
     29 H82         6.8300   -2.6860   -5.2830 hc        1 PTB      0.050033
     30 H83         6.8750   -1.0300   -4.5410 hc        1 PTB      0.050033
     31 H91         4.6270   -4.2080   -2.6370 hc        1 PTB      0.050033
     32 H92         5.5460   -4.5400   -4.1690 hc        1 PTB      0.050033
     33 H93         4.0570   -3.5020   -4.2110 hc        1 PTB      0.050033
@<TRIPOS>BOND
     1    1    2 1   
     2    1    7 1   
     3    1   17 1   
     4    2    3 1   
     5    2    5 1   
     6    2   18 1   
     7    3    4 2   
     8    3    8 1   
     9    5    6 1   
    10    5   19 1   
    11    5   20 1   
    12    6    7 1   
    13    6   21 1   
    14    6   22 1   
    15    7   23 1   
    16    7   24 1   
    17    8    9 2   
    18    8   12 1   
    19    9   10 1   
    20   10   11 2   
    21   11   12 1   
    22   11   13 1   
    23   13   14 1   
    24   13   15 1   
    25   13   16 1   
    26   14   25 1   
    27   14   26 1   
    28   14   27 1   
    29   15   28 1   
    30   15   29 1   
    31   15   30 1   
    32   16   31 1   
    33   16   32 1   
    34   16   33 1   
@<TRIPOS>SUBSTRUCTURE
     1 PTB         1 TEMP              0 ****  ****    0 ROOT
