@<TRIPOS>MOLECULE
PTB
   33    34     1     0     0
SMALL
bcc


@<TRIPOS>ATOM
      1 N           1.1620    0.2250   -0.3670 n3        1 PTB     -0.808200
      2 CA          2.2140    0.3190    0.6490 c3        1 PTB      0.090500
      3 C           3.2330   -0.7970    0.4510 c         1 PTB      0.526600
      4 O           3.5420   -1.6240    1.3050 o         1 PTB     -0.488100
      5 CB          1.5640    0.2680    2.0490 c3        1 PTB     -0.092400
      6 CG          0.0590    0.2870    1.8160 c3        1 PTB     -0.097400
      7 CD         -0.1350    0.1690    0.2960 c3        1 PTB      0.155800
      8 C2          3.8770   -0.7810   -0.8780 cc        1 PTB      0.375900
      9 N3          3.9160    0.1500   -1.8540 nd        1 PTB     -0.315000
     10 N4          4.6200   -0.3170   -2.8680 nd        1 PTB     -0.359000
     11 C5          5.0490   -1.5650   -2.5740 cc        1 PTB      0.482700
     12 O1          4.5980   -1.9110   -1.2930 os        1 PTB     -0.354800
     13 C6          5.8630   -2.5710   -3.3220 c3        1 PTB     -0.068300
     14 C7          7.1130   -2.8930   -2.5100 c3        1 PTB     -0.092767
     15 C8          6.2590   -2.0070   -4.6800 c3        1 PTB     -0.092767
     16 C9          5.0290   -3.8330   -3.5100 c3        1 PTB     -0.092767
     17 HN          1.2230    0.9880   -1.0130 hn        1 PTB      0.379800
     18 HA          2.8000    1.2820    0.5450 h1        1 PTB      0.069700
     19 HB1         1.8930    1.1490    2.6520 hc        1 PTB      0.065700
     20 HB2         1.8740   -0.6580    2.5950 hc        1 PTB      0.065700
     21 HG1        -0.3920    1.2360    2.1960 hc        1 PTB      0.051700
     22 HG2        -0.4400   -0.5620    2.3420 hc        1 PTB      0.051700
     23 HD1        -0.8260    0.9720   -0.0780 h1        1 PTB      0.047700
     24 HD2        -0.5950   -0.8250    0.0400 h1        1 PTB      0.047700
     25 H71         7.7110   -3.6710   -3.0410 hc        1 PTB      0.050033
     26 H72         6.8290   -3.2780   -1.5020 hc        1 PTB      0.050033
     27 H73         7.7420   -1.9800   -2.3850 hc        1 PTB      0.050033
     28 H81         6.8670   -1.0790   -4.5570 hc        1 PTB      0.050033
     29 H82         6.8670   -2.7650   -5.2310 hc        1 PTB      0.050033
     30 H83         5.3530   -1.7640   -5.2840 hc        1 PTB      0.050033
     31 H91         4.7110   -4.2370   -2.5180 hc        1 PTB      0.050033
     32 H92         4.1190   -3.6130   -4.1180 hc        1 PTB      0.050033
     33 H93         5.6360   -4.6060   -4.0380 hc        1 PTB      0.050033
@<TRIPOS>BOND
     1    1    2 1   
     2    1    7 1   
     3    1   17 1   
     4    2    3 1   
     5    2    5 1   
     6    2   18 1   
     7    3    4 2   
     8    3    8 1   
     9    5    6 1   
    10    5   19 1   
    11    5   20 1   
    12    6    7 1   
    13    6   21 1   
    14    6   22 1   
    15    7   23 1   
    16    7   24 1   
    17    8    9 2   
    18    8   12 1   
    19    9   10 1   
    20   10   11 2   
    21   11   12 1   
    22   11   13 1   
    23   13   14 1   
    24   13   15 1   
    25   13   16 1   
    26   14   25 1   
    27   14   26 1   
    28   14   27 1   
    29   15   28 1   
    30   15   29 1   
    31   15   30 1   
    32   16   31 1   
    33   16   32 1   
    34   16   33 1   
@<TRIPOS>SUBSTRUCTURE
     1 PTB         1 TEMP              0 ****  ****    0 ROOT
