@<TRIPOS>MOLECULE
PTB
   33    34     1     0     0
SMALL
bcc


@<TRIPOS>ATOM
      1 N           0.0250   -0.8330   -2.6560 n3        1 PTB     -0.808200
      2 CA          1.0200    0.2250   -2.4670 c3        1 PTB      0.090500
      3 C           0.7200    1.0040   -1.1920 c         1 PTB      0.526600
      4 O           0.5400    2.2180   -1.1380 o         1 PTB     -0.488100
      5 CB          1.0270    1.1360   -3.7140 c3        1 PTB     -0.092400
      6 CG          0.0880    0.4820   -4.7180 c3        1 PTB     -0.097400
      7 CD         -0.5760   -0.6880   -3.9760 c3        1 PTB      0.155800
      8 C2          0.7060    0.1650    0.0240 cc        1 PTB      0.375900
      9 N3          1.1310   -1.0930    0.2610 nd        1 PTB     -0.315000
     10 N4          0.8850   -1.4030    1.5200 nd        1 PTB     -0.359000
     11 C5          0.2890   -0.3510    2.1270 cc        1 PTB      0.482700
     12 O1          0.1540    0.6920    1.2020 os        1 PTB     -0.354800
     13 C6         -0.2170   -0.1220    3.5150 c3        1 PTB     -0.068300
     14 C7          0.5210    1.0690    4.1160 c3        1 PTB     -0.092767
     15 C8          0.0270   -1.3620    4.3640 c3        1 PTB     -0.092767
     16 C9         -1.7110    0.1740    3.4490 c3        1 PTB     -0.092767
     17 HN          0.4370   -1.7360   -2.5260 hn        1 PTB      0.379800
     18 HA          2.0560   -0.2080   -2.3160 h1        1 PTB      0.069700
     19 HB1         0.6790    2.1670   -3.4520 hc        1 PTB      0.065700
     20 HB2         2.0650    1.2160   -4.1190 hc        1 PTB      0.065700
     21 HG1        -0.6820    1.2050   -5.0790 hc        1 PTB      0.051700
     22 HG2         0.6520    0.1110   -5.6100 hc        1 PTB      0.051700
     23 HD1        -1.6710   -0.4770   -3.8210 h1        1 PTB      0.047700
     24 HD2        -0.4920   -1.6350   -4.5750 h1        1 PTB      0.047700
     25 H71         0.1260    1.2740    5.1390 hc        1 PTB      0.050033
     26 H72         1.6140    0.8550    4.1890 hc        1 PTB      0.050033
     27 H73         0.3710    1.9760    3.4810 hc        1 PTB      0.050033
     28 H81         1.1170   -1.5940    4.4180 hc        1 PTB      0.050033
     29 H82        -0.3540   -1.1810    5.3990 hc        1 PTB      0.050033
     30 H83        -0.5050   -2.2440    3.9340 hc        1 PTB      0.050033
     31 H91        -1.8990    1.0670    2.8050 hc        1 PTB      0.050033
     32 H92        -2.2630   -0.6990    3.0270 hc        1 PTB      0.050033
     33 H93        -2.0960    0.3810    4.4760 hc        1 PTB      0.050033
@<TRIPOS>BOND
     1    1    2 1   
     2    1    7 1   
     3    1   17 1   
     4    2    3 1   
     5    2    5 1   
     6    2   18 1   
     7    3    4 2   
     8    3    8 1   
     9    5    6 1   
    10    5   19 1   
    11    5   20 1   
    12    6    7 1   
    13    6   21 1   
    14    6   22 1   
    15    7   23 1   
    16    7   24 1   
    17    8    9 2   
    18    8   12 1   
    19    9   10 1   
    20   10   11 2   
    21   11   12 1   
    22   11   13 1   
    23   13   14 1   
    24   13   15 1   
    25   13   16 1   
    26   14   25 1   
    27   14   26 1   
    28   14   27 1   
    29   15   28 1   
    30   15   29 1   
    31   15   30 1   
    32   16   31 1   
    33   16   32 1   
    34   16   33 1   
@<TRIPOS>SUBSTRUCTURE
     1 PTB         1 TEMP              0 ****  ****    0 ROOT
