@<TRIPOS>MOLECULE
PTC
   33    33     1     0     0
SMALL
bcc


@<TRIPOS>ATOM
      1 C1         -0.5930   -1.6700   -0.3050 c2        1 PTC      0.348000
      2 O1         -1.0250   -2.8490   -0.3860 o         1 PTC     -0.426000
      3 N1          0.2370   -1.3920    0.7620 n         1 PTC     -0.355000
      4 C2          1.0870   -0.2550    0.9210 c3        1 PTC     -0.105000
      5 CA         -1.0060    0.8270   -1.1700 cx        1 PTC     -0.248000
      6 C          -2.1760    1.6740   -1.4810 c2        1 PTC      0.336000
      7 O          -1.9330    2.9090   -2.0260 oh        1 PTC     -0.315000
      8 CB         -0.2790    0.1100   -2.2920 cx        1 PTC      0.036000
      9 CG          1.1740    0.1590   -2.3520 ca        1 PTC     -0.354000
     10 CD1         1.9430   -0.9660   -2.6950 ca        1 PTC     -0.051000
     11 CD2         1.8510    1.3820   -2.1300 ca        1 PTC     -0.051000
     12 CE1         3.3120   -0.9030   -2.7780 ca        1 PTC     -0.314500
     13 CE2         3.2120    1.4790   -2.2040 ca        1 PTC     -0.314500
     14 CZ          4.0300    0.3250   -2.5220 ca        1 PTC      0.312000
     15 OH          5.2940    0.3890   -2.5690 o         1 PTC     -0.510000
     16 C7         -1.1050   -0.6680   -1.2840 cx        1 PTC     -0.165000
     17 P           7.1640    1.7470   -2.2070 p3        1 PTC      2.482000
     18 O1P         6.3530    2.9510   -1.9140 o         1 PTC     -1.167667
     19 O2P         7.7380    0.9810   -1.0790 o         1 PTC     -1.167667
     20 O3P         7.7800    1.6070   -3.5460 o         1 PTC     -1.167667
     21 OXT        -3.3760    1.4540   -1.3020 o         1 PTC     -0.343000
     22 HN         -0.9830    3.0020   -2.2000 ho        1 PTC      0.242000
     23 H21         0.5280    0.5620    1.4530 h1        1 PTC      0.093667
     24 H22         1.9740   -0.5370    1.5490 h1        1 PTC      0.093667
     25 H23         1.4710    0.1320   -0.0660 h1        1 PTC      0.093667
     26 HA         -0.3930    1.2780   -0.3610 hc        1 PTC      0.162000
     27 HB         -0.7550    0.1630   -3.2990 hc        1 PTC      0.095000
     28 HD1         1.4250   -1.9180   -2.8930 ha        1 PTC      0.070500
     29 HD2         1.2480    2.2740   -1.8870 ha        1 PTC      0.070500
     30 HE1         3.9040   -1.7880   -3.0400 ha        1 PTC      0.138000
     31 HE2         3.7450    2.4260   -2.0270 ha        1 PTC      0.138000
     32 H7         -2.0820   -1.0510   -1.6700 hc        1 PTC      0.138000
     33 H12         0.5150   -2.2020    1.2740 hn        1 PTC      0.209000
@<TRIPOS>BOND
     1    1    2 1   
     2    1    3 1   
     3    1   16 1   
     4    3    4 1   
     5    3   33 1   
     6    4   23 1   
     7    4   24 1   
     8    4   25 1   
     9    5    6 1   
    10    5    8 1   
    11    5   16 1   
    12    5   26 1   
    13    6    7 1   
    14    6   21 1   
    15    7   22 1   
    16    8    9 1   
    17    8   16 1   
    18    8   27 1   
    19    9   10 1   
    20    9   11 1   
    21   10   12 1   
    22   10   28 1   
    23   11   13 1   
    24   11   29 1   
    25   12   14 1   
    26   12   30 1   
    27   13   14 1   
    28   13   31 1   
    29   14   15 1   
    30   16   32 1   
    31   17   18 1   
    32   17   19 1   
    33   17   20 1   
@<TRIPOS>SUBSTRUCTURE
     1 PTC         1 TEMP              0 ****  ****    0 ROOT
