@<TRIPOS>MOLECULE
PTC
   32    32     1     0     0
SMALL
bcc


@<TRIPOS>ATOM
      1 C1          3.2470    1.8010   -0.7600 c2        1 PTC      0.344000
      2 O1          3.8220    2.7390   -1.3710 o         1 PTC     -0.464000
      3 N1          2.4160    2.0830    0.3140 n         1 PTC     -0.362000
      4 C2          1.9490    3.4090    0.5600 c3        1 PTC     -0.074000
      5 CA          3.6550   -0.7120   -0.0950 cx        1 PTC     -0.175000
      6 C           4.7900   -1.7050   -0.2870 c2        1 PTC      0.349000
      7 O           5.1190   -2.0720   -1.4550 o         1 PTC     -0.601500
      8 CB          2.4560   -0.7280   -1.0040 cx        1 PTC     -0.031000
      9 CG          1.0830   -0.4970   -0.5420 ca        1 PTC     -0.276000
     10 CD1         0.1020   -0.0390   -1.4440 ca        1 PTC     -0.062500
     11 CD2         0.6690   -0.7810    0.7710 ca        1 PTC     -0.062500
     12 CE1        -1.2050    0.1580   -1.0660 ca        1 PTC     -0.330000
     13 CE2        -0.6340   -0.5950    1.1790 ca        1 PTC     -0.330000
     14 CZ         -1.6480   -0.1080    0.2800 ca        1 PTC      0.315000
     15 OH         -2.8540    0.0710    0.6580 o         1 PTC     -0.585000
     16 C7          3.4940    0.3810   -1.1280 cx        1 PTC     -0.225000
     17 P          -5.0350    0.6170    0.6110 p3        1 PTC      2.518000
     18 O1P        -5.5810   -0.6720    1.1000 o         1 PTC     -1.182000
     19 O2P        -4.9790    1.7510    1.5650 o         1 PTC     -1.182000
     20 O3P        -5.1740    0.9270   -0.8310 o         1 PTC     -1.182000
     21 OXT         5.3910   -2.1250    0.7490 o         1 PTC     -0.601500
     22 HN          1.8040    1.3450    0.6110 hn        1 PTC      0.256000
     23 H21         0.9730    3.6150    0.0400 h1        1 PTC      0.062333
     24 H22         1.7900    3.5390    1.6650 h1        1 PTC      0.062333
     25 H23         2.7070    4.1570    0.2070 h1        1 PTC      0.062333
     26 HA          3.5040   -0.4590    0.9720 hc        1 PTC      0.110000
     27 HB          2.4980   -1.4680   -1.8370 hc        1 PTC      0.113000
     28 HD1         0.4050    0.1690   -2.4830 ha        1 PTC      0.084500
     29 HD2         1.4140   -1.1690    1.4840 ha        1 PTC      0.084500
     30 HE1        -1.9570    0.5200   -1.7790 ha        1 PTC      0.112500
     31 HE2        -0.9370   -0.8230    2.2080 ha        1 PTC      0.112500
     32 H7          4.1760    0.3230   -2.0050 hc        1 PTC      0.140000
@<TRIPOS>BOND
     1    1    2 1   
     2    1    3 1   
     3    1   16 1   
     4    3    4 1   
     5    3   22 1   
     6    4   23 1   
     7    4   24 1   
     8    4   25 1   
     9    5    6 1   
    10    5    8 1   
    11    5   16 1   
    12    5   26 1   
    13    6    7 1   
    14    6   21 1   
    15    8    9 1   
    16    8   16 1   
    17    8   27 1   
    18    9   10 1   
    19    9   11 1   
    20   10   12 1   
    21   10   28 1   
    22   11   13 1   
    23   11   29 1   
    24   12   14 1   
    25   12   30 1   
    26   13   14 1   
    27   13   31 1   
    28   14   15 1   
    29   16   32 1   
    30   17   18 1   
    31   17   19 1   
    32   17   20 1   
@<TRIPOS>SUBSTRUCTURE
     1 PTC         1 TEMP              0 ****  ****    0 ROOT
