@<TRIPOS>MOLECULE
PTC
   33    33     1     0     0
SMALL
bcc


@<TRIPOS>ATOM
      1 C1         -0.0240   -0.9880   -0.5050 c2        1 PTC      0.329000
      2 O1         -0.4200   -1.7880   -1.3870 o         1 PTC     -0.426000
      3 N1         -0.9100   -0.3570    0.3420 n         1 PTC     -0.354000
      4 C2         -2.2800   -0.7640    0.4080 c3        1 PTC     -0.079000
      5 CA          1.8950    0.7710   -0.2830 cx        1 PTC     -0.243000
      6 C           3.0460    1.2600   -1.0670 c2        1 PTC      0.338000
      7 O           3.6620    2.4090   -0.6380 oh        1 PTC     -0.316000
      8 CB          2.1270   -0.1940    0.8630 cx        1 PTC      0.030000
      9 CG          1.4740    0.0140    2.1460 ca        1 PTC     -0.362000
     10 CD1         1.3290   -1.0600    3.0460 ca        1 PTC     -0.052000
     11 CD2         1.0360    1.2910    2.5690 ca        1 PTC     -0.052000
     12 CE1         0.7440   -0.8980    4.2760 ca        1 PTC     -0.314000
     13 CE2         0.4530    1.4880    3.7890 ca        1 PTC     -0.314000
     14 CZ          0.2610    0.3920    4.7180 ca        1 PTC      0.312000
     15 OH         -0.2940    0.5510    5.8450 o         1 PTC     -0.502000
     16 C7          1.4330   -0.6570   -0.4080 cx        1 PTC     -0.185000
     17 P          -1.3470    2.0850    7.2760 p3        1 PTC      2.478000
     18 O1P        -1.1370    3.2240    6.3540 o         1 PTC     -1.166333
     19 O2P        -2.6730    1.4290    7.3120 o         1 PTC     -1.166333
     20 O3P        -0.4450    1.9270    8.4380 o         1 PTC     -1.166333
     21 OXT         3.5530    0.8000   -2.0930 o         1 PTC     -0.340000
     22 HN         -0.5350    0.0700    1.1710 hn        1 PTC      0.269000
     23 H21        -2.8860    0.0850    0.8210 h1        1 PTC      0.074667
     24 H22        -2.4160   -1.6580    1.0770 h1        1 PTC      0.074667
     25 H23        -2.6510   -1.0290   -0.6170 h1        1 PTC      0.074667
     26 HA          1.1240    1.5610   -0.1520 hc        1 PTC      0.157000
     27 HB          3.1620   -0.5960    0.9670 hc        1 PTC      0.099000
     28 HD1         1.6920   -2.0540    2.7390 ha        1 PTC      0.071500
     29 HD2         1.1820    2.1500    1.8930 ha        1 PTC      0.071500
     30 HE1         0.6270   -1.7440    4.9640 ha        1 PTC      0.139000
     31 HE2         0.1090    2.4800    4.1230 ha        1 PTC      0.139000
     32 H7          2.0130   -1.3150   -1.0910 hc        1 PTC      0.141000
     33 H12         3.2790    2.6800    0.2100 ho        1 PTC      0.238000
@<TRIPOS>BOND
     1    1    2 1   
     2    1    3 1   
     3    1   16 1   
     4    3    4 1   
     5    3   22 1   
     6    4   23 1   
     7    4   24 1   
     8    4   25 1   
     9    5    6 1   
    10    5    8 1   
    11    5   16 1   
    12    5   26 1   
    13    6    7 1   
    14    6   21 1   
    15    7   33 1   
    16    8    9 1   
    17    8   16 1   
    18    8   27 1   
    19    9   10 1   
    20    9   11 1   
    21   10   12 1   
    22   10   28 1   
    23   11   13 1   
    24   11   29 1   
    25   12   14 1   
    26   12   30 1   
    27   13   14 1   
    28   13   31 1   
    29   14   15 1   
    30   16   32 1   
    31   17   18 1   
    32   17   19 1   
    33   17   20 1   
@<TRIPOS>SUBSTRUCTURE
     1 PTC         1 TEMP              0 ****  ****    0 ROOT
