@<TRIPOS>MOLECULE
PTC
   33    33     1     0     0
SMALL
bcc


@<TRIPOS>ATOM
      1 C1         -0.4300   -1.2330    0.0320 c2        1 PTC      0.345000
      2 O1         -0.8560   -2.3990    0.2440 o         1 PTC     -0.431000
      3 N1          0.4290   -0.7100    0.9740 ns        1 PTC     -0.350000
      4 C2          1.2530    0.4510    0.8400 c3        1 PTC     -0.110000
      5 CA         -0.9540    1.0000   -1.3530 cx        1 PTC     -0.232000
      6 C          -2.2080    1.6950   -1.7140 c2        1 PTC      0.330000
      7 O          -3.3750    1.3160   -1.0900 oh        1 PTC     -0.326000
      8 CB         -0.2440    0.0770   -2.3230 cx        1 PTC      0.068000
      9 CG          1.2070    0.0980   -2.4330 ca        1 PTC     -0.356000
     10 CD1         1.9410   -1.0970   -2.5430 ca        1 PTC     -0.049500
     11 CD2         1.9170    1.3210   -2.4790 ca        1 PTC     -0.049500
     12 CE1         3.3100   -1.0940   -2.6340 ca        1 PTC     -0.317500
     13 CE2         3.2810    1.3560   -2.5670 ca        1 PTC     -0.317500
     14 CZ          4.0650    0.1390   -2.6240 ca        1 PTC      0.313000
     15 OH          5.3310    0.1510   -2.6580 o         1 PTC     -0.513000
     16 C7         -0.9990   -0.4880   -1.1270 cx        1 PTC     -0.214000
     17 P           7.2850    1.3990   -2.4370 p3        1 PTC      2.483000
     18 O1P         6.5950    2.7090   -2.4440 o         1 PTC     -1.168333
     19 O2P         7.7140    0.8280   -1.1410 o         1 PTC     -1.168333
     20 O3P         7.9580    0.9380   -3.6720 o         1 PTC     -1.168333
     21 OXT        -2.3810    2.6320   -2.4950 o         1 PTC     -0.316000
     22 HN         -3.1910    0.5930   -0.4740 ho        1 PTC      0.225000
     23 H21         2.1610    0.3410    1.4920 h1        1 PTC      0.096667
     24 H22         0.6820    1.3570    1.1830 h1        1 PTC      0.096667
     25 H23         1.6050    0.6070   -0.2200 h1        1 PTC      0.096667
     26 HA         -0.3130    1.6460   -0.7160 hc        1 PTC      0.171000
     27 HB         -0.7560   -0.1060   -3.2950 hc        1 PTC      0.099000
     28 HD1         1.3940   -2.0530   -2.5430 ha        1 PTC      0.080000
     29 HD2         1.3420    2.2600   -2.4380 ha        1 PTC      0.080000
     30 HE1         3.8750   -2.0310   -2.7120 ha        1 PTC      0.135000
     31 HE2         3.8420    2.3030   -2.5930 ha        1 PTC      0.135000
     32 H7         -1.9620   -0.9890   -1.3950 hc        1 PTC      0.121000
     33 H12         0.7610   -1.3860    1.6300 hn        1 PTC      0.211000
@<TRIPOS>BOND
     1    1    2 1   
     2    1    3 1   
     3    1   16 1   
     4    3    4 1   
     5    3   33 1   
     6    4   23 1   
     7    4   24 1   
     8    4   25 1   
     9    5    6 1   
    10    5    8 1   
    11    5   16 1   
    12    5   26 1   
    13    6    7 1   
    14    6   21 1   
    15    7   22 1   
    16    8    9 1   
    17    8   16 1   
    18    8   27 1   
    19    9   10 1   
    20    9   11 1   
    21   10   12 1   
    22   10   28 1   
    23   11   13 1   
    24   11   29 1   
    25   12   14 1   
    26   12   30 1   
    27   13   14 1   
    28   13   31 1   
    29   14   15 1   
    30   16   32 1   
    31   17   18 1   
    32   17   19 1   
    33   17   20 1   
@<TRIPOS>SUBSTRUCTURE
     1 PTC         1 TEMP              0 ****  ****    0 ROOT
