@<TRIPOS>MOLECULE
PTD
   15    14     1     0     0
SMALL
bcc


@<TRIPOS>ATOM
      1 C1         -0.0000    0.0710   -0.0180 c         1 PTD      0.564900
      2 C2          1.4980    0.0530    0.0200 c3        1 PTD     -0.205400
      3 C3          2.0180   -0.0000    1.4400 c3        1 PTD     -0.071400
      4 C4          3.5290   -0.0540    1.4570 c3        1 PTD     -0.205400
      5 C5          4.0650   -0.0720    2.8560 c         1 PTD      0.564900
      6 O1         -0.6390    0.6420   -0.9020 o         1 PTD     -0.520100
      7 O5          5.1110   -0.6430    3.1630 o         1 PTD     -0.520100
      8 HC1        -0.5080   -0.4800    0.8050 h4        1 PTD     -0.003800
      9 HC21        1.8450   -0.8510   -0.5500 hc        1 PTD      0.076700
     10 HC22        1.9050    0.9550   -0.5090 hc        1 PTD      0.076700
     11 HC31        1.6640    0.9030    2.0040 hc        1 PTD      0.047700
     12 HC32        1.6030   -0.9040    1.9620 hc        1 PTD      0.047700
     13 HC41        3.9520    0.8500    0.9390 hc        1 PTD      0.076700
     14 HC42        3.8920   -0.9560    0.8960 hc        1 PTD      0.076700
     15 HC5         3.4590    0.4790    3.6090 h4        1 PTD     -0.003800
@<TRIPOS>BOND
     1    1    2 1   
     2    1    6 2   
     3    1    8 1   
     4    2    3 1   
     5    2    9 1   
     6    2   10 1   
     7    3    4 1   
     8    3   11 1   
     9    3   12 1   
    10    4    5 1   
    11    4   13 1   
    12    4   14 1   
    13    5    7 2   
    14    5   15 1   
@<TRIPOS>SUBSTRUCTURE
     1 PTD         1 TEMP              0 ****  ****    0 ROOT
