@<TRIPOS>MOLECULE
PTD
   15    14     1     0     0
SMALL
bcc


@<TRIPOS>ATOM
      1 C1         -0.2560   -0.3620   -2.4630 c         1 PTD      0.564900
      2 C2          0.5780   -0.1630   -1.2350 c3        1 PTD     -0.205400
      3 C3         -0.2800   -0.0000    0.0000 c3        1 PTD     -0.071400
      4 C4          0.5800    0.1640    1.2340 c3        1 PTD     -0.205400
      5 C5         -0.2520    0.3620    2.4640 c         1 PTD      0.564900
      6 O1          0.0960    0.0210   -3.5790 o         1 PTD     -0.520100
      7 O5          0.1020   -0.0210    3.5790 o         1 PTD     -0.520100
      8 HC1        -1.2210   -0.8960   -2.3080 h4        1 PTD     -0.003800
      9 HC21        1.2460   -1.0610   -1.1230 hc        1 PTD      0.076700
     10 HC22        1.2450    0.7310   -1.3650 hc        1 PTD      0.076700
     11 HC31       -0.9460    0.8950   -0.1200 hc        1 PTD      0.047700
     12 HC32       -0.9440   -0.8970    0.1220 hc        1 PTD      0.047700
     13 HC41        1.2480   -0.7290    1.3630 hc        1 PTD      0.076700
     14 HC42        1.2460    1.0630    1.1210 hc        1 PTD      0.076700
     15 HC5        -1.2180    0.8940    2.3100 h4        1 PTD     -0.003800
@<TRIPOS>BOND
     1    1    2 1   
     2    1    6 2   
     3    1    8 1   
     4    2    3 1   
     5    2    9 1   
     6    2   10 1   
     7    3    4 1   
     8    3   11 1   
     9    3   12 1   
    10    4    5 1   
    11    4   13 1   
    12    4   14 1   
    13    5    7 2   
    14    5   15 1   
@<TRIPOS>SUBSTRUCTURE
     1 PTD         1 TEMP              0 ****  ****    0 ROOT
