@<TRIPOS>MOLECULE
PTD
   15    14     1     0     0
SMALL
bcc


@<TRIPOS>ATOM
      1 C1          0.0060    0.1140   -0.0260 c         1 PTD      0.564900
      2 C2          1.5030    0.0850    0.0190 c3        1 PTD     -0.205400
      3 C3          2.0160   -0.0060    1.4390 c3        1 PTD     -0.071400
      4 C4          3.5270   -0.0710    1.4610 c3        1 PTD     -0.205400
      5 C5          4.0570   -0.1250    2.8620 c         1 PTD      0.564900
      6 O1         -0.6250    0.7120   -0.8970 o         1 PTD     -0.520100
      7 O5          5.0960   -0.7120    3.1610 o         1 PTD     -0.520100
      8 HC1        -0.5100   -0.4560    0.7800 h4        1 PTD     -0.003800
      9 HC21        1.8470   -0.8080   -0.5720 hc        1 PTD      0.076700
     10 HC22        1.9190    0.9970   -0.4870 hc        1 PTD      0.076700
     11 HC31        1.6660    0.8860    2.0230 hc        1 PTD      0.047700
     12 HC32        1.5930   -0.9180    1.9370 hc        1 PTD      0.047700
     13 HC41        3.9580    0.8420    0.9660 hc        1 PTD      0.076700
     14 HC42        3.8860   -0.9620    0.8810 hc        1 PTD      0.076700
     15 HC5         3.4520    0.4150    3.6250 h4        1 PTD     -0.003800
@<TRIPOS>BOND
     1    1    2 1   
     2    1    6 2   
     3    1    8 1   
     4    2    3 1   
     5    2    9 1   
     6    2   10 1   
     7    3    4 1   
     8    3   11 1   
     9    3   12 1   
    10    4    5 1   
    11    4   13 1   
    12    4   14 1   
    13    5    7 2   
    14    5   15 1   
@<TRIPOS>SUBSTRUCTURE
     1 PTD         1 TEMP              0 ****  ****    0 ROOT
