@<TRIPOS>MOLECULE
PTF
   19    19     1     0     0
SMALL
bcc


@<TRIPOS>ATOM
      1 C1         -0.0010   -0.1570    3.6470 c3        1 PTF     -0.048000
      2 S2          0.0000    0.5480    2.0440 ss        1 PTF     -0.282200
      3 C3         -0.0010   -0.8980    1.0120 c3        1 PTF      0.036000
      4 C4         -0.0010   -0.4560   -0.3990 ca        1 PTF     -0.075300
      5 C5         -1.2100   -0.2490   -1.0760 ca        1 PTF     -0.112000
      6 C6         -1.2070    0.1560   -2.4090 ca        1 PTF     -0.131000
      7 C7          0.0010    0.3580   -3.0780 ca        1 PTF     -0.124000
      8 C8          1.2070    0.1530   -2.4090 ca        1 PTF     -0.131000
      9 C9          1.2090   -0.2530   -1.0760 ca        1 PTF     -0.112000
     10 H11         0.0000    0.6970    4.3630 h1        1 PTF      0.062033
     11 H12        -0.9050   -0.7800    3.8280 h1        1 PTF      0.062033
     12 H13         0.9010   -0.7820    3.8280 h1        1 PTF      0.062033
     13 H31         0.9010   -1.5210    1.2360 h1        1 PTF      0.064700
     14 H32        -0.9050   -1.5180    1.2350 h1        1 PTF      0.064700
     15 H5         -2.1640   -0.4040   -0.5500 ha        1 PTF      0.135000
     16 H6         -2.1600    0.3180   -2.9340 ha        1 PTF      0.132000
     17 H7          0.0010    0.6780   -4.1300 ha        1 PTF      0.132000
     18 H8          2.1610    0.3130   -2.9330 ha        1 PTF      0.132000
     19 H9          2.1630   -0.4090   -0.5500 ha        1 PTF      0.135000
@<TRIPOS>BOND
     1    1    2 1   
     2    1   10 1   
     3    1   11 1   
     4    1   12 1   
     5    2    3 1   
     6    3    4 1   
     7    3   13 1   
     8    3   14 1   
     9    4    5 ar  
    10    4    9 ar  
    11    5    6 ar  
    12    5   15 1   
    13    6    7 ar  
    14    6   16 1   
    15    7    8 ar  
    16    7   17 1   
    17    8    9 ar  
    18    8   18 1   
    19    9   19 1   
@<TRIPOS>SUBSTRUCTURE
     1 PTF         1 TEMP              0 ****  ****    0 ROOT
