@<TRIPOS>MOLECULE
PTG
   50    50     1     0     0
SMALL
bcc


@<TRIPOS>ATOM
      1 C1          0.8550    0.7580    0.0650 c3        1 PTG     -0.091100
      2 C2          2.2110    0.1020    0.0550 c3        1 PTG     -0.080400
      3 C3          3.0760    0.5960    1.1960 c3        1 PTG     -0.081400
      4 C4          4.4390   -0.0620    1.1780 c3        1 PTG     -0.074400
      5 C5          5.3210    0.4090    2.3170 c3        1 PTG     -0.062200
      6 C6          4.9540   -0.1900    3.6210 c2        1 PTG     -0.116200
      7 C7          5.7710   -0.2960    4.6750 ce        1 PTG     -0.171000
      8 C8          7.1700    0.0760    4.7360 ce        1 PTG     -0.043000
      9 C10         7.7040    1.3010    4.6800 cf        1 PTG     -0.210400
     10 C11         7.0200    2.6180    4.5270 c         1 PTG      0.568500
     11 O12         5.8150    2.8340    4.3880 o         1 PTG     -0.536100
     12 C13         8.0900    3.6530    4.5720 ce        1 PTG     -0.272200
     13 C14         9.2960    3.0740    4.7250 c2        1 PTG     -0.086200
     14 C15         9.1910    1.5700    4.8220 c3        1 PTG     -0.015300
     15 C16        10.0280    0.8700    3.7620 c3        1 PTG     -0.025200
     16 C17        11.4790    0.9870    4.0420 c2        1 PTG     -0.233200
     17 C18        12.3890    1.2920    3.1110 c2        1 PTG     -0.117200
     18 C19        13.8430    1.3890    3.3800 c3        1 PTG     -0.061200
     19 C20        14.6690    0.7760    2.2640 c3        1 PTG     -0.061400
     20 C21        16.1480    0.9310    2.5190 c3        1 PTG     -0.197400
     21 C22        16.9770    0.1650    1.4730 c         1 PTG      0.908600
     22 O23        16.6280   -1.0140    1.1730 o         1 PTG     -0.850300
     23 O24        17.9810    0.7510    0.9770 o         1 PTG     -0.850300
     24 H1          0.2340    0.3810   -0.7830 hc        1 PTG      0.030367
     25 H1A         0.9530    1.8660   -0.0340 hc        1 PTG      0.030367
     26 H1B         0.3180    0.5400    1.0200 hc        1 PTG      0.030367
     27 H2          2.7240    0.3120   -0.9200 hc        1 PTG      0.037200
     28 H2A         2.0920   -1.0110    0.1320 hc        1 PTG      0.037200
     29 H3          3.1960    1.7090    1.1220 hc        1 PTG      0.042200
     30 H3A         2.5660    0.3850    2.1730 hc        1 PTG      0.042200
     31 H4          4.9480    0.1740    0.2060 hc        1 PTG      0.039200
     32 H4A         4.3200   -1.1770    1.2260 hc        1 PTG      0.039200
     33 H5          5.2500    1.5300    2.4170 hc        1 PTG      0.064700
     34 H5A         6.3920    0.1690    2.0750 hc        1 PTG      0.064700
     35 H6          3.9150   -0.5530    3.7010 ha        1 PTG      0.119000
     36 H7          5.3990   -0.7490    5.6130 ha        1 PTG      0.127000
     37 H8          7.8490   -0.7900    4.8840 ha        1 PTG      0.129000
     38 H13         7.8540    4.7130    4.4790 ha        1 PTG      0.155000
     39 H14        10.2740    3.5580    4.7740 ha        1 PTG      0.155000
     40 H15         9.5350    1.2400    5.8410 hc        1 PTG      0.072700
     41 H16         9.7790    1.2880    2.7510 hc        1 PTG      0.048700
     42 H16A        9.7480   -0.2200    3.7490 hc        1 PTG      0.048700
     43 H17        11.7780    0.7730    5.0800 ha        1 PTG      0.116000
     44 H18        12.0910    1.4920    2.0670 ha        1 PTG      0.119000
     45 H19        14.1130    2.4760    3.4850 hc        1 PTG      0.039200
     46 H19A       14.1010    0.8920    4.3520 hc        1 PTG      0.039200
     47 H20        14.4330   -0.3170    2.1620 hc        1 PTG      0.047700
     48 H20A       14.4050    1.2640    1.2900 hc        1 PTG      0.047700
     49 H21        16.4080    0.5220    3.5280 hc        1 PTG      0.019700
     50 H21A       16.4360    2.0120    2.5020 hc        1 PTG      0.019700
@<TRIPOS>BOND
     1    1    2 1   
     2    1   24 1   
     3    1   25 1   
     4    1   26 1   
     5    2    3 1   
     6    2   27 1   
     7    2   28 1   
     8    3    4 1   
     9    3   29 1   
    10    3   30 1   
    11    4    5 1   
    12    4   31 1   
    13    4   32 1   
    14    5    6 1   
    15    5   33 1   
    16    5   34 1   
    17    6    7 2   
    18    6   35 1   
    19    7    8 1   
    20    7   36 1   
    21    8    9 2   
    22    8   37 1   
    23    9   10 1   
    24    9   14 1   
    25   10   11 2   
    26   10   12 1   
    27   12   13 2   
    28   12   38 1   
    29   13   14 1   
    30   13   39 1   
    31   14   15 1   
    32   14   40 1   
    33   15   16 1   
    34   15   41 1   
    35   15   42 1   
    36   16   17 2   
    37   16   43 1   
    38   17   18 1   
    39   17   44 1   
    40   18   19 1   
    41   18   45 1   
    42   18   46 1   
    43   19   20 1   
    44   19   47 1   
    45   19   48 1   
    46   20   21 1   
    47   20   49 1   
    48   20   50 1   
    49   21   22 1   
    50   21   23 1   
@<TRIPOS>SUBSTRUCTURE
     1 PTG         1 TEMP              0 ****  ****    0 ROOT
