@<TRIPOS>MOLECULE
PTG
   50    50     1     0     0
SMALL
bcc


@<TRIPOS>ATOM
      1 C1          0.2590   -0.6690   -0.1530 c3        1 PTG     -0.092100
      2 C2          1.7570   -0.5470   -0.0590 c3        1 PTG     -0.080400
      3 C3          2.1980   -0.1720    1.3410 c3        1 PTG     -0.079400
      4 C4          3.7040   -0.0510    1.4290 c3        1 PTG     -0.077400
      5 C5          4.1400    0.3230    2.8320 c3        1 PTG     -0.053200
      6 C6          5.6140    0.4290    2.9350 c2        1 PTG     -0.142200
      7 C7          6.2350    1.4030    3.6170 ce        1 PTG     -0.158000
      8 C8          7.6750    1.4770    3.7270 ce        1 PTG     -0.044000
      9 C10         8.3480    2.4160    4.4070 cf        1 PTG     -0.212400
     10 C11         7.7970    3.5520    5.1990 c         1 PTG      0.569500
     11 O12         6.6130    3.8600    5.3530 o         1 PTG     -0.545100
     12 C13         8.9680    4.2610    5.7840 ce        1 PTG     -0.272200
     13 C14        10.1140    3.6620    5.4050 c2        1 PTG     -0.088200
     14 C15         9.8590    2.4620    4.5220 c3        1 PTG     -0.015300
     15 C16        10.5500    2.5850    3.1720 c3        1 PTG     -0.023200
     16 C17        12.0160    2.3980    3.2880 c2        1 PTG     -0.231200
     17 C18        12.7070    1.5060    2.5720 c2        1 PTG     -0.115200
     18 C19        14.1750    1.3300    2.6640 c3        1 PTG     -0.062200
     19 C20        14.5710   -0.1350    2.6450 c3        1 PTG     -0.062400
     20 C21        16.0690   -0.3070    2.6940 c3        1 PTG     -0.197400
     21 C22        16.4520   -1.7920    2.8410 c         1 PTG      0.908600
     22 O23        15.8140   -2.4990    3.6740 o         1 PTG     -0.850800
     23 O24        17.4040   -2.2240    2.1300 o         1 PTG     -0.850800
     24 H1         -0.2330    0.2980    0.1130 hc        1 PTG      0.031033
     25 H1A        -0.1180   -1.4550    0.5460 hc        1 PTG      0.031033
     26 H1B        -0.0440   -0.9450   -1.1910 hc        1 PTG      0.031033
     27 H2          2.2340   -1.5200   -0.3520 hc        1 PTG      0.039700
     28 H2A         2.1190    0.2290   -0.7840 hc        1 PTG      0.039700
     29 H3          1.7240    0.8010    1.6360 hc        1 PTG      0.039200
     30 H3A         1.8390   -0.9480    2.0670 hc        1 PTG      0.039200
     31 H4          4.1780   -1.0230    1.1320 hc        1 PTG      0.043200
     32 H4A         4.0620    0.7280    0.7050 hc        1 PTG      0.043200
     33 H5          3.7870   -0.4660    3.5540 hc        1 PTG      0.050700
     34 H5A         3.6490    1.2870    3.1340 hc        1 PTG      0.050700
     35 H6          6.1830   -0.3620    2.4190 ha        1 PTG      0.122000
     36 H7          5.6620    2.1980    4.1310 ha        1 PTG      0.156000
     37 H8          8.2450    0.6860    3.2010 ha        1 PTG      0.130000
     38 H13         8.8390    5.1360    6.4210 ha        1 PTG      0.154000
     39 H14        11.1360    3.9470    5.6640 ha        1 PTG      0.150000
     40 H15        10.2280    1.5330    5.0400 hc        1 PTG      0.088700
     41 H16        10.3380    3.5990    2.7350 hc        1 PTG      0.045200
     42 H16A       10.1090    1.8240    2.4740 hc        1 PTG      0.045200
     43 H17        12.5180    3.0590    4.0130 ha        1 PTG      0.114000
     44 H18        12.2000    0.8360    1.8560 ha        1 PTG      0.117000
     45 H19        14.6520    1.8540    1.7890 hc        1 PTG      0.039200
     46 H19A       14.5760    1.8150    3.5940 hc        1 PTG      0.039200
     47 H20        14.1180   -0.6700    3.5220 hc        1 PTG      0.047200
     48 H20A       14.1690   -0.6200    1.7170 hc        1 PTG      0.047200
     49 H21        16.5410    0.1070    1.7690 hc        1 PTG      0.019700
     50 H21A       16.4900    0.2430    3.5730 hc        1 PTG      0.019700
@<TRIPOS>BOND
     1    1    2 1   
     2    1   24 1   
     3    1   25 1   
     4    1   26 1   
     5    2    3 1   
     6    2   27 1   
     7    2   28 1   
     8    3    4 1   
     9    3   29 1   
    10    3   30 1   
    11    4    5 1   
    12    4   31 1   
    13    4   32 1   
    14    5    6 1   
    15    5   33 1   
    16    5   34 1   
    17    6    7 2   
    18    6   35 1   
    19    7    8 1   
    20    7   36 1   
    21    8    9 2   
    22    8   37 1   
    23    9   10 1   
    24    9   14 1   
    25   10   11 2   
    26   10   12 1   
    27   12   13 2   
    28   12   38 1   
    29   13   14 1   
    30   13   39 1   
    31   14   15 1   
    32   14   40 1   
    33   15   16 1   
    34   15   41 1   
    35   15   42 1   
    36   16   17 2   
    37   16   43 1   
    38   17   18 1   
    39   17   44 1   
    40   18   19 1   
    41   18   45 1   
    42   18   46 1   
    43   19   20 1   
    44   19   47 1   
    45   19   48 1   
    46   20   21 1   
    47   20   49 1   
    48   20   50 1   
    49   21   22 1   
    50   21   23 1   
@<TRIPOS>SUBSTRUCTURE
     1 PTG         1 TEMP              0 ****  ****    0 ROOT
