@<TRIPOS>MOLECULE
PTG
   50    50     1     0     0
SMALL
bcc


@<TRIPOS>ATOM
      1 C1          9.3170   -2.9710    0.5070 c3        1 PTG     -0.092100
      2 C2          7.8270   -2.8510    0.6990 c3        1 PTG     -0.080400
      3 C3          7.2460   -1.7380   -0.1480 c3        1 PTG     -0.079400
      4 C4          5.7500   -1.6220    0.0490 c3        1 PTG     -0.077400
      5 C5          5.1730   -0.5080   -0.8030 c3        1 PTG     -0.053200
      6 C6          3.7050   -0.3950   -0.6300 c2        1 PTG     -0.141200
      7 C7          3.0660    0.7800   -0.5280 ce        1 PTG     -0.159000
      8 C8          1.6290    0.8710   -0.3840 ce        1 PTG     -0.044000
      9 C10         0.9360    2.0150   -0.2910 cf        1 PTG     -0.213400
     10 C11         1.4550    3.4120   -0.3310 c         1 PTG      0.569500
     11 O12         2.6280    3.7790   -0.4330 o         1 PTG     -0.545100
     12 C13         0.2670    4.3030   -0.2260 ce        1 PTG     -0.271200
     13 C14        -0.8590    3.5690   -0.1240 c2        1 PTG     -0.089200
     14 C15        -0.5720    2.0860   -0.1580 c3        1 PTG     -0.014300
     15 C16        -1.0900    1.3710    1.0810 c3        1 PTG     -0.023200
     16 C17        -2.5680    1.2550    1.0690 c2        1 PTG     -0.233200
     17 C18        -3.2200    0.0950    1.1950 c2        1 PTG     -0.115200
     18 C19        -4.6960   -0.0270    1.2120 c3        1 PTG     -0.062200
     19 C20        -5.1720   -1.2060    0.3830 c3        1 PTG     -0.063400
     20 C21        -6.6740   -1.3440    0.4200 c3        1 PTG     -0.196400
     21 C22        -7.1270   -2.6680   -0.2250 c         1 PTG      0.908600
     22 O23        -6.4810   -3.7210    0.0450 o         1 PTG     -0.850300
     23 O24        -8.1400   -2.6350   -0.9800 o         1 PTG     -0.850300
     24 H1          9.8290   -2.0210    0.7930 hc        1 PTG      0.030700
     25 H1A         9.7250   -3.7960    1.1400 hc        1 PTG      0.030700
     26 H1B         9.5610   -3.1920   -0.5600 hc        1 PTG      0.030700
     27 H2          7.3330   -3.8220    0.4300 hc        1 PTG      0.039700
     28 H2A         7.6010   -2.6540    1.7800 hc        1 PTG      0.039700
     29 H3          7.7380   -0.7660    0.1200 hc        1 PTG      0.039200
     30 H3A         7.4700   -1.9340   -1.2300 hc        1 PTG      0.039200
     31 H4          5.2580   -2.5950   -0.2170 hc        1 PTG      0.043700
     32 H4A         5.5260   -1.4220    1.1300 hc        1 PTG      0.043700
     33 H5          5.6790    0.4610   -0.5470 hc        1 PTG      0.050700
     34 H5A         5.3910   -0.7180   -1.8870 hc        1 PTG      0.050700
     35 H6          3.1570   -1.3510   -0.6030 ha        1 PTG      0.122000
     36 H7          3.6180    1.7380   -0.5520 ha        1 PTG      0.156000
     37 H8          1.0810   -0.0910   -0.3510 ha        1 PTG      0.130000
     38 H13         0.3700    5.3880   -0.2360 ha        1 PTG      0.154000
     39 H14        -1.8860    3.9280   -0.0250 ha        1 PTG      0.150000
     40 H15        -1.0530    1.6350   -1.0700 hc        1 PTG      0.086700
     41 H16        -0.6150    0.3540    1.1320 hc        1 PTG      0.045700
     42 H16A       -0.7680    1.9340    1.9990 hc        1 PTG      0.045700
     43 H17        -3.1130    2.2060    0.9550 ha        1 PTG      0.114000
     44 H18        -2.6730   -0.8580    1.2980 ha        1 PTG      0.120000
     45 H19        -5.0280   -0.1680    2.2780 hc        1 PTG      0.039200
     46 H19A       -5.1790    0.9150    0.8400 hc        1 PTG      0.039200
     47 H20        -4.8330   -1.0780   -0.6770 hc        1 PTG      0.047200
     48 H20A       -4.7150   -2.1580    0.7650 hc        1 PTG      0.047200
     49 H21        -7.0340   -1.3410    1.4800 hc        1 PTG      0.020200
     50 H21A       -7.1590   -0.4880   -0.1110 hc        1 PTG      0.020200
@<TRIPOS>BOND
     1    1    2 1   
     2    1   24 1   
     3    1   25 1   
     4    1   26 1   
     5    2    3 1   
     6    2   27 1   
     7    2   28 1   
     8    3    4 1   
     9    3   29 1   
    10    3   30 1   
    11    4    5 1   
    12    4   31 1   
    13    4   32 1   
    14    5    6 1   
    15    5   33 1   
    16    5   34 1   
    17    6    7 2   
    18    6   35 1   
    19    7    8 1   
    20    7   36 1   
    21    8    9 2   
    22    8   37 1   
    23    9   10 1   
    24    9   14 1   
    25   10   11 2   
    26   10   12 1   
    27   12   13 2   
    28   12   38 1   
    29   13   14 1   
    30   13   39 1   
    31   14   15 1   
    32   14   40 1   
    33   15   16 1   
    34   15   41 1   
    35   15   42 1   
    36   16   17 2   
    37   16   43 1   
    38   17   18 1   
    39   17   44 1   
    40   18   19 1   
    41   18   45 1   
    42   18   46 1   
    43   19   20 1   
    44   19   47 1   
    45   19   48 1   
    46   20   21 1   
    47   20   49 1   
    48   20   50 1   
    49   21   22 1   
    50   21   23 1   
@<TRIPOS>SUBSTRUCTURE
     1 PTG         1 TEMP              0 ****  ****    0 ROOT
