@<TRIPOS>MOLECULE
PTH
   30    30     1     0     0
SMALL
bcc


@<TRIPOS>ATOM
      1 N           1.4110    0.9680    3.3130 n3        1 PTH     -0.903800
      2 CA          0.1530    0.3280    3.6550 c3        1 PTH      0.050500
      3 C           0.1090   -0.1030    5.1530 c         1 PTH      0.912600
      4 O           1.1140   -0.6900    5.6570 o         1 PTH     -0.872300
      5 OXT        -0.9430    0.1420    5.8140 o         1 PTH     -0.872300
      6 CB         -0.2030   -0.9140    2.8150 c3        1 PTH     -0.032100
      7 CG         -0.1030   -0.7570    1.3390 ca        1 PTH     -0.202300
      8 CD1        -1.2200   -0.4230    0.5640 ca        1 PTH     -0.080000
      9 CD2         1.1010   -1.0200    0.6670 ca        1 PTH     -0.106000
     10 CE1        -1.1760   -0.4080   -0.8260 ca        1 PTH     -0.254300
     11 CE2         1.1760   -1.0130   -0.7150 ca        1 PTH     -0.256000
     12 CZ          0.0290   -0.7480   -1.5170 ca        1 PTH      0.337100
     13 CF         -2.3740   -0.0500   -1.6390 c3        1 PTH      0.152700
     14 OH          0.0520   -0.9490   -2.8100 os        1 PTH     -0.455500
     15 P           0.3660    0.1840   -4.1680 p5        1 PTH      1.326900
     16 O1P         1.7590    0.6450   -3.8820 o         1 PTH     -0.907167
     17 O2P         0.1940   -0.7660   -5.3130 o         1 PTH     -0.907167
     18 O3P        -0.7360    1.1810   -3.9670 o         1 PTH     -0.907167
     19 OF         -3.1990    0.9300   -1.0070 oh        1 PTH     -0.654800
     20 H           1.5580    0.8990    2.3210 hn        1 PTH      0.334300
     21 H2          2.1580    0.4760    3.7720 hn        1 PTH      0.334300
     22 HA         -0.6530    1.1000    3.4900 h1        1 PTH      0.043700
     23 HB2         0.4690   -1.7540    3.1400 hc        1 PTH      0.027200
     24 HB3        -1.2530   -1.2020    3.0900 hc        1 PTH      0.027200
     25 HD1        -2.1680   -0.1670    1.0640 ha        1 PTH      0.103000
     26 HD2         2.0000   -1.2520    1.2580 ha        1 PTH      0.084000
     27 HE2         2.1260   -1.2030   -1.2320 ha        1 PTH      0.126000
     28 HF1        -2.0330    0.3270   -2.6570 h1        1 PTH      0.078700
     29 HF2        -3.0530   -0.9370   -1.7570 h1        1 PTH      0.078700
     30 HOF        -2.6430    1.7100   -0.9070 ho        1 PTH      0.397000
@<TRIPOS>BOND
     1    1    2 1   
     2    1   20 1   
     3    1   21 1   
     4    2    3 1   
     5    2    6 1   
     6    2   22 1   
     7    3    4 1   
     8    3    5 1   
     9    6    7 1   
    10    6   23 1   
    11    6   24 1   
    12    7    8 ar  
    13    7    9 ar  
    14    8   10 ar  
    15    8   25 1   
    16    9   11 ar  
    17    9   26 1   
    18   10   12 ar  
    19   10   13 1   
    20   11   12 ar  
    21   11   27 1   
    22   12   14 1   
    23   13   19 1   
    24   13   28 1   
    25   13   29 1   
    26   14   15 1   
    27   15   16 1   
    28   15   17 1   
    29   15   18 1   
    30   19   30 1   
@<TRIPOS>SUBSTRUCTURE
     1 PTH         1 TEMP              0 ****  ****    0 ROOT
