@<TRIPOS>MOLECULE
PTI
   64    68     1     0     0
SMALL
bcc


@<TRIPOS>ATOM
      1 C3          0.4070    0.5160   -0.1360 c3        1 PTI      0.176300
      2 C6          1.9310    0.5540   -0.0420 c3        1 PTI     -0.077900
      3 C9          2.4300   -0.2560    1.1350 c3        1 PTI     -0.078400
      4 N1         -0.2530    0.8960    1.1050 n3        1 PTI     -0.736600
      5 C12         1.7510    0.1960    2.4090 c3        1 PTI     -0.077900
      6 C15         0.2310    0.1590    2.2630 c3        1 PTI      0.176300
      7 C18        -1.7020    0.8840    0.9990 c3        1 PTI      0.172800
      8 C21        -2.3790    1.9590    1.8630 c3        1 PTI      0.128400
      9 O24        -2.5030    3.1090    1.0180 os        1 PTI     -0.326900
     10 C25        -2.9960    4.2490    1.6200 ca        1 PTI      0.132100
     11 C26        -2.9660    5.4020    0.8120 ca        1 PTI     -0.186500
     12 C28        -3.4600    6.5980    1.3170 ca        1 PTI     -0.079000
     13 C30        -3.9770    6.6660    2.6180 ca        1 PTI     -0.113300
     14 C31        -4.0040    5.5150    3.4080 ca        1 PTI     -0.079000
     15 C33        -3.5160    4.3040    2.9180 ca        1 PTI     -0.186500
     16 C35        -4.4870    7.9900    3.1480 c3        1 PTI      0.292100
     17 N37        -5.8700    7.8530    3.6410 nh        1 PTI     -0.622000
     18 C38        -6.2420    8.8310    4.6550 c3        1 PTI      0.178800
     19 C41        -5.3170    8.7910    5.8680 c3        1 PTI     -0.039100
     20 C44        -3.8960    8.9150    5.4540 ca        1 PTI     -0.030300
     21 C45        -3.5060    8.5250    4.1670 ca        1 PTI     -0.114300
     22 C46        -2.1630    8.6530    3.7840 ca        1 PTI     -0.085000
     23 C48        -1.2120    9.1540    4.6620 ca        1 PTI     -0.157000
     24 C50        -1.6150    9.5360    5.9530 ca        1 PTI      0.126100
     25 C51        -2.9510    9.4200    6.3520 ca        1 PTI     -0.216000
     26 O53        -0.6320   10.0260    6.7840 oh        1 PTI     -0.498100
     27 C55        -6.8300    7.8100    2.5690 ca        1 PTI      0.089600
     28 C56        -7.5570    6.6200    2.3680 ca        1 PTI     -0.128000
     29 C58        -8.5040    6.5430    1.3480 ca        1 PTI     -0.128500
     30 C60        -8.7430    7.6360    0.5190 ca        1 PTI     -0.131000
     31 C62        -8.0300    8.8180    0.7100 ca        1 PTI     -0.128500
     32 C64        -7.0800    8.9100    1.7240 ca        1 PTI     -0.128000
     33 H3C1        0.0960   -0.5200   -0.4670 h1        1 PTI      0.027950
     34 H3C2        0.0770    1.2430   -0.9310 h1        1 PTI      0.027950
     35 H6C1        2.2750    1.6170    0.0600 hc        1 PTI      0.047700
     36 H6C2        2.3530    0.1480   -0.9970 hc        1 PTI      0.047700
     37 H9C1        3.5400   -0.1400    1.2330 hc        1 PTI      0.039200
     38 H9C2        2.2190   -1.3440    0.9600 hc        1 PTI      0.039200
     39 H121        2.0400   -0.4730    3.2600 hc        1 PTI      0.047700
     40 H122        2.0800    1.2370    2.6640 hc        1 PTI      0.047700
     41 H151       -0.0960   -0.9240    2.2280 h1        1 PTI      0.027950
     42 H152       -0.2340    0.6230    3.1770 h1        1 PTI      0.027950
     43 H181       -2.1360   -0.1130    1.3080 h1        1 PTI      0.046700
     44 H182       -2.0010    1.0710   -0.0720 h1        1 PTI      0.046700
     45 H211       -3.4040    1.6130    2.1580 h1        1 PTI      0.044200
     46 H212       -1.7870    2.2180    2.7790 h1        1 PTI      0.044200
     47 H26        -2.5560    5.3380   -0.2050 ha        1 PTI      0.141000
     48 H28        -3.4430    7.4980    0.6830 ha        1 PTI      0.137500
     49 H31        -4.4150    5.5630    4.4280 ha        1 PTI      0.137500
     50 H33        -3.5470    3.4100    3.5560 ha        1 PTI      0.141000
     51 H35        -4.4690    8.7350    2.2850 h1        1 PTI      0.039700
     52 H381       -6.2500    9.8830    4.2430 h1        1 PTI      0.038700
     53 H382       -7.2900    8.5860    4.9870 h1        1 PTI      0.038700
     54 H411       -5.6030    9.6260    6.5610 hc        1 PTI      0.060200
     55 H412       -5.4540    7.8240    6.4250 hc        1 PTI      0.060200
     56 H46        -1.8610    8.3400    2.7710 ha        1 PTI      0.143000
     57 H48        -0.1580    9.2550    4.3690 ha        1 PTI      0.151000
     58 H51        -3.2590    9.7240    7.3620 ha        1 PTI      0.133000
     59 H53        -1.0400   10.2390    7.6350 ho        1 PTI      0.418000
     60 H56        -7.3740    5.7460    3.0120 ha        1 PTI      0.138500
     61 H58        -9.0630    5.6070    1.1990 ha        1 PTI      0.131500
     62 H60        -9.4910    7.5670   -0.2840 ha        1 PTI      0.131000
     63 H62        -8.2150    9.6840    0.0570 ha        1 PTI      0.131500
     64 H64        -6.5260    9.8510    1.8620 ha        1 PTI      0.138500
@<TRIPOS>BOND
     1    1    2 1   
     2    1    4 1   
     3    1   33 1   
     4    1   34 1   
     5    2    3 1   
     6    2   35 1   
     7    2   36 1   
     8    3    5 1   
     9    3   37 1   
    10    3   38 1   
    11    4    6 1   
    12    4    7 1   
    13    5    6 1   
    14    5   39 1   
    15    5   40 1   
    16    6   41 1   
    17    6   42 1   
    18    7    8 1   
    19    7   43 1   
    20    7   44 1   
    21    8    9 1   
    22    8   45 1   
    23    8   46 1   
    24    9   10 1   
    25   10   11 ar  
    26   10   15 ar  
    27   11   12 ar  
    28   11   47 1   
    29   12   13 ar  
    30   12   48 1   
    31   13   14 ar  
    32   13   16 1   
    33   14   15 ar  
    34   14   49 1   
    35   15   50 1   
    36   16   17 1   
    37   16   21 1   
    38   16   51 1   
    39   17   18 1   
    40   17   27 1   
    41   18   19 1   
    42   18   52 1   
    43   18   53 1   
    44   19   20 1   
    45   19   54 1   
    46   19   55 1   
    47   20   21 ar  
    48   20   25 ar  
    49   21   22 ar  
    50   22   23 ar  
    51   22   56 1   
    52   23   24 ar  
    53   23   57 1   
    54   24   25 ar  
    55   24   26 1   
    56   25   58 1   
    57   26   59 1   
    58   27   28 ar  
    59   27   32 ar  
    60   28   29 ar  
    61   28   60 1   
    62   29   30 ar  
    63   29   61 1   
    64   30   31 ar  
    65   30   62 1   
    66   31   32 ar  
    67   31   63 1   
    68   32   64 1   
@<TRIPOS>SUBSTRUCTURE
     1 PTI         1 TEMP              0 ****  ****    0 ROOT
