@<TRIPOS>MOLECULE
PTI
   64    68     1     0     0
SMALL
bcc


@<TRIPOS>ATOM
      1 C3          0.4110    0.5320   -0.1580 c3        1 PTI      0.176300
      2 C6          1.9360    0.5800   -0.0750 c3        1 PTI     -0.077900
      3 C9          2.4470   -0.2260    1.0990 c3        1 PTI     -0.078400
      4 N1         -0.2420    0.9100    1.0870 n3        1 PTI     -0.736600
      5 C12         1.7740    0.2220    2.3780 c3        1 PTI     -0.077900
      6 C15         0.2540    0.1760    2.2420 c3        1 PTI      0.176300
      7 C18        -1.6920    0.8890    0.9920 c3        1 PTI      0.172800
      8 C21        -2.3690    1.9610    1.8600 c3        1 PTI      0.128400
      9 O24        -2.5040    3.1100    1.0150 os        1 PTI     -0.326900
     10 C25        -2.9990    4.2470    1.6200 ca        1 PTI      0.132100
     11 C26        -2.9780    5.4010    0.8130 ca        1 PTI     -0.186500
     12 C28        -3.4740    6.5950    1.3210 ca        1 PTI     -0.079000
     13 C30        -3.9840    6.6600    2.6240 ca        1 PTI     -0.113300
     14 C31        -4.0010    5.5090    3.4140 ca        1 PTI     -0.079000
     15 C33        -3.5110    4.3000    2.9210 ca        1 PTI     -0.186500
     16 C35        -4.4960    7.9820    3.1580 c3        1 PTI      0.292100
     17 N37        -5.8760    7.8400    3.6580 nh        1 PTI     -0.622000
     18 C38        -6.2460    8.8150    4.6750 c3        1 PTI      0.178800
     19 C41        -5.3150    8.7770    5.8840 c3        1 PTI     -0.039100
     20 C44        -3.8970    8.9080    5.4620 ca        1 PTI     -0.030300
     21 C45        -3.5120    8.5200    4.1720 ca        1 PTI     -0.114300
     22 C46        -2.1720    8.6540    3.7820 ca        1 PTI     -0.085000
     23 C48        -1.2180    9.1590    4.6550 ca        1 PTI     -0.157000
     24 C50        -1.6150    9.5380    5.9490 ca        1 PTI      0.126100
     25 C51        -2.9480    9.4160    6.3550 ca        1 PTI     -0.216000
     26 O53        -0.6290   10.0310    6.7740 oh        1 PTI     -0.498100
     27 C55        -6.8410    7.7930    2.5920 ca        1 PTI      0.089600
     28 C56        -7.5650    6.6010    2.3940 ca        1 PTI     -0.128000
     29 C58        -8.5170    6.5200    1.3790 ca        1 PTI     -0.128500
     30 C60        -8.7650    7.6130    0.5510 ca        1 PTI     -0.131000
     31 C62        -8.0550    8.7980    0.7400 ca        1 PTI     -0.128500
     32 C64        -7.1010    8.8930    1.7490 ca        1 PTI     -0.128000
     33 H3C1        0.0720    1.2570   -0.9520 h1        1 PTI      0.027950
     34 H3C2        0.1040   -0.5050   -0.4860 h1        1 PTI      0.027950
     35 H6C1        2.3540    0.1750   -1.0320 hc        1 PTI      0.047700
     36 H6C2        2.2750    1.6440    0.0240 hc        1 PTI      0.047700
     37 H9C1        3.5580   -0.1040    1.1900 hc        1 PTI      0.039200
     38 H9C2        2.2420   -1.3160    0.9270 hc        1 PTI      0.039200
     39 H121        2.1000    1.2650    2.6290 hc        1 PTI      0.047700
     40 H122        2.0740   -0.4440    3.2270 hc        1 PTI      0.047700
     41 H151       -0.0670   -0.9080    2.2110 h1        1 PTI      0.027950
     42 H152       -0.2080    0.6390    3.1590 h1        1 PTI      0.027950
     43 H181       -2.1170   -0.1100    1.3040 h1        1 PTI      0.046700
     44 H182       -1.9990    1.0740   -0.0780 h1        1 PTI      0.046700
     45 H211       -3.3910    1.6090    2.1610 h1        1 PTI      0.043700
     46 H212       -1.7730    2.2230    2.7710 h1        1 PTI      0.043700
     47 H26        -2.5740    5.3400   -0.2070 ha        1 PTI      0.141000
     48 H28        -3.4650    7.4950    0.6880 ha        1 PTI      0.137500
     49 H31        -4.4070    5.5540    4.4370 ha        1 PTI      0.137500
     50 H33        -3.5350    3.4060    3.5590 ha        1 PTI      0.141000
     51 H35        -4.4860    8.7280    2.2960 h1        1 PTI      0.039700
     52 H381       -7.2920    8.5650    5.0130 h1        1 PTI      0.038700
     53 H382       -6.2610    9.8670    4.2640 h1        1 PTI      0.038700
     54 H411       -5.4450    7.8100    6.4410 hc        1 PTI      0.060200
     55 H412       -5.6000    9.6110    6.5780 hc        1 PTI      0.060200
     56 H46        -1.8730    8.3430    2.7670 ha        1 PTI      0.143000
     57 H48        -0.1660    9.2630    4.3560 ha        1 PTI      0.151000
     58 H51        -3.2520    9.7180    7.3670 ha        1 PTI      0.133000
     59 H53        -1.0340   10.2410    7.6280 ho        1 PTI      0.418000
     60 H56        -7.3760    5.7270    3.0370 ha        1 PTI      0.138500
     61 H58        -9.0730    5.5830    1.2320 ha        1 PTI      0.131500
     62 H60        -9.5170    7.5420   -0.2470 ha        1 PTI      0.131000
     63 H62        -8.2470    9.6640    0.0890 ha        1 PTI      0.131500
     64 H64        -6.5490    9.8360    1.8840 ha        1 PTI      0.138500
@<TRIPOS>BOND
     1    1    2 1   
     2    1    4 1   
     3    1   33 1   
     4    1   34 1   
     5    2    3 1   
     6    2   35 1   
     7    2   36 1   
     8    3    5 1   
     9    3   37 1   
    10    3   38 1   
    11    4    6 1   
    12    4    7 1   
    13    5    6 1   
    14    5   39 1   
    15    5   40 1   
    16    6   41 1   
    17    6   42 1   
    18    7    8 1   
    19    7   43 1   
    20    7   44 1   
    21    8    9 1   
    22    8   45 1   
    23    8   46 1   
    24    9   10 1   
    25   10   11 ar  
    26   10   15 ar  
    27   11   12 ar  
    28   11   47 1   
    29   12   13 ar  
    30   12   48 1   
    31   13   14 ar  
    32   13   16 1   
    33   14   15 ar  
    34   14   49 1   
    35   15   50 1   
    36   16   17 1   
    37   16   21 1   
    38   16   51 1   
    39   17   18 1   
    40   17   27 1   
    41   18   19 1   
    42   18   52 1   
    43   18   53 1   
    44   19   20 1   
    45   19   54 1   
    46   19   55 1   
    47   20   21 ar  
    48   20   25 ar  
    49   21   22 ar  
    50   22   23 ar  
    51   22   56 1   
    52   23   24 ar  
    53   23   57 1   
    54   24   25 ar  
    55   24   26 1   
    56   25   58 1   
    57   26   59 1   
    58   27   28 ar  
    59   27   32 ar  
    60   28   29 ar  
    61   28   60 1   
    62   29   30 ar  
    63   29   61 1   
    64   30   31 ar  
    65   30   62 1   
    66   31   32 ar  
    67   31   63 1   
    68   32   64 1   
@<TRIPOS>SUBSTRUCTURE
     1 PTI         1 TEMP              0 ****  ****    0 ROOT
