@<TRIPOS>MOLECULE
PTI
   64    62     1     0     0
SMALL
bcc


@<TRIPOS>ATOM
      1 C3          3.7190   -4.7570   -2.8870 c3        1 PTI     -0.065000
      2 C6          5.0870   -4.9740   -3.4860 c3        1 PTI     -0.156500
      3 C9          6.1290   -5.1620   -2.4560 c3        1 PTI     -0.157000
      4 N1          3.7110   -3.6870   -1.8720 n3        1 PTI     -0.259000
      5 C12         6.1160   -4.0860   -1.4400 c3        1 PTI     -0.156500
      6 C15         4.7410   -3.8710   -0.8460 c3        1 PTI     -0.065000
      7 C18         2.4350   -3.6240   -1.2570 c3        1 PTI     -0.071000
      8 C21         1.8870   -2.1320   -1.3180 c3        1 PTI     -0.023000
      9 O24         0.4640   -2.1500   -1.3910 os        1 PTI     -0.220000
     10 C25        -0.1580   -1.0040   -0.8110 c2        1 PTI      0.086000
     11 C26        -0.1540    0.2100   -1.4930 c2        1 PTI     -0.208000
     12 C28        -0.8130    1.3150   -0.9560 c1        1 PTI     -0.093000
     13 C30        -1.4800    1.2040    0.2690 c1        1 PTI     -0.103000
     14 C31        -1.4830   -0.0040    0.9480 c1        1 PTI     -0.066000
     15 C33        -0.8190   -1.1150    0.4060 c1        1 PTI     -0.165000
     16 C35        -2.1060    2.4810    0.9390 c3        1 PTI      0.080000
     17 N37        -3.4140    2.2320    1.1810 n3        1 PTI     -0.224000
     18 C38        -4.0630    3.0180    2.1430 c3        1 PTI     -0.058000
     19 C41        -3.4280    3.1030    3.4590 c3        1 PTI     -0.126000
     20 C44        -1.8640    3.0980    3.4750 c2        1 PTI     -0.022000
     21 C45        -1.1900    2.8750    2.2270 c2        1 PTI     -0.107000
     22 C46         0.2020    3.0290    2.1460 c1        1 PTI     -0.085000
     23 C48         0.9410    3.4030    3.2920 c1        1 PTI     -0.157000
     24 C50         0.2760    3.6230    4.5260 c1        1 PTI      0.082000
     25 C51        -1.1270    3.4690    4.6120 c1        1 PTI     -0.216000
     26 O53         1.0330    3.9610    5.6980 oh        1 PTI     -0.252000
     27 C55        -4.1490    2.2770   -0.0550 c2        1 PTI      0.008000
     28 C56        -4.9680    1.2100   -0.4140 c2        1 PTI     -0.099000
     29 C58        -5.7870    1.3050   -1.5610 c1        1 PTI     -0.131000
     30 C60        -5.7750    2.4640   -2.3320 c1        1 PTI     -0.129000
     31 C62        -4.9470    3.5430   -1.9690 c1        1 PTI     -0.129000
     32 C64        -4.1390    3.4520   -0.8390 c1        1 PTI     -0.156000
     33 H3C1        3.1010   -4.5190   -3.5980 h1        1 PTI      0.069500
     34 H3C2        3.4200   -5.5920   -2.4710 h1        1 PTI      0.069500
     35 H6C1        5.0580   -5.7860   -4.0670 hc        1 PTI      0.086500
     36 H6C2        5.3220   -4.1880   -4.0420 hc        1 PTI      0.086500
     37 H9C1        5.9820   -6.0200   -2.0100 hc        1 PTI      0.080000
     38 H9C2        7.0080   -5.1770   -2.8920 hc        1 PTI      0.080000
     39 H121        6.7450   -4.3210   -0.7160 hc        1 PTI      0.086500
     40 H122        6.4080   -3.2660   -1.8520 hc        1 PTI      0.086500
     41 H151        4.5050   -4.6570   -0.2960 h1        1 PTI      0.069500
     42 H152        4.7630   -3.0660   -0.2620 h1        1 PTI      0.069500
     43 H181        1.8170   -4.2160   -1.7270 h1        1 PTI      0.087000
     44 H182        2.5110   -3.9070   -0.3200 h1        1 PTI      0.087000
     45 H211        2.2490   -1.6820   -2.1140 h1        1 PTI      0.086000
     46 H212        2.1620   -1.6550   -0.5260 h1        1 PTI      0.086000
     47 H26         0.3150    0.2890   -2.3530 ha        1 PTI      0.138000
     48 H28        -0.8100    2.1550   -1.4300 ha        1 PTI      0.130000
     49 H31        -1.9470   -0.0820    1.8010 ha        1 PTI      0.146000
     50 H33        -0.8210   -1.9890    0.8970 ha        1 PTI      0.147000
     51 H35        -2.0560    3.2260    0.2870 h1        1 PTI      0.079000
     52 H381       -4.1200    3.9160    1.7910 h1        1 PTI      0.078500
     53 H382       -4.9610    2.6410    2.2730 h1        1 PTI      0.078500
     54 H411       -3.7230    2.3450    3.9700 hc        1 PTI      0.099500
     55 H412       -3.7270    3.9410    3.8780 hc        1 PTI      0.099500
     56 H46         0.6670    2.8740    1.2860 ha        1 PTI      0.141000
     57 H48         1.9260    3.5120    3.2340 ha        1 PTI      0.151000
     58 H51        -1.5910    3.6240    5.4780 ha        1 PTI      0.133000
     59 H53         1.1030    4.8440    5.7610 ho        1 PTI      0.217000
     60 H56        -4.9760    0.3830    0.1350 ha        1 PTI      0.147000
     61 H58        -6.3500    0.5720   -1.8090 ha        1 PTI      0.133000
     62 H60        -6.3490    2.5300   -3.1350 ha        1 PTI      0.131000
     63 H62        -4.9390    4.3690   -2.5190 ha        1 PTI      0.131000
     64 H64        -3.5680    4.1970   -0.5900 ha        1 PTI      0.131000
@<TRIPOS>BOND
     1    1    2 1   
     2    1    4 1   
     3    1   33 1   
     4    1   34 1   
     5    2    3 1   
     6    2   35 1   
     7    2   36 1   
     8    3    5 1   
     9    3   37 1   
    10    3   38 1   
    11    4    6 1   
    12    4    7 1   
    13    5    6 1   
    14    5   39 1   
    15    5   40 1   
    16    6   41 1   
    17    6   42 1   
    18    7    8 1   
    19    7   43 1   
    20    7   44 1   
    21    8    9 1   
    22    8   45 1   
    23    8   46 1   
    24    9   10 1   
    25   10   11 1   
    26   10   15 1   
    27   11   12 1   
    28   11   47 1   
    29   12   48 1   
    30   13   14 1   
    31   13   16 1   
    32   14   49 1   
    33   15   50 1   
    34   16   17 1   
    35   16   21 1   
    36   16   51 1   
    37   17   18 1   
    38   17   27 1   
    39   18   19 1   
    40   18   52 1   
    41   18   53 1   
    42   19   20 1   
    43   19   54 1   
    44   19   55 1   
    45   20   21 1   
    46   20   25 1   
    47   21   22 1   
    48   22   56 1   
    49   23   24 1   
    50   23   57 1   
    51   24   26 1   
    52   25   58 1   
    53   26   59 1   
    54   27   28 1   
    55   27   32 1   
    56   28   29 1   
    57   28   60 1   
    58   29   61 1   
    59   30   31 1   
    60   30   62 1   
    61   31   63 1   
    62   32   64 1   
@<TRIPOS>SUBSTRUCTURE
     1 PTI         1 TEMP              0 ****  ****    0 ROOT
