@<TRIPOS>MOLECULE
PTI
   64    68     1     0     0
SMALL
bcc


@<TRIPOS>ATOM
      1 C3         -0.2380   -0.5480    6.8560 c3        1 PTI      0.176300
      2 C6          1.0010   -1.0580    7.5900 c3        1 PTI     -0.077900
      3 C9          1.8540    0.0870    8.0900 c3        1 PTI     -0.078400
      4 N1          0.0740    0.4010    5.7960 n3        1 PTI     -0.736600
      5 C12         2.1890    1.0290    6.9540 c3        1 PTI     -0.077900
      6 C15         0.9240    1.4970    6.2390 c3        1 PTI      0.176300
      7 C18        -1.1070    0.8610    5.0860 c3        1 PTI      0.172800
      8 C21        -0.8430    1.1480    3.6000 c3        1 PTI      0.128400
      9 O24        -1.1310   -0.0760    2.9150 os        1 PTI     -0.326900
     10 C25        -0.8720   -0.0840    1.5590 ca        1 PTI      0.131100
     11 C26        -1.0350   -1.3350    0.9350 ca        1 PTI     -0.187000
     12 C28        -0.8170   -1.4460   -0.4320 ca        1 PTI     -0.079000
     13 C30        -0.4330   -0.3310   -1.1880 ca        1 PTI     -0.113300
     14 C31        -0.2780    0.9060   -0.5590 ca        1 PTI     -0.079000
     15 C33        -0.4960    1.0390    0.8120 ca        1 PTI     -0.187000
     16 C35        -0.1800   -0.4890   -2.6730 c3        1 PTI      0.292100
     17 N37        -0.9860    0.4770   -3.4430 nh        1 PTI     -0.622000
     18 C38        -0.4240    0.8220   -4.7420 c3        1 PTI      0.177800
     19 C41         0.9890    1.3870   -4.6340 c3        1 PTI     -0.039100
     20 C44         1.8680    0.4690   -3.8660 ca        1 PTI     -0.034300
     21 C45         1.3090   -0.4130   -2.9300 ca        1 PTI     -0.114300
     22 C46         2.1440   -1.2800   -2.2150 ca        1 PTI     -0.079000
     23 C48         3.5200   -1.2730   -2.4160 ca        1 PTI     -0.213000
     24 C50         4.0690   -0.3820   -3.3500 ca        1 PTI      0.125100
     25 C51         3.2480    0.4890   -4.0790 ca        1 PTI     -0.160000
     26 O53         5.4200   -0.3120   -3.6060 oh        1 PTI     -0.499100
     27 C55        -2.3630    0.0760   -3.5490 ca        1 PTI      0.090600
     28 C56        -3.3430    0.8670   -2.9180 ca        1 PTI     -0.128000
     29 C58        -4.6890    0.5180   -3.0080 ca        1 PTI     -0.128500
     30 C60        -5.0820   -0.6130   -3.7210 ca        1 PTI     -0.131000
     31 C62        -4.1200   -1.4030   -4.3500 ca        1 PTI     -0.128500
     32 C64        -2.7720   -1.0670   -4.2680 ca        1 PTI     -0.128000
     33 H3C1       -0.9430   -0.0980    7.6160 h1        1 PTI      0.027950
     34 H3C2       -0.7610   -1.4260    6.3800 h1        1 PTI      0.027950
     35 H6C1        0.6640   -1.6930    8.4490 hc        1 PTI      0.047700
     36 H6C2        1.6060   -1.7050    6.9020 hc        1 PTI      0.047700
     37 H9C1        1.3020    0.6460    8.8910 hc        1 PTI      0.039200
     38 H9C2        2.7970   -0.3110    8.5450 hc        1 PTI      0.039200
     39 H121        2.7290    1.9300    7.3440 hc        1 PTI      0.047700
     40 H122        2.8660    0.5120    6.2240 hc        1 PTI      0.047700
     41 H151        1.2180    2.0860    5.3240 h1        1 PTI      0.027950
     42 H152        0.3650    2.1990    6.9280 h1        1 PTI      0.027950
     43 H181       -1.5260    1.8070    5.5390 h1        1 PTI      0.047200
     44 H182       -1.9090    0.0690    5.1420 h1        1 PTI      0.047200
     45 H211        0.2130    1.4610    3.3980 h1        1 PTI      0.043700
     46 H212       -1.5510    1.9420    3.2400 h1        1 PTI      0.043700
     47 H26        -1.3340   -2.2040    1.5370 ha        1 PTI      0.141000
     48 H28        -0.9510   -2.4230   -0.9210 ha        1 PTI      0.138000
     49 H31         0.0160    1.7870   -1.1500 ha        1 PTI      0.138000
     50 H33        -0.3690    2.0210    1.2870 ha        1 PTI      0.141000
     51 H35        -0.4860   -1.5480   -2.9630 h1        1 PTI      0.038700
     52 H381       -0.4070   -0.0650   -5.4420 h1        1 PTI      0.039200
     53 H382       -1.0960    1.6040   -5.1980 h1        1 PTI      0.039200
     54 H411        1.3890    1.5440   -5.6700 hc        1 PTI      0.061200
     55 H412        0.9670    2.3870   -4.1220 hc        1 PTI      0.061200
     56 H46         1.7030   -1.9680   -1.4760 ha        1 PTI      0.141000
     57 H48         4.1700   -1.9540   -1.8490 ha        1 PTI      0.135000
     58 H51         3.6970    1.1770   -4.8100 ha        1 PTI      0.150000
     59 H53         5.8640   -0.9530   -3.0310 ho        1 PTI      0.419000
     60 H56        -3.0470    1.7600   -2.3470 ha        1 PTI      0.138500
     61 H58        -5.4450    1.1420   -2.5090 ha        1 PTI      0.131000
     62 H60        -6.1460   -0.8830   -3.7880 ha        1 PTI      0.131000
     63 H62        -4.4260   -2.2960   -4.9140 ha        1 PTI      0.131000
     64 H64        -2.0250   -1.7000   -4.7710 ha        1 PTI      0.138500
@<TRIPOS>BOND
     1    1    2 1   
     2    1    4 1   
     3    1   33 1   
     4    1   34 1   
     5    2    3 1   
     6    2   35 1   
     7    2   36 1   
     8    3    5 1   
     9    3   37 1   
    10    3   38 1   
    11    4    6 1   
    12    4    7 1   
    13    5    6 1   
    14    5   39 1   
    15    5   40 1   
    16    6   41 1   
    17    6   42 1   
    18    7    8 1   
    19    7   43 1   
    20    7   44 1   
    21    8    9 1   
    22    8   45 1   
    23    8   46 1   
    24    9   10 1   
    25   10   11 ar  
    26   10   15 ar  
    27   11   12 ar  
    28   11   47 1   
    29   12   13 ar  
    30   12   48 1   
    31   13   14 ar  
    32   13   16 1   
    33   14   15 ar  
    34   14   49 1   
    35   15   50 1   
    36   16   17 1   
    37   16   21 1   
    38   16   51 1   
    39   17   18 1   
    40   17   27 1   
    41   18   19 1   
    42   18   52 1   
    43   18   53 1   
    44   19   20 1   
    45   19   54 1   
    46   19   55 1   
    47   20   21 ar  
    48   20   25 ar  
    49   21   22 ar  
    50   22   23 ar  
    51   22   56 1   
    52   23   24 ar  
    53   23   57 1   
    54   24   25 ar  
    55   24   26 1   
    56   25   58 1   
    57   26   59 1   
    58   27   28 ar  
    59   27   32 ar  
    60   28   29 ar  
    61   28   60 1   
    62   29   30 ar  
    63   29   61 1   
    64   30   31 ar  
    65   30   62 1   
    66   31   32 ar  
    67   31   63 1   
    68   32   64 1   
@<TRIPOS>SUBSTRUCTURE
     1 PTI         1 TEMP              0 ****  ****    0 ROOT
