@<TRIPOS>MOLECULE
PTJ
   58    60     1     0     0
SMALL
bcc


@<TRIPOS>ATOM
      1 O15        -0.6350    2.6820   -1.1710 o         1 PTJ     -0.933833
      2 P1         -0.2550    2.1930    0.2110 p5        1 PTJ      1.326900
      3 O16        -0.8510    2.9250    1.3790 o         1 PTJ     -0.933833
      4 O17        -0.1350    0.7000    0.3470 o         1 PTJ     -0.933833
      5 O14         1.4100    2.7100    0.2090 os        1 PTJ     -0.564200
      6 C16         2.1000    2.3110   -0.9030 c3        1 PTJ      0.243400
      7 C13         2.6290    3.4990   -1.7760 c3        1 PTJ     -0.113000
      8 C14         1.9850    4.8110   -1.3760 c3        1 PTJ     -0.081100
      9 C15         4.1370    3.6090   -1.6070 c3        1 PTJ     -0.081100
     10 C12         2.3170    3.1780   -3.2550 c3        1 PTJ      0.151100
     11 O13         0.9530    3.2460   -3.5940 oh        1 PTJ     -0.654800
     12 C11         3.0550    4.1180   -4.1970 c         1 PTJ      0.685100
     13 O12         2.9220    5.3230   -4.4600 o         1 PTJ     -0.608000
     14 O11         4.0660    3.5720   -4.9180 os        1 PTJ     -0.565500
     15 P           4.8480    4.5970   -5.9490 p5        1 PTJ      1.479800
     16 O1P         5.7650    5.5360   -5.2570 o         1 PTJ     -0.846000
     17 O2P         4.1120    4.9090   -7.1830 o         1 PTJ     -0.846000
     18 O5'         5.9700    3.4300   -6.4300 os        1 PTJ     -0.552200
     19 C5'         6.9760    3.9010   -7.2490 c3        1 PTJ      0.211400
     20 C4'         8.2760    4.1240   -6.4500 c3        1 PTJ      0.056100
     21 O4'         9.4080    3.7060   -7.2460 os        1 PTJ     -0.422600
     22 C3'         8.5030    5.5870   -6.0180 c3        1 PTJ      0.122100
     23 O3'         8.5010    5.7050   -4.6140 oh        1 PTJ     -0.649800
     24 C2'         9.9060    5.9650   -6.5390 c3        1 PTJ      0.109100
     25 O2'        10.9010    6.0870   -5.5490 oh        1 PTJ     -0.602800
     26 C1'        10.3020    4.7830   -7.4890 c3        1 PTJ      0.212800
     27 N9         10.2730    5.1370   -8.9020 na        1 PTJ     -0.258000
     28 C8          9.1330    5.2780   -9.7260 cc        1 PTJ      0.446700
     29 N7          9.4220    5.5360  -11.0140 nd        1 PTJ     -0.578100
     30 C5         10.8220    5.5540  -11.0730 ca        1 PTJ     -0.211200
     31 C4         11.3800    5.2870   -9.7450 ca        1 PTJ      0.444800
     32 N3         12.7260    5.2210   -9.5020 nb        1 PTJ     -0.708000
     33 C2         13.4690    5.4180  -10.6100 ca        1 PTJ      0.651900
     34 N1         13.0900    5.6710  -11.8960 nb        1 PTJ     -0.804000
     35 C6         11.7450    5.7630  -12.1450 ca        1 PTJ      0.710200
     36 N6         11.2750    6.1150  -13.4050 nh        1 PTJ     -0.936500
     37 H3          1.4610    1.6420   -1.5500 h1        1 PTJ     -0.011300
     38 H4          3.0120    1.7160   -0.5870 h1        1 PTJ     -0.011300
     39 H5          2.1450    4.9860   -0.2850 hc        1 PTJ      0.030533
     40 H6          2.4250    5.6540   -1.9640 hc        1 PTJ      0.030533
     41 H7          0.8830    4.7710   -1.5630 hc        1 PTJ      0.030533
     42 H8          4.3810    3.7580   -0.5280 hc        1 PTJ      0.030533
     43 H9          4.6410    2.6780   -1.9630 hc        1 PTJ      0.030533
     44 H10         4.5410    4.4730   -2.1900 hc        1 PTJ      0.030533
     45 H11         2.6860    2.1340   -3.4860 h1        1 PTJ      0.042700
     46 H12         0.4120    3.1260   -2.7720 ho        1 PTJ      0.514000
     47 H14         7.1860    3.1240   -8.0390 h1        1 PTJ      0.013700
     48 H15         6.6590    4.8590   -7.7520 h1        1 PTJ      0.013700
     49 H16         8.2780    3.4440   -5.5530 h1        1 PTJ      0.101700
     50 H17         7.7260    6.2680   -6.4610 h1        1 PTJ      0.096700
     51 H18         7.5600    5.7160   -4.3410 ho        1 PTJ      0.501000
     52 H19         9.8940    6.9520   -7.0720 h1        1 PTJ      0.075700
     53 H20        10.6030    5.6100   -4.7610 ho        1 PTJ      0.434000
     54 H21        11.3400    4.4060   -7.2520 h2        1 PTJ      0.104700
     55 H22         8.1200    5.1630   -9.3040 h5        1 PTJ      0.107800
     56 H23        14.5680    5.3640  -10.4590 h5        1 PTJ      0.034100
     57 H24        10.3160    5.9070  -13.5690 hn        1 PTJ      0.415800
     58 H25        11.8880    5.9750  -14.1730 hn        1 PTJ      0.415800
@<TRIPOS>BOND
     1    1    2 1   
     2    2    3 1   
     3    2    4 1   
     4    2    5 1   
     5    5    6 1   
     6    6    7 1   
     7    6   37 1   
     8    6   38 1   
     9    7    8 1   
    10    7    9 1   
    11    7   10 1   
    12    8   39 1   
    13    8   40 1   
    14    8   41 1   
    15    9   42 1   
    16    9   43 1   
    17    9   44 1   
    18   10   11 1   
    19   10   12 1   
    20   10   45 1   
    21   11   46 1   
    22   12   13 2   
    23   12   14 1   
    24   14   15 1   
    25   15   16 1   
    26   15   17 1   
    27   15   18 1   
    28   18   19 1   
    29   19   20 1   
    30   19   47 1   
    31   19   48 1   
    32   20   21 1   
    33   20   22 1   
    34   20   49 1   
    35   21   26 1   
    36   22   23 1   
    37   22   24 1   
    38   22   50 1   
    39   23   51 1   
    40   24   25 1   
    41   24   26 1   
    42   24   52 1   
    43   25   53 1   
    44   26   27 1   
    45   26   54 1   
    46   27   28 1   
    47   27   31 1   
    48   28   29 2   
    49   28   55 1   
    50   29   30 1   
    51   30   31 ar  
    52   30   35 ar  
    53   31   32 ar  
    54   32   33 ar  
    55   33   34 ar  
    56   33   56 1   
    57   34   35 ar  
    58   35   36 1   
    59   36   57 1   
    60   36   58 1   
@<TRIPOS>SUBSTRUCTURE
     1 PTJ         1 TEMP              0 ****  ****    0 ROOT
