@<TRIPOS>MOLECULE
PTJ
   58    60     1     0     0
SMALL
bcc


@<TRIPOS>ATOM
      1 O15        -0.6610    2.8320   -1.1570 o         1 PTJ     -0.933833
      2 P1         -0.2880    2.2980    0.2110 p5        1 PTJ      1.326900
      3 O16        -0.8500    3.0230    1.3990 o         1 PTJ     -0.933833
      4 O17        -0.2200    0.8000    0.3120 o         1 PTJ     -0.933833
      5 O14         1.3930    2.7570    0.2080 os        1 PTJ     -0.564200
      6 C16         2.0620    2.3600   -0.9180 c3        1 PTJ      0.243400
      7 C13         2.6260    3.5480   -1.7680 c3        1 PTJ     -0.113000
      8 C14         2.0310    4.8720   -1.3330 c3        1 PTJ     -0.081100
      9 C15         4.1380    3.6010   -1.6080 c3        1 PTJ     -0.081100
     10 C12         2.2930    3.2720   -3.2510 c3        1 PTJ      0.151100
     11 O13         0.9290    3.3960   -3.5780 oh        1 PTJ     -0.654800
     12 C11         3.0570    4.2070   -4.1780 c         1 PTJ      0.686100
     13 O12         2.9660    5.4220   -4.4110 o         1 PTJ     -0.608000
     14 O11         4.0410    3.6420   -4.9200 os        1 PTJ     -0.565500
     15 P           4.8530    4.6620   -5.9330 p5        1 PTJ      1.479800
     16 O1P         5.8090    5.5500   -5.2270 o         1 PTJ     -0.846000
     17 O2P         4.1200    5.0310   -7.1530 o         1 PTJ     -0.846000
     18 O5'         5.9270    3.4660   -6.4510 os        1 PTJ     -0.552200
     19 C5'         6.9440    3.9200   -7.2670 c3        1 PTJ      0.211400
     20 C4'         8.2580    4.0750   -6.4730 c3        1 PTJ      0.056100
     21 O4'         9.3670    3.6350   -7.2890 os        1 PTJ     -0.422600
     22 C3'         8.5410    5.5170   -6.0080 c3        1 PTJ      0.122100
     23 O3'         8.5540    5.6010   -4.6020 oh        1 PTJ     -0.649800
     24 C2'         9.9540    5.8560   -6.5310 c3        1 PTJ      0.109100
     25 O2'        10.9600    5.9170   -5.5460 oh        1 PTJ     -0.602800
     26 C1'        10.2990    4.6840   -7.5130 c3        1 PTJ      0.212800
     27 N9         10.2730    5.0740   -8.9160 na        1 PTJ     -0.258000
     28 C8          9.1330    5.2770   -9.7280 cc        1 PTJ      0.446700
     29 N7          9.4220    5.5560  -11.0110 nd        1 PTJ     -0.578100
     30 C5         10.8220    5.5240  -11.0810 ca        1 PTJ     -0.211200
     31 C4         11.3790    5.2040   -9.7640 ca        1 PTJ      0.444800
     32 N3         12.7230    5.0810   -9.5340 nb        1 PTJ     -0.708000
     33 C2         13.4660    5.2790  -10.6420 ca        1 PTJ      0.651900
     34 N1         13.0870    5.5770  -11.9190 nb        1 PTJ     -0.804000
     35 C6         11.7450    5.7250  -12.1540 ca        1 PTJ      0.710200
     36 N6         11.2780    6.1260  -13.4020 nh        1 PTJ     -0.936500
     37 H3          1.3950    1.7290   -1.5760 h1        1 PTJ     -0.011300
     38 H4          2.9540    1.7260   -0.6220 h1        1 PTJ     -0.011300
     39 H5          2.2050    5.0160   -0.2400 hc        1 PTJ      0.030533
     40 H6          0.9270    4.8750   -1.5120 hc        1 PTJ      0.030533
     41 H7          2.4960    5.7130   -1.9050 hc        1 PTJ      0.030533
     42 H8          4.6070    2.6620   -1.9900 hc        1 PTJ      0.030533
     43 H9          4.5680    4.4630   -2.1750 hc        1 PTJ      0.030533
     44 H10         4.3940    3.7170   -0.5280 hc        1 PTJ      0.030533
     45 H11         2.6230    2.2210   -3.5090 h1        1 PTJ      0.042700
     46 H12         0.3910    3.2760   -2.7550 ho        1 PTJ      0.514000
     47 H14         6.6590    4.9010   -7.7440 h1        1 PTJ      0.013700
     48 H15         7.1200    3.1550   -8.0770 h1        1 PTJ      0.013700
     49 H16         8.2400    3.3730   -5.5930 h1        1 PTJ      0.101700
     50 H17         7.7870    6.2370   -6.4280 h1        1 PTJ      0.096700
     51 H18         7.6160    5.6400   -4.3210 ho        1 PTJ      0.501000
     52 H19         9.9750    6.8560   -7.0390 h1        1 PTJ      0.075700
     53 H20        10.6500    5.4320   -4.7670 ho        1 PTJ      0.434000
     54 H21        11.3240    4.2630   -7.2930 h2        1 PTJ      0.104700
     55 H22         8.1190    5.1890   -9.3000 h5        1 PTJ      0.107800
     56 H23        14.5620    5.1800  -10.5010 h5        1 PTJ      0.034100
     57 H24        10.3120    5.9580  -13.5630 hn        1 PTJ      0.415800
     58 H25        11.8800    5.9820  -14.1780 hn        1 PTJ      0.415800
@<TRIPOS>BOND
     1    1    2 1   
     2    2    3 1   
     3    2    4 1   
     4    2    5 1   
     5    5    6 1   
     6    6    7 1   
     7    6   37 1   
     8    6   38 1   
     9    7    8 1   
    10    7    9 1   
    11    7   10 1   
    12    8   39 1   
    13    8   40 1   
    14    8   41 1   
    15    9   42 1   
    16    9   43 1   
    17    9   44 1   
    18   10   11 1   
    19   10   12 1   
    20   10   45 1   
    21   11   46 1   
    22   12   13 2   
    23   12   14 1   
    24   14   15 1   
    25   15   16 1   
    26   15   17 1   
    27   15   18 1   
    28   18   19 1   
    29   19   20 1   
    30   19   47 1   
    31   19   48 1   
    32   20   21 1   
    33   20   22 1   
    34   20   49 1   
    35   21   26 1   
    36   22   23 1   
    37   22   24 1   
    38   22   50 1   
    39   23   51 1   
    40   24   25 1   
    41   24   26 1   
    42   24   52 1   
    43   25   53 1   
    44   26   27 1   
    45   26   54 1   
    46   27   28 1   
    47   27   31 1   
    48   28   29 2   
    49   28   55 1   
    50   29   30 1   
    51   30   31 ar  
    52   30   35 ar  
    53   31   32 ar  
    54   32   33 ar  
    55   33   34 ar  
    56   33   56 1   
    57   34   35 ar  
    58   35   36 1   
    59   36   57 1   
    60   36   58 1   
@<TRIPOS>SUBSTRUCTURE
     1 PTJ         1 TEMP              0 ****  ****    0 ROOT
