@<TRIPOS>MOLECULE
PTJ
   58    60     1     0     0
SMALL
bcc


@<TRIPOS>ATOM
      1 O15        -0.5640    2.9010   -1.0680 o         1 PTJ     -0.932833
      2 P1         -0.1890    2.3440    0.2910 p5        1 PTJ      1.326900
      3 O16        -0.6270    3.1440    1.4840 o         1 PTJ     -0.932833
      4 O17        -0.2790    0.8490    0.4110 o         1 PTJ     -0.932833
      5 O14         1.5290    2.6170    0.2350 os        1 PTJ     -0.564200
      6 C16         2.1100    2.2430   -0.9460 c3        1 PTJ      0.242400
      7 C13         2.6200    3.4550   -1.7990 c3        1 PTJ     -0.112000
      8 C14         1.9210    4.7320   -1.3710 c3        1 PTJ     -0.093600
      9 C15         4.1220    3.6010   -1.6300 c3        1 PTJ     -0.093600
     10 C12         2.3090    3.1460   -3.2800 c3        1 PTJ      0.151100
     11 O13         0.9430    3.2130   -3.6160 oh        1 PTJ     -0.650800
     12 C11         3.0490    4.0880   -4.2180 c         1 PTJ      0.682100
     13 O12         2.8970    5.2860   -4.5030 o         1 PTJ     -0.608000
     14 O11         4.0810    3.5490   -4.9160 os        1 PTJ     -0.566500
     15 P           4.8500    4.5680   -5.9620 p5        1 PTJ      1.479800
     16 O1P         5.7470    5.5400   -5.2880 o         1 PTJ     -0.846500
     17 O2P         4.1140    4.8380   -7.2060 o         1 PTJ     -0.846500
     18 O5'         5.9960    3.4120   -6.4120 os        1 PTJ     -0.552200
     19 C5'         6.9990    3.8840   -7.2350 c3        1 PTJ      0.211400
     20 C4'         8.2890    4.1480   -6.4330 c3        1 PTJ      0.056100
     21 O4'         9.4340    3.7330   -7.2130 os        1 PTJ     -0.423600
     22 C3'         8.4870    5.6240   -6.0320 c3        1 PTJ      0.122100
     23 O3'         8.4740    5.7730   -4.6320 oh        1 PTJ     -0.649800
     24 C2'         9.8860    6.0160   -6.5530 c3        1 PTJ      0.109100
     25 O2'        10.8720    6.1790   -5.5610 oh        1 PTJ     -0.603800
     26 C1'        10.3090    4.8210   -7.4740 c3        1 PTJ      0.212800
     27 N9         10.2820    5.1420   -8.8950 na        1 PTJ     -0.258000
     28 C8          9.1450    5.2470   -9.7290 cc        1 PTJ      0.446700
     29 N7          9.4370    5.4800  -11.0200 nd        1 PTJ     -0.578100
     30 C5         10.8370    5.5200  -11.0720 ca        1 PTJ     -0.211200
     31 C4         11.3920    5.2910   -9.7360 ca        1 PTJ      0.444800
     32 N3         12.7370    5.2520   -9.4840 nb        1 PTJ     -0.708000
     33 C2         13.4840    5.4360  -10.5920 ca        1 PTJ      0.651900
     34 N1         13.1080    5.6540  -11.8860 nb        1 PTJ     -0.804000
     35 C6         11.7630    5.7190  -12.1430 ca        1 PTJ      0.710200
     36 N6         11.2940    6.0350  -13.4140 nv        1 PTJ     -0.936500
     37 H3          1.3870    1.6430   -1.5710 h1        1 PTJ     -0.012300
     38 H4          3.0130    1.5930   -0.7330 h1        1 PTJ     -0.012300
     39 H5          0.8430    4.4880   -1.1370 hc        1 PTJ      0.035200
     40 H6          2.3900    5.1270   -0.4400 hc        1 PTJ      0.035200
     41 H7          1.9820    5.5030   -2.1750 hc        1 PTJ      0.035200
     42 H8          4.4900    4.5160   -2.1550 hc        1 PTJ      0.035200
     43 H9          4.6540    2.7140   -2.0510 hc        1 PTJ      0.035200
     44 H10         4.3680    3.6840   -0.5440 hc        1 PTJ      0.035200
     45 H11         2.6710    2.1030   -3.5210 h1        1 PTJ      0.044700
     46 H12         0.4080    3.2220   -2.7850 ho        1 PTJ      0.510000
     47 H14         7.2280    3.0940   -8.0070 h1        1 PTJ      0.013200
     48 H15         6.6670    4.8250   -7.7600 h1        1 PTJ      0.013200
     49 H16         8.2970    3.4880   -5.5210 h1        1 PTJ      0.101700
     50 H17         7.7000    6.2800   -6.4950 h1        1 PTJ      0.096700
     51 H18         7.5320    5.7730   -4.3640 ho        1 PTJ      0.502000
     52 H19         9.8590    6.9900   -7.1090 h1        1 PTJ      0.075700
     53 H20        10.5780    5.7160   -4.7630 ho        1 PTJ      0.434000
     54 H21        11.3530    4.4680   -7.2230 h2        1 PTJ      0.104700
     55 H22         8.1320    5.1250   -9.3090 h5        1 PTJ      0.107800
     56 H23        14.5820    5.4030  -10.4340 h5        1 PTJ      0.034100
     57 H24        10.3400    5.8080  -13.5790 hn        1 PTJ      0.415800
     58 H25        11.9140    5.8880  -14.1750 hn        1 PTJ      0.415800
@<TRIPOS>BOND
     1    1    2 1   
     2    2    3 1   
     3    2    4 1   
     4    2    5 1   
     5    5    6 1   
     6    6    7 1   
     7    6   37 1   
     8    6   38 1   
     9    7    8 1   
    10    7    9 1   
    11    7   10 1   
    12    8   39 1   
    13    8   40 1   
    14    8   41 1   
    15    9   42 1   
    16    9   43 1   
    17    9   44 1   
    18   10   11 1   
    19   10   12 1   
    20   10   45 1   
    21   11   46 1   
    22   12   13 2   
    23   12   14 1   
    24   14   15 1   
    25   15   16 1   
    26   15   17 1   
    27   15   18 1   
    28   18   19 1   
    29   19   20 1   
    30   19   47 1   
    31   19   48 1   
    32   20   21 1   
    33   20   22 1   
    34   20   49 1   
    35   21   26 1   
    36   22   23 1   
    37   22   24 1   
    38   22   50 1   
    39   23   51 1   
    40   24   25 1   
    41   24   26 1   
    42   24   52 1   
    43   25   53 1   
    44   26   27 1   
    45   26   54 1   
    46   27   28 1   
    47   27   31 1   
    48   28   29 2   
    49   28   55 1   
    50   29   30 1   
    51   30   31 ar  
    52   30   35 ar  
    53   31   32 ar  
    54   32   33 ar  
    55   33   34 ar  
    56   33   56 1   
    57   34   35 ar  
    58   35   36 1   
    59   36   57 1   
    60   36   58 1   
@<TRIPOS>SUBSTRUCTURE
     1 PTJ         1 TEMP              0 ****  ****    0 ROOT
