@<TRIPOS>MOLECULE
PTK
   38    41     1     0     0
SMALL
bcc


@<TRIPOS>ATOM
      1 OAA         0.2150    0.0690    0.5620 o         1 PTK     -0.762867
      2 OAB         2.4800   -0.3470    1.0440 o         1 PTK     -0.762867
      3 OAC         5.4090    3.2060    1.1010 o         1 PTK     -0.762867
      4 OAD         4.5780    5.3590    0.6450 o         1 PTK     -0.762867
      5 OAE        -3.3490    3.0890   -4.6130 o         1 PTK     -0.762867
      6 OAF        -1.9870    1.9920   -6.1930 o         1 PTK     -0.762867
      7 OAG         2.3760    7.2820   -6.1080 o         1 PTK     -0.762867
      8 OAH         1.0120    8.3800   -4.5290 o         1 PTK     -0.762867
      9 OAI         1.5770   -1.0300   -1.0180 o         1 PTK     -0.762867
     10 OAJ         5.9400    4.2600   -0.9350 o         1 PTK     -0.762867
     11 OAK        -2.8200    4.1450   -6.6470 o         1 PTK     -0.762867
     12 OAL         0.1110    7.6970   -6.5920 o         1 PTK     -0.762867
     13 CAM         3.0870    2.1560   -0.1720 ca        1 PTK      0.012000
     14 CAN        -0.4970    5.1940   -5.3750 ca        1 PTK      0.012000
     15 CAO         0.0820    1.4910   -2.3010 ca        1 PTK     -0.126000
     16 CAP        -0.6110    2.0780   -3.3060 ca        1 PTK     -0.126000
     17 CAQ         3.2010    5.2720   -2.2410 ca        1 PTK     -0.126000
     18 CAR         2.5080    5.8590   -3.2470 ca        1 PTK     -0.126000
     19 CAS         1.9670    1.4900   -0.6750 ca        1 PTK     -0.314500
     20 CAT         3.5350    3.3920   -0.6450 ca        1 PTK     -0.314500
     21 CAU        -0.9450    3.9580   -4.9020 ca        1 PTK     -0.314500
     22 CAV         0.6240    5.8600   -4.8720 ca        1 PTK     -0.314500
     23 CAW         1.2520    2.1040   -1.7190 ca        1 PTK      0.075000
     24 CAX         2.8120    3.9970   -1.6890 ca        1 PTK      0.075000
     25 CAY        -0.2220    3.3530   -3.8580 ca        1 PTK      0.075000
     26 CAZ         1.3390    5.2460   -3.8280 ca        1 PTK      0.075000
     27 CBA         1.6640    3.3620   -2.2380 ca        1 PTK     -0.062000
     28 CBB         0.9260    3.9880   -3.3090 ca        1 PTK     -0.062000
     29 SBC         1.5290   -0.0530    0.0210 s6        1 PTK      1.447100
     30 SBD         4.9560    4.1020    0.0860 s6        1 PTK      1.447100
     31 SBE        -2.3660    3.2480   -5.6340 s6        1 PTK      1.447100
     32 SBF         1.0610    7.4040   -5.5680 s6        1 PTK      1.447100
     33 HAM         3.6550    1.6750    0.6520 ha        1 PTK      0.167000
     34 HAN        -1.0650    5.6750   -6.1990 ha        1 PTK      0.167000
     35 HAO        -0.2300    0.5140   -1.8910 ha        1 PTK      0.148000
     36 HAP        -1.5030    1.5930   -3.7390 ha        1 PTK      0.148000
     37 HAQ         4.0940    5.7570   -1.8080 ha        1 PTK      0.148000
     38 HAR         2.8200    6.8360   -3.6560 ha        1 PTK      0.148000
@<TRIPOS>BOND
     1    1   29 1   
     2    2   29 1   
     3    3   30 1   
     4    4   30 1   
     5    5   31 1   
     6    6   31 1   
     7    7   32 1   
     8    8   32 1   
     9    9   29 1   
    10   10   30 1   
    11   11   31 1   
    12   12   32 1   
    13   13   19 ar  
    14   13   20 ar  
    15   13   33 1   
    16   14   21 ar  
    17   14   22 ar  
    18   14   34 1   
    19   15   16 ar  
    20   15   23 ar  
    21   15   35 1   
    22   16   25 ar  
    23   16   36 1   
    24   17   18 ar  
    25   17   24 ar  
    26   17   37 1   
    27   18   26 ar  
    28   18   38 1   
    29   19   23 ar  
    30   19   29 1   
    31   20   24 ar  
    32   20   30 1   
    33   21   25 ar  
    34   21   31 1   
    35   22   26 ar  
    36   22   32 1   
    37   23   27 ar  
    38   24   27 ar  
    39   25   28 ar  
    40   26   28 ar  
    41   27   28 ar  
@<TRIPOS>SUBSTRUCTURE
     1 PTK         1 TEMP              0 ****  ****    0 ROOT
