@<TRIPOS>MOLECULE
PTL
   16    15     1     0     0
SMALL
bcc


@<TRIPOS>ATOM
      1 C1         -0.1740   -0.3670   -1.9360 c         1 PTL      0.564900
      2 O1          0.1620    0.0730   -3.0360 o         1 PTL     -0.528100
      3 C2          0.5890   -0.0880   -0.6790 c3        1 PTL     -0.204400
      4 C3         -0.3010   -0.1440    0.5420 c3        1 PTL     -0.076400
      5 C4          0.4900    0.1140    1.8070 c3        1 PTL     -0.079400
      6 C5         -0.3910    0.0610    3.0280 c3        1 PTL     -0.094100
      7 H1         -1.0730   -1.0150   -1.8200 h4        1 PTL     -0.006800
      8 H21         1.0870    0.9160   -0.7500 hc        1 PTL      0.073700
      9 H22         1.4050   -0.8560   -0.5940 hc        1 PTL      0.073700
     10 H31        -0.7940   -1.1500    0.6070 hc        1 PTL      0.043700
     11 H32        -1.1180    0.6200    0.4490 hc        1 PTL      0.043700
     12 H41         0.9830    1.1200    1.7400 hc        1 PTL      0.041700
     13 H42         1.3080   -0.6490    1.8980 hc        1 PTL      0.041700
     14 H51         0.2120    0.2540    3.9490 hc        1 PTL      0.035033
     15 H52        -1.1970    0.8310    2.9670 hc        1 PTL      0.035033
     16 H53        -0.8720   -0.9420    3.1260 hc        1 PTL      0.035033
@<TRIPOS>BOND
     1    1    2 2   
     2    1    3 1   
     3    1    7 1   
     4    3    4 1   
     5    3    8 1   
     6    3    9 1   
     7    4    5 1   
     8    4   10 1   
     9    4   11 1   
    10    5    6 1   
    11    5   12 1   
    12    5   13 1   
    13    6   14 1   
    14    6   15 1   
    15    6   16 1   
@<TRIPOS>SUBSTRUCTURE
     1 PTL         1 TEMP              0 ****  ****    0 ROOT
