@<TRIPOS>MOLECULE
PTL
   16    15     1     0     0
SMALL
bcc


@<TRIPOS>ATOM
      1 C1          0.0320   -0.0010    0.0110 c         1 PTL      0.564900
      2 O1          1.1330   -0.5380   -0.1120 o         1 PTL     -0.528100
      3 C2         -0.7100    0.0500    1.3110 c3        1 PTL     -0.204400
      4 C3         -1.6320    1.2460    1.3850 c3        1 PTL     -0.076400
      5 C4         -2.3930    1.2680    2.6940 c3        1 PTL     -0.079400
      6 C5         -3.3130    2.4580    2.7760 c3        1 PTL     -0.094100
      7 H1         -0.4830    0.4740   -0.8550 h4        1 PTL     -0.006800
      8 H21         0.0190    0.0690    2.1650 hc        1 PTL      0.073700
      9 H22        -1.3040   -0.8990    1.4050 hc        1 PTL      0.073700
     10 H31        -1.0340    2.1900    1.2840 hc        1 PTL      0.043700
     11 H32        -2.3580    1.2200    0.5300 hc        1 PTL      0.043700
     12 H41        -1.6660    1.2940    3.5480 hc        1 PTL      0.041700
     13 H42        -2.9890    0.3230    2.7960 hc        1 PTL      0.041700
     14 H51        -4.0610    2.4370    1.9460 hc        1 PTL      0.035033
     15 H52        -2.7350    3.4110    2.7010 hc        1 PTL      0.035033
     16 H53        -3.8640    2.4560    3.7470 hc        1 PTL      0.035033
@<TRIPOS>BOND
     1    1    2 2   
     2    1    3 1   
     3    1    7 1   
     4    3    4 1   
     5    3    8 1   
     6    3    9 1   
     7    4    5 1   
     8    4   10 1   
     9    4   11 1   
    10    5    6 1   
    11    5   12 1   
    12    5   13 1   
    13    6   14 1   
    14    6   15 1   
    15    6   16 1   
@<TRIPOS>SUBSTRUCTURE
     1 PTL         1 TEMP              0 ****  ****    0 ROOT
