@<TRIPOS>MOLECULE
PTM
   29    28     1     0     0
SMALL
bcc


@<TRIPOS>ATOM
      1 N           0.7590    0.6780   -3.1290 n3        1 PTM     -0.335000
      2 CA          0.8810    1.0590   -1.7200 c3        1 PTM     -0.049000
      3 CH3         2.2100    1.7780   -1.4760 c3        1 PTM     -0.171000
      4 C           0.8140   -0.2150   -0.8010 c2        1 PTM      0.335000
      5 O          -0.0320   -1.1190   -1.0770 o         1 PTM     -0.607000
      6 CB         -0.2690    1.9890   -1.2400 c3        1 PTM     -0.101000
      7 CG         -0.5460    3.1810   -2.0820 ca        1 PTM     -0.257000
      8 CD1         0.0490    4.4260   -1.8120 ca        1 PTM     -0.070000
      9 CD2        -1.4730    3.1290   -3.1350 ca        1 PTM     -0.070000
     10 CE1        -0.2670    5.5610   -2.5280 ca        1 PTM     -0.327500
     11 CE2        -1.8090    4.2460   -3.8720 ca        1 PTM     -0.327500
     12 CZ         -1.2290    5.5330   -3.5960 ca        1 PTM      0.315000
     13 OH         -1.5560    6.5750   -4.2660 o         1 PTM     -0.611000
     14 P          -1.8170    8.6670   -4.9110 p3        1 PTM      2.530000
     15 O1P        -3.2360    8.8390   -4.5140 o         1 PTM     -1.188333
     16 O2P        -0.7820    9.3250   -4.0770 o         1 PTM     -1.188333
     17 O3P        -1.5250    8.4820   -6.3540 o         1 PTM     -1.188333
     18 OXT         1.5880   -0.2980    0.1980 o         1 PTM     -0.607000
     19 H           0.0760   -0.0570   -3.1900 hn        1 PTM      0.132500
     20 H2          0.4150    1.4680   -3.6460 hn        1 PTM      0.132500
     21 HC31        3.0660    1.1640   -1.8440 hc        1 PTM      0.056333
     22 HC32        2.3370    1.9320   -0.3780 hc        1 PTM      0.056333
     23 HC33        2.2180    2.7690   -1.9910 hc        1 PTM      0.056333
     24 HB2        -1.1980    1.3600   -1.1740 hc        1 PTM      0.061500
     25 HB3        -0.0130    2.3160   -0.1980 hc        1 PTM      0.061500
     26 HD1         0.7880    4.4870   -0.9970 ha        1 PTM      0.073500
     27 HD2        -1.9500    2.1630   -3.3680 ha        1 PTM      0.073500
     28 HE1         0.2050    6.5250   -2.3000 ha        1 PTM      0.106500
     29 HE2        -2.5370    4.1810   -4.6890 ha        1 PTM      0.106500
@<TRIPOS>BOND
     1    1    2 1   
     2    1   19 1   
     3    1   20 1   
     4    2    3 1   
     5    2    4 1   
     6    2    6 1   
     7    3   21 1   
     8    3   22 1   
     9    3   23 1   
    10    4    5 1   
    11    4   18 1   
    12    6    7 1   
    13    6   24 1   
    14    6   25 1   
    15    7    8 1   
    16    7    9 1   
    17    8   10 1   
    18    8   26 1   
    19    9   11 1   
    20    9   27 1   
    21   10   12 1   
    22   10   28 1   
    23   11   12 1   
    24   11   29 1   
    25   12   13 1   
    26   14   15 1   
    27   14   16 1   
    28   14   17 1   
@<TRIPOS>SUBSTRUCTURE
     1 PTM         1 TEMP              0 ****  ****    0 ROOT
