@<TRIPOS>MOLECULE
PTO
   25    26     1     0     0
SMALL
bcc


@<TRIPOS>ATOM
      1 C1         -0.0350   -0.0590    0.0400 c3        1 PTO      0.157500
      2 C2          1.4990   -0.0790   -0.0140 c3        1 PTO     -0.083400
      3 C3          2.1000    0.0200    1.3920 c3        1 PTO      0.149100
      4 C4          1.3540    0.9860    2.3180 c3        1 PTO     -0.083400
      5 C5         -0.1650    0.8880    2.1170 c3        1 PTO      0.157500
      6 C6         -0.6180   -0.5830    2.3440 c3        1 PTO     -0.110900
      7 C7         -0.5310   -1.2170    0.9540 c3        1 PTO     -0.110900
      8 N8         -0.4580    1.2030    0.6960 n3        1 PTO     -0.689600
      9 C9         -1.8340    1.5540    0.4510 c3        1 PTO      0.143100
     10 O3          3.4500    0.4330    1.2140 oh        1 PTO     -0.600800
     11 H1         -0.4580   -0.1370   -0.9940 h1        1 PTO      0.065700
     12 H21         1.8740    0.7740   -0.6350 hc        1 PTO      0.056450
     13 H22         1.8390   -1.0310   -0.4940 hc        1 PTO      0.056450
     14 H3          2.0990   -1.0060    1.8650 h1        1 PTO      0.023700
     15 H41         1.6960    2.0330    2.1130 hc        1 PTO      0.056450
     16 H42         1.5960    0.7450    3.3840 hc        1 PTO      0.056450
     17 H5         -0.6940    1.5970    2.8040 h1        1 PTO      0.065700
     18 H61        -1.6630   -0.6110    2.7360 hc        1 PTO      0.048200
     19 H62         0.0440   -1.0970    3.0790 hc        1 PTO      0.048200
     20 H71         0.1780   -2.0770    0.9320 hc        1 PTO      0.048200
     21 H72        -1.5310   -1.5790    0.6140 hc        1 PTO      0.048200
     22 H91        -1.9620    1.7440   -0.6480 h1        1 PTO      0.033367
     23 H92        -2.0660    2.4990    1.0090 h1        1 PTO      0.033367
     24 H93        -2.5710    0.7640    0.7640 h1        1 PTO      0.033367
     25 HO3         3.8170    0.5760    2.0940 ho        1 PTO      0.397000
@<TRIPOS>BOND
     1    1    2 1   
     2    1    7 1   
     3    1    8 1   
     4    1   11 1   
     5    2    3 1   
     6    2   12 1   
     7    2   13 1   
     8    3    4 1   
     9    3   10 1   
    10    3   14 1   
    11    4    5 1   
    12    4   15 1   
    13    4   16 1   
    14    5    6 1   
    15    5    8 1   
    16    5   17 1   
    17    6    7 1   
    18    6   18 1   
    19    6   19 1   
    20    7   20 1   
    21    7   21 1   
    22    8    9 1   
    23    9   22 1   
    24    9   23 1   
    25    9   24 1   
    26   10   25 1   
@<TRIPOS>SUBSTRUCTURE
     1 PTO         1 TEMP              0 ****  ****    0 ROOT
