@<TRIPOS>MOLECULE
PTO
   25    26     1     0     0
SMALL
bcc


@<TRIPOS>ATOM
      1 C1          0.6340   -1.1410    0.0200 c3        1 PTO      0.157500
      2 C2         -0.8690   -1.2830    0.2990 c3        1 PTO     -0.083400
      3 C3         -1.6220   -0.0050   -0.0820 c3        1 PTO      0.149100
      4 C4         -0.8710    1.2840    0.2680 c3        1 PTO     -0.083400
      5 C5          0.6320    1.1450   -0.0080 c3        1 PTO      0.157500
      6 C6          0.8440    0.7500   -1.4980 c3        1 PTO     -0.110900
      7 C7          0.8460   -0.7810   -1.4790 c3        1 PTO     -0.110900
      8 N8          1.1420    0.0130    0.8040 n3        1 PTO     -0.689600
      9 C9          2.5740    0.0170    0.9730 c3        1 PTO      0.143100
     10 O3         -2.8690   -0.0650    0.6030 oh        1 PTO     -0.600800
     11 H1          1.1690   -2.0840    0.3000 h1        1 PTO      0.065700
     12 H21        -1.2740   -2.1400   -0.2940 hc        1 PTO      0.056450
     13 H22        -1.0400   -1.5020    1.3850 hc        1 PTO      0.056450
     14 H3         -1.8220   -0.0150   -1.1930 h1        1 PTO      0.023700
     15 H41        -1.0370    1.5260    1.3500 hc        1 PTO      0.056450
     16 H42        -1.2760    2.1310   -0.3420 hc        1 PTO      0.056450
     17 H5          1.1630    2.0970    0.2490 h1        1 PTO      0.065700
     18 H61         0.0300    1.1570   -2.1410 hc        1 PTO      0.048200
     19 H62         1.8180    1.1490   -1.8710 hc        1 PTO      0.048200
     20 H71         0.0330   -1.2070   -2.1110 hc        1 PTO      0.048200
     21 H72         1.8210   -1.1870   -1.8420 hc        1 PTO      0.048200
     22 H91         2.8620    0.9360    1.5470 h1        1 PTO      0.033367
     23 H92         2.8640   -0.8870    1.5700 h1        1 PTO      0.033367
     24 H93         3.1480    0.0040    0.0060 h1        1 PTO      0.033367
     25 HO3        -3.3190    0.7710    0.4340 ho        1 PTO      0.397000
@<TRIPOS>BOND
     1    1    2 1   
     2    1    7 1   
     3    1    8 1   
     4    1   11 1   
     5    2    3 1   
     6    2   12 1   
     7    2   13 1   
     8    3    4 1   
     9    3   10 1   
    10    3   14 1   
    11    4    5 1   
    12    4   15 1   
    13    4   16 1   
    14    5    6 1   
    15    5    8 1   
    16    5   17 1   
    17    6    7 1   
    18    6   18 1   
    19    6   19 1   
    20    7   20 1   
    21    7   21 1   
    22    8    9 1   
    23    9   22 1   
    24    9   23 1   
    25    9   24 1   
    26   10   25 1   
@<TRIPOS>SUBSTRUCTURE
     1 PTO         1 TEMP              0 ****  ****    0 ROOT
