@<TRIPOS>MOLECULE
PTO
   25    26     1     0     0
SMALL
bcc


@<TRIPOS>ATOM
      1 C1          0.0160   -0.0670    0.0830 c3        1 PTO      0.157500
      2 C2          1.5510   -0.0590    0.1030 c3        1 PTO     -0.083400
      3 C3          2.0870    0.0810    1.5320 c3        1 PTO      0.149100
      4 C4          1.2860    1.0540    2.4020 c3        1 PTO     -0.083400
      5 C5         -0.2200    0.9240    2.1310 c3        1 PTO      0.157500
      6 C6         -0.6600   -0.5490    2.3710 c3        1 PTO     -0.110900
      7 C7         -0.5020   -1.2130    1.0000 c3        1 PTO     -0.110900
      8 N8         -0.4550    1.2020    0.6920 n3        1 PTO     -0.689600
      9 C9         -1.8250    1.5250    0.3770 c3        1 PTO      0.143100
     10 O3          3.4240    0.5710    1.5230 oh        1 PTO     -0.600800
     11 H1         -0.3580   -0.1740   -0.9670 h1        1 PTO      0.065700
     12 H21         1.9330    0.7920   -0.5190 hc        1 PTO      0.056450
     13 H22         1.9250   -1.0130   -0.3460 hc        1 PTO      0.056450
     14 H3          2.0820   -0.9380    2.0200 h1        1 PTO      0.023700
     15 H41         1.6260    2.1010    2.1940 hc        1 PTO      0.056450
     16 H42         1.4860    0.8340    3.4810 hc        1 PTO      0.056450
     17 H5         -0.7910    1.6390    2.7770 h1        1 PTO      0.065700
     18 H61        -1.7210   -0.5860    2.7160 hc        1 PTO      0.048200
     19 H62        -0.0230   -1.0360    3.1450 hc        1 PTO      0.048200
     20 H71         0.2210   -2.0610    1.0300 hc        1 PTO      0.048200
     21 H72        -1.4790   -1.5990    0.6250 hc        1 PTO      0.048200
     22 H91        -1.9070    1.6870   -0.7300 h1        1 PTO      0.033367
     23 H92        -2.0950    2.4780    0.9030 h1        1 PTO      0.033367
     24 H93        -2.5620    0.7300    0.6770 h1        1 PTO      0.033367
     25 HO3         3.9210    0.0130    0.9150 ho        1 PTO      0.397000
@<TRIPOS>BOND
     1    1    2 1   
     2    1    7 1   
     3    1    8 1   
     4    1   11 1   
     5    2    3 1   
     6    2   12 1   
     7    2   13 1   
     8    3    4 1   
     9    3   10 1   
    10    3   14 1   
    11    4    5 1   
    12    4   15 1   
    13    4   16 1   
    14    5    6 1   
    15    5    8 1   
    16    5   17 1   
    17    6    7 1   
    18    6   18 1   
    19    6   19 1   
    20    7   20 1   
    21    7   21 1   
    22    8    9 1   
    23    9   22 1   
    24    9   23 1   
    25    9   24 1   
    26   10   25 1   
@<TRIPOS>SUBSTRUCTURE
     1 PTO         1 TEMP              0 ****  ****    0 ROOT
