@<TRIPOS>MOLECULE
PTO
   25    26     1     0     0
SMALL
bcc


@<TRIPOS>ATOM
      1 C1         -0.0920   -0.1760    0.0950 c3        1 PTO      0.157500
      2 C2          1.4370   -0.2530   -0.0140 c3        1 PTO     -0.083400
      3 C3          2.0990   -0.0190    1.3480 c3        1 PTO      0.149100
      4 C4          1.4200    1.0680    2.1870 c3        1 PTO     -0.083400
      5 C5         -0.1080    1.0000    2.0560 c3        1 PTO      0.157500
      6 C6         -0.5940   -0.4200    2.4640 c3        1 PTO     -0.110900
      7 C7         -0.5840   -1.2080    1.1510 c3        1 PTO     -0.110900
      8 N8         -0.4500    1.1650    0.6210 n3        1 PTO     -0.689600
      9 C9         -1.8250    1.5330    0.3900 c3        1 PTO      0.143100
     10 O3          3.4520    0.3260    1.0730 oh        1 PTO     -0.600800
     11 H1         -0.5590   -0.3540   -0.9070 h1        1 PTO      0.065700
     12 H21         1.8110    0.5130   -0.7420 hc        1 PTO      0.056450
     13 H22         1.7290   -1.2630   -0.3970 hc        1 PTO      0.056450
     14 H3          2.0870   -0.9860    1.9320 h1        1 PTO      0.023700
     15 H41         1.7840    2.0740    1.8530 hc        1 PTO      0.056450
     16 H42         1.6990    0.9390    3.2640 hc        1 PTO      0.056450
     17 H5         -0.5870    1.7980    2.6790 h1        1 PTO      0.065700
     18 H61         0.0830   -0.8720    3.2260 hc        1 PTO      0.048200
     19 H62        -1.6220   -0.3700    2.8960 hc        1 PTO      0.048200
     20 H71        -1.6070   -1.5720    0.8920 hc        1 PTO      0.048200
     21 H72         0.0990   -2.0880    1.1990 hc        1 PTO      0.048200
     22 H91        -1.9930    1.6030   -0.7170 h1        1 PTO      0.033367
     23 H92        -2.0050    2.5410    0.8470 h1        1 PTO      0.033367
     24 H93        -2.5700    0.8080    0.8190 h1        1 PTO      0.033367
     25 HO3         3.8580    0.5540    1.9170 ho        1 PTO      0.397000
@<TRIPOS>BOND
     1    1    2 1   
     2    1    7 1   
     3    1    8 1   
     4    1   11 1   
     5    2    3 1   
     6    2   12 1   
     7    2   13 1   
     8    3    4 1   
     9    3   10 1   
    10    3   14 1   
    11    4    5 1   
    12    4   15 1   
    13    4   16 1   
    14    5    6 1   
    15    5    8 1   
    16    5   17 1   
    17    6    7 1   
    18    6   18 1   
    19    6   19 1   
    20    7   20 1   
    21    7   21 1   
    22    8    9 1   
    23    9   22 1   
    24    9   23 1   
    25    9   24 1   
    26   10   25 1   
@<TRIPOS>SUBSTRUCTURE
     1 PTO         1 TEMP              0 ****  ****    0 ROOT
