@<TRIPOS>MOLECULE
PTP
   37    38     1     0     0
SMALL
bcc


@<TRIPOS>ATOM
      1 N1         -0.4840   -0.2410    2.5890 n         1 PTP     -0.348000
      2 C2         -1.1550    0.0990    3.7780 c         1 PTP      0.782500
      3 O2         -2.3960   -0.0130    3.9590 o         1 PTP     -0.715500
      4 N3         -0.3990    0.5890    4.8650 n         1 PTP     -0.606500
      5 C4          1.0040    0.6910    4.8370 c         1 PTP      0.712700
      6 O4          1.5530    1.1430    5.8770 o         1 PTP     -0.761500
      7 C5          1.6450    0.2510    3.6150 cc        1 PTP     -0.348400
      8 C5M         3.1190    0.2810    3.5350 c3        1 PTP     -0.031900
      9 C6          0.8930   -0.2030    2.5460 cd        1 PTP      0.101600
     10 C1'        -1.3220   -0.6710    1.4300 c3        1 PTP      0.309500
     11 C2'        -1.7070    0.4580    0.4610 c3        1 PTP     -0.156400
     12 C3'        -1.6210   -0.1880   -0.9530 c3        1 PTP      0.214100
     13 O3'        -2.8340   -0.6690   -1.3760 os        1 PTP     -0.567200
     14 P3'        -3.7930    0.3400   -2.4160 p5        1 PTP      1.321900
     15 O13        -2.7830    1.0250   -3.2990 o         1 PTP     -0.941500
     16 O23        -4.6970   -0.6530   -3.1020 o         1 PTP     -0.941500
     17 O33        -4.4830    1.2500   -1.4300 o         1 PTP     -0.941500
     18 C4'        -0.6090   -1.3530   -0.7160 c3        1 PTP      0.087100
     19 O4'        -0.6530   -1.6840    0.6980 os        1 PTP     -0.418600
     20 C5'         0.8330   -1.0210   -1.1390 c3        1 PTP      0.201400
     21 O5'         1.6480   -2.1350   -1.1020 os        1 PTP     -0.583200
     22 P5'         3.2300   -1.9240   -0.4920 p5        1 PTP      1.351900
     23 O15         2.9900   -1.0520    0.7310 o         1 PTP     -0.942500
     24 O25         3.6890   -3.3250   -0.1880 o         1 PTP     -0.942500
     25 O35         3.9890   -1.2290   -1.5910 o         1 PTP     -0.942500
     26 HN3        -0.9010    0.8520    5.6790 hn        1 PTP      0.300500
     27 H5M1        3.4910    1.3340    3.6040 hc        1 PTP      0.045033
     28 H5M2        3.5660   -0.2920    4.3850 hc        1 PTP      0.045033
     29 H5M3        3.4530   -0.1740    2.5540 hc        1 PTP      0.045033
     30 H6          1.4240   -0.5940    1.5910 h4        1 PTP      0.334000
     31 H1'        -2.2380   -1.1500    1.8920 h2        1 PTP      0.066700
     32 H2'1       -2.7440    0.8150    0.6720 hc        1 PTP      0.059200
     33 H2'2       -1.0000    1.3180    0.5210 hc        1 PTP      0.059200
     34 H3'        -1.2200    0.5580   -1.6960 h1        1 PTP      0.069700
     35 H4'        -0.9560   -2.2930   -1.2200 h1        1 PTP      0.071700
     36 H5'1        0.7590   -0.6330   -2.1990 h1        1 PTP      0.004200
     37 H5'2        1.2440   -0.2040   -0.4810 h1        1 PTP      0.004200
@<TRIPOS>BOND
     1    1    2 1   
     2    1    9 1   
     3    1   10 1   
     4    2    3 2   
     5    2    4 1   
     6    4    5 1   
     7    4   26 1   
     8    5    6 2   
     9    5    7 1   
    10    7    8 1   
    11    7    9 2   
    12    8   27 1   
    13    8   28 1   
    14    8   29 1   
    15    9   30 1   
    16   10   11 1   
    17   10   19 1   
    18   10   31 1   
    19   11   12 1   
    20   11   32 1   
    21   11   33 1   
    22   12   13 1   
    23   12   18 1   
    24   12   34 1   
    25   13   14 1   
    26   14   15 1   
    27   14   16 1   
    28   14   17 1   
    29   18   19 1   
    30   18   20 1   
    31   18   35 1   
    32   20   21 1   
    33   20   36 1   
    34   20   37 1   
    35   21   22 1   
    36   22   23 1   
    37   22   24 1   
    38   22   25 1   
@<TRIPOS>SUBSTRUCTURE
     1 PTP         1 TEMP              0 ****  ****    0 ROOT
