@<TRIPOS>MOLECULE
PTP
   37    38     1     0     0
SMALL
bcc


@<TRIPOS>ATOM
      1 N1          0.3710    0.5550   -0.2480 n         1 PTP     -0.348000
      2 C2          0.6940    1.4620    0.7790 c         1 PTP      0.782500
      3 O2          0.6240    2.7160    0.6780 o         1 PTP     -0.715500
      4 N3          1.1150    0.9510    2.0260 n         1 PTP     -0.606500
      5 C4          1.1630   -0.4270    2.3110 c         1 PTP      0.712700
      6 O4          1.5560   -0.7450    3.4650 o         1 PTP     -0.761500
      7 C5          0.7430   -1.3080    1.2420 cc        1 PTP     -0.348400
      8 C5M         0.7190   -2.7630    1.4880 c3        1 PTP     -0.031900
      9 C6          0.3570   -0.7980    0.0140 cd        1 PTP      0.101600
     10 C1'         0.0150    1.1290   -1.5800 c3        1 PTP      0.309500
     11 C2'         1.1930    1.2560   -2.5600 c3        1 PTP     -0.156400
     12 C3'         0.5960    0.8790   -3.9470 c3        1 PTP      0.214100
     13 O3'         0.1780    1.9820   -4.6470 os        1 PTP     -0.567200
     14 P3'         1.2600    2.6570   -5.8270 p5        1 PTP      1.321900
     15 O13         1.9370    1.4560   -6.4360 o         1 PTP     -0.941500
     16 O23         0.3290    3.4160   -6.7380 o         1 PTP     -0.941500
     17 O33         2.1610    3.5200   -4.9780 o         1 PTP     -0.941500
     18 C4'        -0.6160   -0.0200   -3.5450 c3        1 PTP      0.087100
     19 O4'        -0.9960    0.3460   -2.1900 os        1 PTP     -0.418600
     20 C5'        -0.3260   -1.5290   -3.6250 c3        1 PTP      0.201400
     21 O5'        -1.4720   -2.2810   -3.4580 os        1 PTP     -0.583200
     22 P5'        -1.3450   -3.6950   -2.5080 p5        1 PTP      1.351900
     23 O15        -0.5070   -3.2170   -1.3300 o         1 PTP     -0.942500
     24 O25        -2.7730   -4.0330   -2.1700 o         1 PTP     -0.942500
     25 O35        -0.6420   -4.6990   -3.3820 o         1 PTP     -0.942500
     26 HN3         1.3680    1.6120    2.7200 hn        1 PTP      0.300500
     27 H5M1        1.7530   -3.1420    1.6830 hc        1 PTP      0.045033
     28 H5M2        0.0990   -2.9940    2.3900 hc        1 PTP      0.045033
     29 H5M3        0.2860   -3.2920    0.5860 hc        1 PTP      0.045033
     30 H6         -0.0200   -1.5140   -0.8170 h4        1 PTP      0.334000
     31 H1'        -0.4430    2.1390   -1.3520 h2        1 PTP      0.066700
     32 H2'1        1.5830    2.3020   -2.5660 hc        1 PTP      0.059200
     33 H2'2        2.0220    0.5540   -2.3080 hc        1 PTP      0.059200
     34 H3'         1.3520    0.3010   -4.5510 h1        1 PTP      0.069700
     35 H4'        -1.5230    0.2350   -4.1520 h1        1 PTP      0.071700
     36 H5'1        0.1020   -1.7030   -4.6580 h1        1 PTP      0.004200
     37 H5'2        0.4500   -1.8090   -2.8590 h1        1 PTP      0.004200
@<TRIPOS>BOND
     1    1    2 1   
     2    1    9 1   
     3    1   10 1   
     4    2    3 2   
     5    2    4 1   
     6    4    5 1   
     7    4   26 1   
     8    5    6 2   
     9    5    7 1   
    10    7    8 1   
    11    7    9 2   
    12    8   27 1   
    13    8   28 1   
    14    8   29 1   
    15    9   30 1   
    16   10   11 1   
    17   10   19 1   
    18   10   31 1   
    19   11   12 1   
    20   11   32 1   
    21   11   33 1   
    22   12   13 1   
    23   12   18 1   
    24   12   34 1   
    25   13   14 1   
    26   14   15 1   
    27   14   16 1   
    28   14   17 1   
    29   18   19 1   
    30   18   20 1   
    31   18   35 1   
    32   20   21 1   
    33   20   36 1   
    34   20   37 1   
    35   21   22 1   
    36   22   23 1   
    37   22   24 1   
    38   22   25 1   
@<TRIPOS>SUBSTRUCTURE
     1 PTP         1 TEMP              0 ****  ****    0 ROOT
