@<TRIPOS>MOLECULE
PTP
   37    38     1     0     0
SMALL
bcc


@<TRIPOS>ATOM
      1 N1          0.3490    0.5390   -0.2380 n         1 PTP     -0.348000
      2 C2          0.6480    1.4430    0.7980 c         1 PTP      0.782500
      3 O2          0.5450    2.6950    0.7100 o         1 PTP     -0.715500
      4 N3          1.0820    0.9300    2.0390 n         1 PTP     -0.606500
      5 C4          1.1660   -0.4490    2.3100 c         1 PTP      0.712700
      6 O4          1.5670   -0.7690    3.4600 o         1 PTP     -0.761500
      7 C5          0.7700   -1.3300    1.2310 cc        1 PTP     -0.348400
      8 C5M         0.7830   -2.7870    1.4610 c3        1 PTP     -0.031900
      9 C6          0.3710   -0.8160    0.0090 cd        1 PTP      0.101600
     10 C1'        -0.0220    1.1180   -1.5650 c3        1 PTP      0.309500
     11 C2'         1.1520    1.2870   -2.5430 c3        1 PTP     -0.156400
     12 C3'         0.5650    0.9100   -3.9340 c3        1 PTP      0.214100
     13 O3'         0.1190    2.0090   -4.6220 os        1 PTP     -0.567200
     14 P3'         1.1820    2.7250   -5.7950 p5        1 PTP      1.321900
     15 O13         1.8900    1.5500   -6.4160 o         1 PTP     -0.941500
     16 O23         0.2310    3.4690   -6.6970 o         1 PTP     -0.941500
     17 O33         2.0590    3.6020   -4.9360 o         1 PTP     -0.941500
     18 C4'        -0.6220   -0.0260   -3.5420 c3        1 PTP      0.087100
     19 O4'        -1.0120    0.3150   -2.1840 os        1 PTP     -0.418600
     20 C5'        -0.2920   -1.5260   -3.6390 c3        1 PTP      0.201400
     21 O5'        -1.4170   -2.3100   -3.4810 os        1 PTP     -0.583200
     22 P5'        -1.2540   -3.7300   -2.5460 p5        1 PTP      1.351900
     23 O15        -0.4300   -3.2430   -1.3630 o         1 PTP     -0.942500
     24 O25        -2.6720   -4.1090   -2.2130 o         1 PTP     -0.942500
     25 O35        -0.5230   -4.7050   -3.4310 o         1 PTP     -0.942500
     26 HN3         1.3170    1.5900    2.7410 hn        1 PTP      0.300500
     27 H5M1        0.1690   -3.0450    2.3600 hc        1 PTP      0.045033
     28 H5M2        0.3650   -3.3180    0.5530 hc        1 PTP      0.045033
     29 H5M3        1.8270   -3.1410    1.6530 hc        1 PTP      0.045033
     30 H6          0.0130   -1.5330   -0.8300 h4        1 PTP      0.334000
     31 H1'        -0.5070    2.1120   -1.3260 h2        1 PTP      0.066700
     32 H2'1        2.0000    0.6040   -2.2980 hc        1 PTP      0.059200
     33 H2'2        1.5140    2.3430   -2.5380 hc        1 PTP      0.059200
     34 H3'         1.3360    0.3590   -4.5440 h1        1 PTP      0.069700
     35 H4'        -1.5360    0.2120   -4.1470 h1        1 PTP      0.071700
     36 H5'1        0.1410   -1.6770   -4.6740 h1        1 PTP      0.004200
     37 H5'2        0.4910   -1.7930   -2.8750 h1        1 PTP      0.004200
@<TRIPOS>BOND
     1    1    2 1   
     2    1    9 1   
     3    1   10 1   
     4    2    3 2   
     5    2    4 1   
     6    4    5 1   
     7    4   26 1   
     8    5    6 2   
     9    5    7 1   
    10    7    8 1   
    11    7    9 2   
    12    8   27 1   
    13    8   28 1   
    14    8   29 1   
    15    9   30 1   
    16   10   11 1   
    17   10   19 1   
    18   10   31 1   
    19   11   12 1   
    20   11   32 1   
    21   11   33 1   
    22   12   13 1   
    23   12   18 1   
    24   12   34 1   
    25   13   14 1   
    26   14   15 1   
    27   14   16 1   
    28   14   17 1   
    29   18   19 1   
    30   18   20 1   
    31   18   35 1   
    32   20   21 1   
    33   20   36 1   
    34   20   37 1   
    35   21   22 1   
    36   22   23 1   
    37   22   24 1   
    38   22   25 1   
@<TRIPOS>SUBSTRUCTURE
     1 PTP         1 TEMP              0 ****  ****    0 ROOT
