@<TRIPOS>MOLECULE
PTP
   37    38     1     0     0
SMALL
bcc


@<TRIPOS>ATOM
      1 N1          0.2410    0.5900   -0.2730 n         1 PTP     -0.348000
      2 C2          0.4520    1.5410    0.7420 c         1 PTP      0.782500
      3 O2          0.3080    2.7850    0.6020 o         1 PTP     -0.715500
      4 N3          0.8370    1.0900    2.0230 ns        1 PTP     -0.606500
      5 C4          0.9560   -0.2750    2.3490 c         1 PTP      0.712700
      6 O4          1.3060   -0.5380    3.5300 o         1 PTP     -0.761500
      7 C5          0.6490   -1.2080    1.2860 cc        1 PTP     -0.348400
      8 C5M         0.7030   -2.6540    1.5710 c3        1 PTP     -0.031900
      9 C6          0.2980   -0.7540    0.0260 cd        1 PTP      0.101600
     10 C1'        -0.0790    1.1070   -1.6390 c3        1 PTP      0.309500
     11 C2'         1.1390    1.2850   -2.5590 c3        1 PTP     -0.156400
     12 C3'         0.6420    0.8360   -3.9640 c3        1 PTP      0.214100
     13 O3'         0.1930    1.8910   -4.7160 os        1 PTP     -0.567200
     14 P3'         1.2920    2.6040   -5.8570 p5        1 PTP      1.321900
     15 O13         2.0740    1.4350   -6.3950 o         1 PTP     -0.941500
     16 O23         0.3640    3.2790   -6.8360 o         1 PTP     -0.941500
     17 O33         2.0900    3.5450   -4.9870 o         1 PTP     -0.941500
     18 C4'        -0.5310   -0.1290   -3.5990 c3        1 PTP      0.087100
     19 O4'        -1.0050    0.2450   -2.2770 os        1 PTP     -0.418600
     20 C5'        -0.1430   -1.6180   -3.6220 c3        1 PTP      0.201400
     21 O5'        -1.2460   -2.4380   -3.4940 os        1 PTP     -0.583200
     22 P5'        -1.0820   -3.8170   -2.4980 p5        1 PTP      1.351900
     23 O15        -0.3410   -3.2570   -1.2920 o         1 PTP     -0.942500
     24 O25        -2.5020   -4.2370   -2.2260 o         1 PTP     -0.942500
     25 O35        -0.2710   -4.7940   -3.3060 o         1 PTP     -0.942500
     26 HN3         1.0100    1.7830    2.7100 hn        1 PTP      0.300500
     27 H5M1        1.7470   -2.9620    1.8300 hc        1 PTP      0.045033
     28 H5M2        0.0510   -2.9020    2.4460 hc        1 PTP      0.045033
     29 H5M3        0.3530   -3.2320    0.6630 hc        1 PTP      0.045033
     30 H6          0.0110   -1.5130   -0.8030 h4        1 PTP      0.334000
     31 H1'        -0.6110    2.0900   -1.4620 h2        1 PTP      0.066700
     32 H2'1        1.9960    0.6430   -2.2450 hc        1 PTP      0.059200
     33 H2'2        1.4620    2.3530   -2.5750 hc        1 PTP      0.059200
     34 H3'         1.4630    0.2920   -4.5110 h1        1 PTP      0.069700
     35 H4'        -1.4190    0.0520   -4.2600 h1        1 PTP      0.071700
     36 H5'1        0.6070   -1.8280   -2.8090 h1        1 PTP      0.004200
     37 H5'2        0.3500   -1.7900   -4.6260 h1        1 PTP      0.004200
@<TRIPOS>BOND
     1    1    2 1   
     2    1    9 1   
     3    1   10 1   
     4    2    3 2   
     5    2    4 1   
     6    4    5 1   
     7    4   26 1   
     8    5    6 2   
     9    5    7 1   
    10    7    8 1   
    11    7    9 2   
    12    8   27 1   
    13    8   28 1   
    14    8   29 1   
    15    9   30 1   
    16   10   11 1   
    17   10   19 1   
    18   10   31 1   
    19   11   12 1   
    20   11   32 1   
    21   11   33 1   
    22   12   13 1   
    23   12   18 1   
    24   12   34 1   
    25   13   14 1   
    26   14   15 1   
    27   14   16 1   
    28   14   17 1   
    29   18   19 1   
    30   18   20 1   
    31   18   35 1   
    32   20   21 1   
    33   20   36 1   
    34   20   37 1   
    35   21   22 1   
    36   22   23 1   
    37   22   24 1   
    38   22   25 1   
@<TRIPOS>SUBSTRUCTURE
     1 PTP         1 TEMP              0 ****  ****    0 ROOT
