@<TRIPOS>MOLECULE
PTQ
   40    41     1     0     0
SMALL
bcc


@<TRIPOS>ATOM
      1 C1         -1.2720    0.4200    0.2470 c3        1 PTQ      0.189200
      2 O1         -1.4740   -0.8910   -0.2570 os        1 PTQ     -0.398600
      3 S1          0.0170    1.1450   -0.7500 ss        1 PTQ     -0.285200
      4 C2         -2.5350    1.2720    0.1020 c3        1 PTQ      0.091100
      5 O2         -2.3990    2.5330    0.7370 oh        1 PTQ     -0.606800
      6 C3         -3.7110    0.5760    0.8110 c3        1 PTQ      0.113100
      7 O3         -4.9270    1.2530    0.5440 oh        1 PTQ     -0.607800
      8 C4         -3.8800   -0.8570    0.2810 c3        1 PTQ      0.127100
      9 O4         -4.3060   -0.8680   -1.0700 oh        1 PTQ     -0.590800
     10 C5         -2.5420   -1.6010    0.3760 c3        1 PTQ      0.094100
     11 C6         -2.6090   -2.9540   -0.3400 c3        1 PTQ      0.144400
     12 C7          1.4820    0.4710   -0.0140 c3        1 PTQ     -0.003300
     13 C8          2.6570    0.9970   -0.8060 c3        1 PTQ     -0.028100
     14 C9          3.9420    0.4550   -0.2840 ca        1 PTQ     -0.084300
     15 C10         4.2980   -0.8750   -0.5380 ca        1 PTQ     -0.124500
     16 C11         5.5040   -1.3830   -0.0600 ca        1 PTQ     -0.127500
     17 C12         6.3660   -0.5670    0.6740 ca        1 PTQ     -0.128000
     18 C13         6.0170    0.7580    0.9280 ca        1 PTQ     -0.127500
     19 C14         4.8100    1.2690    0.4520 ca        1 PTQ     -0.124500
     20 H1         -0.9560    0.3700    1.3220 h2        1 PTQ      0.066700
     21 H2         -2.7840    1.4090   -0.9890 h1        1 PTQ      0.083700
     22 HO2        -1.6290    2.9650    0.3410 ho        1 PTQ      0.426000
     23 H3         -3.5230    0.5600    1.9200 h1        1 PTQ      0.058700
     24 HO3        -4.7790    2.1850    0.7540 ho        1 PTQ      0.431000
     25 H4         -4.6480   -1.3890    0.9120 h1        1 PTQ      0.056700
     26 HO4        -5.0560   -0.2590   -1.1300 ho        1 PTQ      0.425000
     27 H5         -2.2870   -1.7410    1.4640 h1        1 PTQ      0.053700
     28 HO5        -0.7070   -3.1740   -0.5680 ho        1 PTQ      0.411000
     29 H6         -3.4170   -3.5820    0.1200 h1        1 PTQ      0.067700
     30 H6A        -2.8160   -2.7920   -1.4310 h1        1 PTQ      0.067700
     31 H7          1.5560    0.7800    1.0570 h1        1 PTQ      0.071200
     32 H7A         1.4510   -0.6450   -0.0500 h1        1 PTQ      0.071200
     33 H8          2.5420    0.7040   -1.8860 hc        1 PTQ      0.063700
     34 H8A         2.6670    2.1200   -0.7630 hc        1 PTQ      0.063700
     35 H10         3.6200   -1.5190   -1.1190 ha        1 PTQ      0.133000
     36 H11         5.7780   -2.4290   -0.2640 ha        1 PTQ      0.132500
     37 H12         7.3180   -0.9690    1.0500 ha        1 PTQ      0.133000
     38 H13         6.6940    1.4050    1.5050 ha        1 PTQ      0.132500
     39 H14         4.5400    2.3170    0.6540 ha        1 PTQ      0.133000
     40 O5         -1.4160   -3.6830   -0.1530 oh        1 PTQ     -0.599800
@<TRIPOS>BOND
     1    1    2 1   
     2    1    3 1   
     3    1    4 1   
     4    1   20 1   
     5    2   10 1   
     6    3   12 1   
     7    4    5 1   
     8    4    6 1   
     9    4   21 1   
    10    5   22 1   
    11    6    7 1   
    12    6    8 1   
    13    6   23 1   
    14    7   24 1   
    15    8    9 1   
    16    8   10 1   
    17    8   25 1   
    18    9   26 1   
    19   10   11 1   
    20   10   27 1   
    21   11   29 1   
    22   11   30 1   
    23   11   40 1   
    24   12   13 1   
    25   12   31 1   
    26   12   32 1   
    27   13   14 1   
    28   13   33 1   
    29   13   34 1   
    30   14   15 ar  
    31   14   19 ar  
    32   15   16 ar  
    33   15   35 1   
    34   16   17 ar  
    35   16   36 1   
    36   17   18 ar  
    37   17   37 1   
    38   18   19 ar  
    39   18   38 1   
    40   19   39 1   
    41   28   40 1   
@<TRIPOS>SUBSTRUCTURE
     1 PTQ         1 TEMP              0 ****  ****    0 ROOT
