@<TRIPOS>MOLECULE
PTR
   26    26     1     0     0
SMALL
bcc


@<TRIPOS>ATOM
      1 N           1.0430    1.4360    3.4180 n3        1 PTR     -0.903800
      2 CA         -0.0430    0.5080    3.6830 c3        1 PTR      0.049500
      3 C           0.0070   -0.0520    5.1360 c         1 PTR      0.911600
      4 O           1.1190   -0.4190    5.6220 o         1 PTR     -0.874300
      5 OXT        -1.0790   -0.1240    5.7860 o         1 PTR     -0.874300
      6 CB         -0.1180   -0.6920    2.7200 c3        1 PTR     -0.023100
      7 CG         -0.1570   -0.3430    1.2750 ca        1 PTR     -0.237300
      8 CD1         0.8430   -0.7890    0.3930 ca        1 PTR     -0.086500
      9 CD2        -1.2230    0.3790    0.7260 ca        1 PTR     -0.086500
     10 CE1         0.7890   -0.5490   -0.9670 ca        1 PTR     -0.294000
     11 CE2        -1.3040    0.6370   -0.6320 ca        1 PTR     -0.294000
     12 CZ         -0.3020    0.1730   -1.5420 ca        1 PTR      0.348100
     13 OH         -0.4350    0.4430   -2.8080 os        1 PTR     -0.442500
     14 P           0.3050    0.0200   -4.4630 p5        1 PTR      1.337900
     15 O1P        -0.7910   -0.8160   -5.0380 o         1 PTR     -0.904500
     16 O2P         0.4650    1.3940   -5.0280 o         1 PTR     -0.904500
     17 O3P         1.5530   -0.6920   -4.0480 o         1 PTR     -0.904500
     18 H           1.8750    1.0930    3.8640 hn        1 PTR      0.333300
     19 HN2         1.2120    1.4640    2.4270 hn        1 PTR      0.333300
     20 HA         -1.0000    1.0970    3.5730 h1        1 PTR      0.039700
     21 HB2         0.7590   -1.3630    2.9260 hc        1 PTR      0.023200
     22 HB3        -1.0450   -1.2680    2.9860 hc        1 PTR      0.023200
     23 HD1         1.6950   -1.3540    0.8030 ha        1 PTR      0.081000
     24 HD2        -2.0150    0.7470    1.3970 ha        1 PTR      0.081000
     25 HE1         1.5810   -0.9130   -1.6410 ha        1 PTR      0.133000
     26 HE2        -2.1470    1.2040   -1.0430 ha        1 PTR      0.133000
@<TRIPOS>BOND
     1    1    2 1   
     2    1   18 1   
     3    1   19 1   
     4    2    3 1   
     5    2    6 1   
     6    2   20 1   
     7    3    4 1   
     8    3    5 1   
     9    6    7 1   
    10    6   21 1   
    11    6   22 1   
    12    7    8 ar  
    13    7    9 ar  
    14    8   10 ar  
    15    8   23 1   
    16    9   11 ar  
    17    9   24 1   
    18   10   12 ar  
    19   10   25 1   
    20   11   12 ar  
    21   11   26 1   
    22   12   13 1   
    23   13   14 1   
    24   14   15 1   
    25   14   16 1   
    26   14   17 1   
@<TRIPOS>SUBSTRUCTURE
     1 PTR         1 TEMP              0 ****  ****    0 ROOT
