@<TRIPOS>MOLECULE
PTS
   31    32     1     0     0
SMALL
bcc


@<TRIPOS>ATOM
      1 S1          0.2490   -0.0420    0.1270 ss        1 PTS      0.820200
      2 C2          1.8760   -0.1840    0.0430 cc        1 PTS     -0.715600
      3 C3          2.4190   -0.0030    1.3620 cd        1 PTS      0.005000
      4 C4          1.4190    0.2450    2.2940 cd        1 PTS     -0.134300
      5 C5          1.6160    0.4010    3.7620 c3        1 PTS      0.188800
      6 C6          0.5900   -0.4450    4.5380 c3        1 PTS     -0.056400
      7 C7         -0.8410   -0.4170    4.0320 c3        1 PTS     -0.297900
      8 S8         -1.2160    0.5850    2.6900 sy        1 PTS      1.394300
      9 C9          0.1300    0.2360    1.6720 cc        1 PTS     -0.448600
     10 S10         2.8980   -0.2970   -1.1950 sy        1 PTS      1.522200
     11 O11         2.3100    0.0020   -2.4000 o         1 PTS     -0.543300
     12 O12         4.1890    0.0270   -0.8540 o         1 PTS     -0.543300
     13 N13         3.0550   -2.1760   -1.3570 n4        1 PTS     -0.798500
     14 N14         1.6180    1.8500    4.1840 n4        1 PTS     -0.857600
     15 C15        -1.3390   -1.8370    3.8100 c3        1 PTS     -0.089100
     16 O16        -2.3630    0.2110    2.0240 o         1 PTS     -0.609800
     17 O17        -1.0060    1.9070    3.1100 o         1 PTS     -0.609800
     18 H3          3.4980   -0.0380    1.5770 ha        1 PTS      0.206000
     19 H5          2.6490    0.0100    4.0360 hx        1 PTS      0.128700
     20 H61         0.9790   -1.5030    4.4950 hc        1 PTS      0.105200
     21 H62         0.6080   -0.1570    5.6260 hc        1 PTS      0.105200
     22 H7         -1.4700   -0.0190    4.8950 h1        1 PTS      0.157700
     23 HN31        2.7180   -2.4850   -2.2730 hn        1 PTS      0.468800
     24 HN32        4.0390   -2.4530   -1.2940 hn        1 PTS      0.468800
     25 HN41        2.3610    2.3560    3.6930 hn        1 PTS      0.479133
     26 HN42        0.7130    2.3130    3.9750 hn        1 PTS      0.479133
     27 H151       -1.2860   -2.4210    4.7630 hc        1 PTS      0.076033
     28 H152       -0.7180   -2.3610    3.0450 hc        1 PTS      0.076033
     29 H153       -2.4080   -1.8280    3.4730 hc        1 PTS      0.076033
     30 H133        2.5490   -2.7030   -0.6510 hn        1 PTS      0.468800
     31 H143        1.7840    1.9050    5.1960 hn        1 PTS      0.479133
@<TRIPOS>BOND
     1    1    2 1   
     2    1    9 1   
     3    2    3 2   
     4    2   10 1   
     5    3    4 1   
     6    3   18 1   
     7    4    5 1   
     8    4    9 2   
     9    5    6 1   
    10    5   14 1   
    11    5   19 1   
    12    6    7 1   
    13    6   20 1   
    14    6   21 1   
    15    7    8 1   
    16    7   15 1   
    17    7   22 1   
    18    8    9 1   
    19    8   16 2   
    20    8   17 2   
    21   10   11 2   
    22   10   12 2   
    23   10   13 1   
    24   13   23 1   
    25   13   24 1   
    26   13   30 1   
    27   14   25 1   
    28   14   26 1   
    29   14   31 1   
    30   15   27 1   
    31   15   28 1   
    32   15   29 1   
@<TRIPOS>SUBSTRUCTURE
     1 PTS         1 TEMP              0 ****  ****    0 ROOT
