@<TRIPOS>MOLECULE
PTS
   29    30     1     0     0
SMALL
bcc


@<TRIPOS>ATOM
      1 S1          1.3000   -0.0630   -0.6240 ss        1 PTS      0.537200
      2 C2          0.0680    0.0280   -1.6610 cc        1 PTS     -0.491600
      3 C3         -1.1550    0.0140   -0.9560 cd        1 PTS     -0.083000
      4 C4         -0.9550   -0.0730    0.4340 cd        1 PTS     -0.062300
      5 C5         -2.0940   -0.0580    1.4150 c3        1 PTS      0.221800
      6 C6         -1.6150   -0.4120    2.8330 c3        1 PTS     -0.052400
      7 C7         -0.3510    0.3250    3.2220 c3        1 PTS     -0.266900
      8 S8          0.9990   -0.2240    2.3080 sy        1 PTS      1.400300
      9 C9          0.4250   -0.1150    0.7460 cc        1 PTS     -0.474600
     10 S10         0.0240    0.0870   -3.3480 sy        1 PTS      1.560200
     11 O11         1.1350   -0.6290   -3.8310 o         1 PTS     -0.651300
     12 O12        -1.2580   -0.3170   -3.7620 o         1 PTS     -0.651300
     13 N13         0.2270    1.6410   -3.6640 n3        1 PTS     -1.027700
     14 N14        -3.2370   -0.8680    1.0420 n3        1 PTS     -0.898800
     15 C15        -0.5250    1.8240    3.2000 c3        1 PTS     -0.068100
     16 O16         2.0770    0.6600    2.4610 o         1 PTS     -0.648800
     17 O17         1.2520   -1.5600    2.6410 o         1 PTS     -0.648800
     18 H3         -2.1320    0.0540   -1.4510 ha        1 PTS      0.180000
     19 H5         -2.4660    1.0170    1.4420 h1        1 PTS      0.078700
     20 H61        -1.4250   -1.5180    2.9160 hc        1 PTS      0.072700
     21 H62        -2.4350   -0.1580    3.5550 hc        1 PTS      0.072700
     22 H7         -0.1490    0.0430    4.3010 h1        1 PTS      0.122700
     23 HN31        1.1010    2.0410   -3.8970 hn        1 PTS      0.451300
     24 HN32       -0.5100    2.3000   -3.6820 hn        1 PTS      0.451300
     25 HN41       -3.5420   -0.6470    0.1150 hn        1 PTS      0.359800
     26 HN42       -3.0230   -1.8450    1.0970 hn        1 PTS      0.359800
     27 H151        0.4010    2.3220    3.5820 hc        1 PTS      0.052033
     28 H152       -0.7210    2.1870    2.1610 hc        1 PTS      0.052033
     29 H153       -1.3850    2.1260    3.8440 hc        1 PTS      0.052033
@<TRIPOS>BOND
     1    1    2 1   
     2    1    9 1   
     3    2    3 2   
     4    2   10 1   
     5    3    4 1   
     6    3   18 1   
     7    4    5 1   
     8    4    9 2   
     9    5    6 1   
    10    5   14 1   
    11    5   19 1   
    12    6    7 1   
    13    6   20 1   
    14    6   21 1   
    15    7    8 1   
    16    7   15 1   
    17    7   22 1   
    18    8    9 1   
    19    8   16 2   
    20    8   17 2   
    21   10   11 2   
    22   10   12 2   
    23   10   13 1   
    24   13   23 1   
    25   13   24 1   
    26   14   25 1   
    27   14   26 1   
    28   15   27 1   
    29   15   28 1   
    30   15   29 1   
@<TRIPOS>SUBSTRUCTURE
     1 PTS         1 TEMP              0 ****  ****    0 ROOT
