@<TRIPOS>MOLECULE
PTS
   31    32     1     0     0
SMALL
bcc


@<TRIPOS>ATOM
      1 S1          0.2340   -0.0670    0.1280 ss        1 PTS      0.820200
      2 C2          1.8620   -0.1960    0.0350 cc        1 PTS     -0.715600
      3 C3          2.4110    0.0040    1.3490 cd        1 PTS      0.005000
      4 C4          1.4150    0.2530    2.2840 cd        1 PTS     -0.134300
      5 C5          1.6190    0.4270    3.7490 c3        1 PTS      0.188800
      6 C6          0.6060   -0.4190    4.5420 c3        1 PTS     -0.056400
      7 C7         -0.8290   -0.4100    4.0430 c3        1 PTS     -0.297900
      8 S8         -1.2200    0.5750    2.6930 sy        1 PTS      1.394300
      9 C9          0.1210    0.2260    1.6700 cc        1 PTS     -0.448600
     10 S10         2.8770   -0.3130   -1.2070 sy        1 PTS      1.522200
     11 O11         2.2800   -0.0310   -2.4120 o         1 PTS     -0.543300
     12 O12         4.1670    0.0250   -0.8770 o         1 PTS     -0.543300
     13 N13         3.0480   -2.1930   -1.3510 n4        1 PTS     -0.798500
     14 N14         1.6110    1.8800    4.1560 n4        1 PTS     -0.857600
     15 C15        -1.3150   -1.8370    3.8380 c3        1 PTS     -0.089100
     16 O16        -2.3690    0.1830    2.0380 o         1 PTS     -0.609800
     17 O17        -1.0210    1.9030    3.0980 o         1 PTS     -0.609800
     18 H3          3.4910   -0.0200    1.5580 ha        1 PTS      0.206000
     19 H5          2.6570    0.0480    4.0210 hx        1 PTS      0.128700
     20 H61         1.0040   -1.4740    4.5080 hc        1 PTS      0.105200
     21 H62         0.6260   -0.1180    5.6260 hc        1 PTS      0.105200
     22 H7         -1.4580   -0.0100    4.9060 h1        1 PTS      0.157700
     23 HN31        2.5500   -2.7160   -0.6380 hn        1 PTS      0.468800
     24 HN32        2.7090   -2.5140   -2.2620 hn        1 PTS      0.468800
     25 HN41        0.7010    2.3330    3.9480 hn        1 PTS      0.479133
     26 HN42        2.3460    2.3870    3.6550 hn        1 PTS      0.479133
     27 H151       -0.6920   -2.3620    3.0750 hc        1 PTS      0.076033
     28 H152       -1.2510   -2.4110    4.7960 hc        1 PTS      0.076033
     29 H153       -2.3850   -1.8420    3.5060 hc        1 PTS      0.076033
     30 H133        4.0350   -2.4610   -1.2900 hn        1 PTS      0.468800
     31 H143        1.7830    1.9480    5.1660 hn        1 PTS      0.479133
@<TRIPOS>BOND
     1    1    2 1   
     2    1    9 1   
     3    2    3 2   
     4    2   10 1   
     5    3    4 1   
     6    3   18 1   
     7    4    5 1   
     8    4    9 2   
     9    5    6 1   
    10    5   14 1   
    11    5   19 1   
    12    6    7 1   
    13    6   20 1   
    14    6   21 1   
    15    7    8 1   
    16    7   15 1   
    17    7   22 1   
    18    8    9 1   
    19    8   16 2   
    20    8   17 2   
    21   10   11 2   
    22   10   12 2   
    23   10   13 1   
    24   13   23 1   
    25   13   24 1   
    26   13   30 1   
    27   14   25 1   
    28   14   26 1   
    29   14   31 1   
    30   15   27 1   
    31   15   28 1   
    32   15   29 1   
@<TRIPOS>SUBSTRUCTURE
     1 PTS         1 TEMP              0 ****  ****    0 ROOT
