@<TRIPOS>MOLECULE
PTS
   31    32     1     0     0
SMALL
bcc


@<TRIPOS>ATOM
      1 S1          0.2230   -0.1230    0.1260 ss        1 PTS      0.820200
      2 C2          1.8550   -0.2000    0.0320 cc        1 PTS     -0.715600
      3 C3          2.3990    0.0370    1.3410 cd        1 PTS      0.005000
      4 C4          1.3960    0.2670    2.2750 cd        1 PTS     -0.134300
      5 C5          1.5970    0.4690    3.7370 c3        1 PTS      0.188800
      6 C6          0.6140   -0.3990    4.5430 c3        1 PTS     -0.056400
      7 C7         -0.8210   -0.4440    4.0480 c3        1 PTS     -0.297900
      8 S8         -1.2470    0.5070    2.6850 sy        1 PTS      1.394300
      9 C9          0.1040    0.1880    1.6640 cc        1 PTS     -0.448600
     10 S10         2.8710   -0.3010   -1.2110 sy        1 PTS      1.522200
     11 O11         2.2620   -0.0580   -2.4180 o         1 PTS     -0.543300
     12 O12         4.1500    0.0850   -0.8890 o         1 PTS     -0.543300
     13 N13         3.1060   -2.1760   -1.3270 nz        1 PTS     -0.798500
     14 N14         1.5420    1.9260    4.1230 nz        1 PTS     -0.857600
     15 C15        -1.2620   -1.8880    3.8670 c3        1 PTS     -0.089100
     16 O16        -2.3830    0.0690    2.0380 o         1 PTS     -0.609800
     17 O17        -1.0910    1.8470    3.0690 o         1 PTS     -0.609800
     18 H3          3.4800    0.0520    1.5480 ha        1 PTS      0.206000
     19 H5          2.6480    0.1280    4.0120 hx        1 PTS      0.128700
     20 H61         0.6270   -0.0830    5.6230 hc        1 PTS      0.105200
     21 H62         1.0460   -1.4410    4.5230 hc        1 PTS      0.105200
     22 H7         -1.4610   -0.0510    4.9070 h1        1 PTS      0.157700
     23 HN31        2.6270   -2.7050   -0.6050 hn        1 PTS      0.468800
     24 HN32        2.7750   -2.5220   -2.2320 hn        1 PTS      0.468800
     25 HN41        1.7130    2.0140    5.1310 hn        1 PTS      0.479133
     26 HN42        0.6170    2.3460    3.9100 hn        1 PTS      0.479133
     27 H151       -2.3320   -1.9330    3.5380 hc        1 PTS      0.076033
     28 H152       -1.1770   -2.4450    4.8330 hc        1 PTS      0.076033
     29 H153       -0.6240   -2.4050    3.1100 hc        1 PTS      0.076033
     30 H133        4.1000   -2.4100   -1.2650 hn        1 PTS      0.468800
     31 H143        2.2590    2.4500    3.6130 hn        1 PTS      0.479133
@<TRIPOS>BOND
     1    1    2 1   
     2    1    9 1   
     3    2    3 2   
     4    2   10 1   
     5    3    4 1   
     6    3   18 1   
     7    4    5 1   
     8    4    9 2   
     9    5    6 1   
    10    5   14 1   
    11    5   19 1   
    12    6    7 1   
    13    6   20 1   
    14    6   21 1   
    15    7    8 1   
    16    7   15 1   
    17    7   22 1   
    18    8    9 1   
    19    8   16 2   
    20    8   17 2   
    21   10   11 2   
    22   10   12 2   
    23   10   13 1   
    24   13   23 1   
    25   13   24 1   
    26   13   30 1   
    27   14   25 1   
    28   14   26 1   
    29   14   31 1   
    30   15   27 1   
    31   15   28 1   
    32   15   29 1   
@<TRIPOS>SUBSTRUCTURE
     1 PTS         1 TEMP              0 ****  ****    0 ROOT
