@<TRIPOS>MOLECULE
PTU
   25    25     1     0     0
SMALL
bcc


@<TRIPOS>ATOM
      1 N1          0.0140   -0.3190    0.3400 n4        1 PTU     -0.847600
      2 C           1.4700   -0.1520   -0.0160 c2        1 PTU      0.504100
      3 S           2.4170   -0.0710    1.4210 ss        1 PTU     -0.155300
      4 N2          1.9450   -0.0720   -1.2040 ne        1 PTU     -0.504100
      5 C1          1.2330   -0.1430   -2.4140 ca        1 PTU      0.064400
      6 C2          1.6100    0.7360   -3.4550 ca        1 PTU     -0.118000
      7 C3          0.9690    0.6650   -4.6890 ca        1 PTU     -0.110000
      8 C4         -0.0320   -0.2770   -4.9180 ca        1 PTU     -0.085000
      9 C5         -0.3930   -1.1670   -3.9040 ca        1 PTU     -0.110000
     10 C6          0.2250   -1.1060   -2.6600 ca        1 PTU     -0.118000
     11 C1'         4.1080    0.1140    0.8890 c3        1 PTU      0.015700
     12 C2'         4.8820    0.1660    2.1730 c3        1 PTU     -0.113100
     13 HN11       -0.2060    0.2830    1.1410 hn        1 PTU      0.464800
     14 HN12       -0.5900   -0.0640   -0.4520 hn        1 PTU      0.464800
     15 H21         2.4080    1.4800   -3.2960 ha        1 PTU      0.141500
     16 H31         1.2680    1.3590   -5.4940 ha        1 PTU      0.161500
     17 H41        -0.5290   -0.3310   -5.9010 ha        1 PTU      0.164000
     18 H51        -1.1660   -1.9300   -4.0930 ha        1 PTU      0.161500
     19 H61        -0.0290   -1.8650   -1.9060 ha        1 PTU      0.141500
     20 H1'1        4.4170   -0.7510    0.2540 h1        1 PTU      0.096700
     21 H1'2        4.2310    1.0510    0.2940 h1        1 PTU      0.096700
     22 H2'1        4.7570   -0.7760    2.7640 hc        1 PTU      0.072367
     23 H2'2        5.9710    0.2850    1.9390 hc        1 PTU      0.072367
     24 H2'3        4.5670    1.0330    2.8050 hc        1 PTU      0.072367
     25 H13        -0.1660   -1.2960    0.5930 hn        1 PTU      0.464800
@<TRIPOS>BOND
     1    1    2 1   
     2    1   13 1   
     3    1   14 1   
     4    1   25 1   
     5    2    3 1   
     6    2    4 2   
     7    3   11 1   
     8    4    5 1   
     9    5    6 ar  
    10    5   10 ar  
    11    6    7 ar  
    12    6   15 1   
    13    7    8 ar  
    14    7   16 1   
    15    8    9 ar  
    16    8   17 1   
    17    9   10 ar  
    18    9   18 1   
    19   10   19 1   
    20   11   12 1   
    21   11   20 1   
    22   11   21 1   
    23   12   22 1   
    24   12   23 1   
    25   12   24 1   
@<TRIPOS>SUBSTRUCTURE
     1 PTU         1 TEMP              0 ****  ****    0 ROOT
