@<TRIPOS>MOLECULE
PTU
   25    25     1     0     0
SMALL
bcc


@<TRIPOS>ATOM
      1 N1          0.0130   -0.2770    0.3430 n4        1 PTU     -0.847600
      2 C           1.4710   -0.1380   -0.0160 c2        1 PTU      0.504100
      3 S           2.4210   -0.0590    1.4200 ss        1 PTU     -0.155300
      4 N2          1.9460   -0.0770   -1.2050 ne        1 PTU     -0.504100
      5 C1          1.2310   -0.1460   -2.4130 ca        1 PTU      0.064400
      6 C2          1.6220    0.7170   -3.4620 ca        1 PTU     -0.118000
      7 C3          0.9790    0.6460   -4.6960 ca        1 PTU     -0.110000
      8 C4         -0.0380   -0.2820   -4.9150 ca        1 PTU     -0.085000
      9 C5         -0.4140   -1.1550   -3.8920 ca        1 PTU     -0.110000
     10 C6          0.2070   -1.0940   -2.6500 ca        1 PTU     -0.118000
     11 C1'         4.1140    0.0950    0.8850 c3        1 PTU      0.015700
     12 C2'         4.8900    0.1440    2.1680 c3        1 PTU     -0.113100
     13 HN11       -0.1830   -1.2490    0.6050 hn        1 PTU      0.464800
     14 HN12       -0.1960    0.3350    1.1400 hn        1 PTU      0.464800
     15 H21         2.4330    1.4490   -3.3110 ha        1 PTU      0.141500
     16 H31         1.2880    1.3270   -5.5060 ha        1 PTU      0.161500
     17 H41        -0.5370   -0.3350   -5.8960 ha        1 PTU      0.164000
     18 H51        -1.1990   -1.9070   -4.0730 ha        1 PTU      0.161500
     19 H61        -0.0590   -1.8420   -1.8880 ha        1 PTU      0.141500
     20 H1'1        4.2510    1.0250    0.2830 h1        1 PTU      0.096700
     21 H1'2        4.4080   -0.7790    0.2560 h1        1 PTU      0.096700
     22 H2'1        4.7530   -0.7930    2.7640 hc        1 PTU      0.072367
     23 H2'2        5.9810    0.2470    1.9310 hc        1 PTU      0.072367
     24 H2'3        4.5880    1.0190    2.7950 hc        1 PTU      0.072367
     25 H13        -0.5870   -0.0190   -0.4500 hn        1 PTU      0.464800
@<TRIPOS>BOND
     1    1    2 1   
     2    1   13 1   
     3    1   14 1   
     4    1   25 1   
     5    2    3 1   
     6    2    4 2   
     7    3   11 1   
     8    4    5 1   
     9    5    6 ar  
    10    5   10 ar  
    11    6    7 ar  
    12    6   15 1   
    13    7    8 ar  
    14    7   16 1   
    15    8    9 ar  
    16    8   17 1   
    17    9   10 ar  
    18    9   18 1   
    19   10   19 1   
    20   11   12 1   
    21   11   20 1   
    22   11   21 1   
    23   12   22 1   
    24   12   23 1   
    25   12   24 1   
@<TRIPOS>SUBSTRUCTURE
     1 PTU         1 TEMP              0 ****  ****    0 ROOT
