@<TRIPOS>MOLECULE
PTU
   25    25     1     0     0
SMALL
bcc


@<TRIPOS>ATOM
      1 N1          0.0180   -0.3220    0.3440 nz        1 PTU     -0.847600
      2 C           1.4730   -0.1540   -0.0160 c2        1 PTU      0.504100
      3 S           2.4230   -0.0740    1.4200 ss        1 PTU     -0.155300
      4 N2          1.9450   -0.0730   -1.2050 ne        1 PTU     -0.504100
      5 C1          1.2300   -0.1420   -2.4130 ca        1 PTU      0.064400
      6 C2          1.6050    0.7380   -3.4530 ca        1 PTU     -0.118000
      7 C3          0.9610    0.6680   -4.6870 ca        1 PTU     -0.110000
      8 C4         -0.0400   -0.2740   -4.9150 ca        1 PTU     -0.085000
      9 C5         -0.3980   -1.1650   -3.9000 ca        1 PTU     -0.110000
     10 C6          0.2230   -1.1050   -2.6580 ca        1 PTU     -0.118000
     11 C1'         4.1120    0.1140    0.8850 c3        1 PTU      0.015700
     12 C2'         4.8890    0.1640    2.1670 c3        1 PTU     -0.113100
     13 HN11       -0.1610   -1.3000    0.5960 hn        1 PTU      0.464800
     14 HN12       -0.2010    0.2790    1.1460 hn        1 PTU      0.464800
     15 H21         2.4030    1.4830   -3.2960 ha        1 PTU      0.141500
     16 H31         1.2570    1.3630   -5.4910 ha        1 PTU      0.161500
     17 H41        -0.5390   -0.3270   -5.8960 ha        1 PTU      0.164000
     18 H51        -1.1710   -1.9290   -4.0880 ha        1 PTU      0.161500
     19 H61        -0.0290   -1.8660   -1.9040 ha        1 PTU      0.141500
     20 H1'1        4.2330    1.0520    0.2910 h1        1 PTU      0.096700
     21 H1'2        4.4200   -0.7490    0.2470 h1        1 PTU      0.096700
     22 H2'1        4.7680   -0.7790    2.7550 hc        1 PTU      0.072367
     23 H2'2        5.9770    0.2870    1.9300 hc        1 PTU      0.072367
     24 H2'3        4.5740    1.0290    2.8020 hc        1 PTU      0.072367
     25 H13        -0.5880   -0.0670   -0.4470 hn        1 PTU      0.464800
@<TRIPOS>BOND
     1    1    2 1   
     2    1   13 1   
     3    1   14 1   
     4    1   25 1   
     5    2    3 1   
     6    2    4 2   
     7    3   11 1   
     8    4    5 1   
     9    5    6 ar  
    10    5   10 ar  
    11    6    7 ar  
    12    6   15 1   
    13    7    8 ar  
    14    7   16 1   
    15    8    9 ar  
    16    8   17 1   
    17    9   10 ar  
    18    9   18 1   
    19   10   19 1   
    20   11   12 1   
    21   11   20 1   
    22   11   21 1   
    23   12   22 1   
    24   12   23 1   
    25   12   24 1   
@<TRIPOS>SUBSTRUCTURE
     1 PTU         1 TEMP              0 ****  ****    0 ROOT
