@<TRIPOS>MOLECULE
PTU
   24    24     1     0     0
SMALL
bcc


@<TRIPOS>ATOM
      1 N1         -2.0220    0.6600    0.4640 nh        1 PTU     -0.953800
      2 C          -0.7540    0.2430    0.8520 c2        1 PTU      0.681100
      3 S          -0.5780    0.1650    2.5990 ss        1 PTU     -0.237300
      4 N2          0.2890   -0.0130    0.1060 ne        1 PTU     -0.691100
      5 C1          0.2440   -0.0320   -1.3010 ca        1 PTU      0.165400
      6 C2          1.2350    0.6740   -2.0220 ca        1 PTU     -0.153000
      7 C3          1.2840    0.5980   -3.4100 ca        1 PTU     -0.117500
      8 C4          0.3590   -0.1710   -4.1140 ca        1 PTU     -0.148000
      9 C5         -0.6210   -0.8750   -3.4170 ca        1 PTU     -0.117500
     10 C6         -0.6860   -0.8080   -2.0290 ca        1 PTU     -0.153000
     11 C1'         1.1100   -0.3000    2.8890 c3        1 PTU      0.003700
     12 C2'         1.2600   -0.3790    4.3800 c3        1 PTU     -0.095100
     13 HN11       -2.7480    0.6140    1.1360 hn        1 PTU      0.424300
     14 HN12       -2.2820    0.5620   -0.4890 hn        1 PTU      0.424300
     15 H21         1.9760    1.2840   -1.4830 ha        1 PTU      0.133000
     16 H31         2.0620    1.1540   -3.9550 ha        1 PTU      0.129000
     17 H41         0.4050   -0.2250   -5.2110 ha        1 PTU      0.130000
     18 H51        -1.3490   -1.4910   -3.9660 ha        1 PTU      0.129000
     19 H61        -1.4540   -1.3910   -1.4990 ha        1 PTU      0.133000
     20 H1'1        1.8040    0.4580    2.4520 h1        1 PTU      0.082200
     21 H1'2        1.3340   -1.2830    2.4070 h1        1 PTU      0.082200
     22 H2'1        2.3090   -0.6670    4.6380 hc        1 PTU      0.049367
     23 H2'2        1.0410    0.6070    4.8590 hc        1 PTU      0.049367
     24 H2'3        0.5710   -1.1450    4.8140 hc        1 PTU      0.049367
@<TRIPOS>BOND
     1    1    2 1   
     2    1   13 1   
     3    1   14 1   
     4    2    3 1   
     5    2    4 2   
     6    3   11 1   
     7    4    5 1   
     8    5    6 ar  
     9    5   10 ar  
    10    6    7 ar  
    11    6   15 1   
    12    7    8 ar  
    13    7   16 1   
    14    8    9 ar  
    15    8   17 1   
    16    9   10 ar  
    17    9   18 1   
    18   10   19 1   
    19   11   12 1   
    20   11   20 1   
    21   11   21 1   
    22   12   22 1   
    23   12   23 1   
    24   12   24 1   
@<TRIPOS>SUBSTRUCTURE
     1 PTU         1 TEMP              0 ****  ****    0 ROOT
