@<TRIPOS>MOLECULE
PTV
   30    32     1     0     0
SMALL
bcc


@<TRIPOS>ATOM
      1 C3          0.0950    0.2440    1.0280 cc        1 PTV     -0.064000
      2 C2          0.1300    1.6660    1.0830 cc        1 PTV     -0.185000
      3 C1         -0.8920    2.1690    1.8670 cd        1 PTV     -0.179100
      4 S20        -1.8310    0.9650    2.5140 ss        1 PTV      0.111200
      5 C15        -0.9550   -0.2750    1.7750 cd        1 PTV     -0.247700
      6 C14        -1.2690   -1.6890    1.8700 c         1 PTV      0.626700
      7 O16        -0.5730   -2.5760    1.3600 o         1 PTV     -0.526100
      8 C4         -2.5150   -2.0680    2.6310 c3        1 PTV     -0.179300
      9 S11        -3.5620   -0.6600    2.8400 ss        1 PTV     -0.114400
     10 C19        -4.2670   -0.8680    4.3690 cc        1 PTV      0.553300
     11 N13        -4.8950    0.2090    5.0290 nc        1 PTV     -0.642000
     12 N18        -4.3580   -2.0370    5.0880 nd        1 PTV     -0.512800
     13 N17        -5.0230   -1.7130    6.1910 na        1 PTV     -0.137400
     14 C10        -5.3730   -0.3430    6.1780 cd        1 PTV      0.470000
     15 C9         -6.1220    0.3220    7.2390 ca        1 PTV     -0.097500
     16 C5         -6.8760    1.4670    6.9500 ca        1 PTV     -0.219300
     17 C6         -7.5850    2.0790    8.0010 ca        1 PTV      0.395700
     18 N12        -7.5800    1.6270    9.2690 nb        1 PTV     -0.648000
     19 C7         -6.8450    0.5280    9.5290 ca        1 PTV      0.395700
     20 C8         -6.0990   -0.1600    8.5560 ca        1 PTV     -0.219300
     21 H1          0.8030   -0.3680    0.4600 ha        1 PTV      0.166000
     22 H2          0.8790    2.2660    0.5610 ha        1 PTV      0.151000
     23 H3         -1.0630    3.2300    2.0480 h4        1 PTV      0.167000
     24 H4         -2.2000   -2.5180    3.6070 h1        1 PTV      0.115200
     25 H5         -3.0620   -2.8640    2.0640 h1        1 PTV      0.115200
     26 H7         -6.9150    1.8830    5.9330 ha        1 PTV      0.155000
     27 H8         -8.1910    2.9850    7.8150 h4        1 PTV      0.030600
     28 H9         -6.8540    0.1820   10.5790 h4        1 PTV      0.030600
     29 H10        -5.5090   -1.0390    8.8430 ha        1 PTV      0.155000
     30 H6         -5.2380   -2.3940    6.8820 hn        1 PTV      0.333700
@<TRIPOS>BOND
     1    1    2 1   
     2    1    5 2   
     3    1   21 1   
     4    2    3 2   
     5    2   22 1   
     6    3    4 1   
     7    3   23 1   
     8    4    5 1   
     9    5    6 1   
    10    6    7 2   
    11    6    8 1   
    12    8    9 1   
    13    8   24 1   
    14    8   25 1   
    15    9   10 1   
    16   10   11 1   
    17   10   12 2   
    18   11   14 2   
    19   12   13 1   
    20   13   14 1   
    21   13   30 1   
    22   14   15 1   
    23   15   16 ar  
    24   15   20 ar  
    25   16   17 ar  
    26   16   26 1   
    27   17   18 ar  
    28   17   27 1   
    29   18   19 ar  
    30   19   20 ar  
    31   19   28 1   
    32   20   29 1   
@<TRIPOS>SUBSTRUCTURE
     1 PTV         1 TEMP              0 ****  ****    0 ROOT
