@<TRIPOS>MOLECULE
PTV
   30    32     1     0     0
SMALL
bcc


@<TRIPOS>ATOM
      1 C3          5.0640   -0.0690    0.2950 cc        1 PTV     -0.064000
      2 C2          5.0370   -0.1700    1.7150 cc        1 PTV     -0.185000
      3 C1          3.7490   -0.0610    2.2070 cd        1 PTV     -0.179100
      4 S20         2.6340    0.1360    0.9960 ss        1 PTV      0.111200
      5 C15         3.7920    0.1140   -0.2340 cd        1 PTV     -0.247700
      6 C14         3.5120    0.2950   -1.6460 c         1 PTV      0.626700
      7 O16         4.3790    0.2190   -2.5260 o         1 PTV     -0.526100
      8 C4          2.0860    0.5970   -2.0320 c3        1 PTV     -0.179300
      9 S11         1.1620    1.1200   -0.6190 ss        1 PTV     -0.114400
     10 C19        -0.3930    0.4870   -0.8610 cc        1 PTV      0.553300
     11 N13        -1.3140    0.4030    0.2050 nc        1 PTV     -0.642000
     12 N18        -0.9380    0.0530   -2.0470 nd        1 PTV     -0.512800
     13 N17        -2.1790   -0.3100   -1.7460 na        1 PTV     -0.137400
     14 C10        -2.4400   -0.0980   -0.3730 cd        1 PTV      0.470000
     15 C9         -3.7180   -0.3820    0.2710 ca        1 PTV     -0.097500
     16 C5         -4.0870    0.3140    1.4310 ca        1 PTV     -0.219300
     17 C6         -5.3270    0.0110    2.0220 ca        1 PTV      0.395700
     18 N12        -6.1820   -0.9090    1.5360 nb        1 PTV     -0.648000
     19 C7         -5.8100   -1.5700    0.4240 ca        1 PTV      0.395700
     20 C8         -4.5940   -1.3480   -0.2460 ca        1 PTV     -0.219300
     21 H1          5.9750   -0.1190   -0.3090 ha        1 PTV      0.166000
     22 H2          5.9340   -0.3140    2.3200 ha        1 PTV      0.151000
     23 H3          3.4900   -0.1060    3.2640 h4        1 PTV      0.167000
     24 H4          2.0800    1.4060   -2.8070 h1        1 PTV      0.115200
     25 H5          1.6570   -0.3190   -2.5120 h1        1 PTV      0.115200
     26 H7         -3.4270    1.0730    1.8740 ha        1 PTV      0.155000
     27 H8         -5.6550    0.5360    2.9380 h4        1 PTV      0.030600
     28 H9         -6.5280   -2.3230    0.0490 h4        1 PTV      0.030600
     29 H10        -4.3480   -1.9370   -1.1380 ha        1 PTV      0.155000
     30 H6         -2.7990   -0.6510   -2.4430 hn        1 PTV      0.333700
@<TRIPOS>BOND
     1    1    2 1   
     2    1    5 2   
     3    1   21 1   
     4    2    3 2   
     5    2   22 1   
     6    3    4 1   
     7    3   23 1   
     8    4    5 1   
     9    5    6 1   
    10    6    7 2   
    11    6    8 1   
    12    8    9 1   
    13    8   24 1   
    14    8   25 1   
    15    9   10 1   
    16   10   11 1   
    17   10   12 2   
    18   11   14 2   
    19   12   13 1   
    20   13   14 1   
    21   13   30 1   
    22   14   15 1   
    23   15   16 ar  
    24   15   20 ar  
    25   16   17 ar  
    26   16   26 1   
    27   17   18 ar  
    28   17   27 1   
    29   18   19 ar  
    30   19   20 ar  
    31   19   28 1   
    32   20   29 1   
@<TRIPOS>SUBSTRUCTURE
     1 PTV         1 TEMP              0 ****  ****    0 ROOT
