@<TRIPOS>MOLECULE
PTV
   30    32     1     0     0
SMALL
bcc


@<TRIPOS>ATOM
      1 C3          0.0520    0.2390    0.9830 cc        1 PTV     -0.064000
      2 C2          0.1170    1.6590    1.0670 cc        1 PTV     -0.185000
      3 C1         -0.8850    2.1670    1.8740 cd        1 PTV     -0.179100
      4 S20        -1.8410    0.9700    2.5080 ss        1 PTV      0.111200
      5 C15        -1.0010   -0.2730    1.7330 cd        1 PTV     -0.247700
      6 C14        -1.3430   -1.6820    1.8030 c         1 PTV      0.626700
      7 O16        -0.6730   -2.5720    1.2660 o         1 PTV     -0.526100
      8 C4         -2.5880   -2.0500    2.5710 c3        1 PTV     -0.179300
      9 S11        -3.6020   -0.6250    2.8230 ss        1 PTV     -0.114400
     10 C19        -4.2910   -0.8500    4.3570 cc        1 PTV      0.553300
     11 N13        -4.8860    0.2270    5.0470 nc        1 PTV     -0.642000
     12 N18        -4.3990   -2.0310    5.0520 nd        1 PTV     -0.512800
     13 N17        -5.0420   -1.7170    6.1710 na        1 PTV     -0.137400
     14 C10        -5.3620   -0.3400    6.1900 cd        1 PTV      0.470000
     15 C9         -6.0810    0.3190    7.2750 ca        1 PTV     -0.097500
     16 C5         -6.8130    1.4870    7.0210 ca        1 PTV     -0.219300
     17 C6         -7.4940    2.0920    8.0940 ca        1 PTV      0.395700
     18 N12        -7.4840    1.6120    9.3520 nb        1 PTV     -0.648000
     19 C7         -6.7720    0.4910    9.5790 ca        1 PTV      0.395700
     20 C8         -6.0540   -0.1920    8.5810 ca        1 PTV     -0.219300
     21 H1          0.7390   -0.3760    0.3950 ha        1 PTV      0.166000
     22 H2          0.8720    2.2530    0.5480 ha        1 PTV      0.151000
     23 H3         -1.0300    3.2270    2.0790 h4        1 PTV      0.167000
     24 H4         -2.2710   -2.5280    3.5330 h1        1 PTV      0.115200
     25 H5         -3.1580   -2.8220    1.9940 h1        1 PTV      0.115200
     26 H7         -6.8550    1.9260    6.0140 ha        1 PTV      0.155000
     27 H8         -8.0820    3.0150    7.9360 h4        1 PTV      0.030600
     28 H9         -6.7750    0.1220   10.6210 h4        1 PTV      0.030600
     29 H10        -5.4800   -1.0900    8.8410 ha        1 PTV      0.155000
     30 H6         -5.2630   -2.4080    6.8500 hn        1 PTV      0.333700
@<TRIPOS>BOND
     1    1    2 1   
     2    1    5 2   
     3    1   21 1   
     4    2    3 2   
     5    2   22 1   
     6    3    4 1   
     7    3   23 1   
     8    4    5 1   
     9    5    6 1   
    10    6    7 2   
    11    6    8 1   
    12    8    9 1   
    13    8   24 1   
    14    8   25 1   
    15    9   10 1   
    16   10   11 1   
    17   10   12 2   
    18   11   14 2   
    19   12   13 1   
    20   13   14 1   
    21   13   30 1   
    22   14   15 1   
    23   15   16 ar  
    24   15   20 ar  
    25   16   17 ar  
    26   16   26 1   
    27   17   18 ar  
    28   17   27 1   
    29   18   19 ar  
    30   19   20 ar  
    31   19   28 1   
    32   20   29 1   
@<TRIPOS>SUBSTRUCTURE
     1 PTV         1 TEMP              0 ****  ****    0 ROOT
