@<TRIPOS>MOLECULE
PTW
   22    24     1     0     0
SMALL
bcc


@<TRIPOS>ATOM
      1 N1          0.0230    0.0010   -0.0380 n3        1 PTW     -0.728600
      2 P1          2.0530    0.0020    1.7410 p3        1 PTW     -0.729700
      3 N2         -0.3200    1.2420    2.0860 n3        1 PTW     -0.728600
      4 N3         -0.3180   -1.2420    2.0860 n3        1 PTW     -0.728600
      5 C16         1.4640    0.0020    0.0590 c3        1 PTW      0.313700
      6 C17        -0.5540   -1.2000    0.6190 c3        1 PTW      0.347000
      7 C18         1.0920   -1.3570    2.3800 c3        1 PTW      0.313700
      8 C19        -0.5560    1.2000    0.6200 c3        1 PTW      0.347000
      9 C20         1.0900    1.3580    2.3810 c3        1 PTW      0.313700
     10 C21        -0.8850   -0.0010    2.6720 c3        1 PTW      0.347000
     11 H16         1.8850   -0.9130   -0.4240 h1        1 PTW      0.075700
     12 H16A        1.8840    0.9180   -0.4240 h1        1 PTW      0.075700
     13 H17        -0.1260   -2.1290    0.1450 h2        1 PTW      0.080200
     14 H17A       -1.6680   -1.1910    0.4460 h2        1 PTW      0.080200
     15 H18         1.2560   -1.3700    3.4850 h1        1 PTW      0.075700
     16 H18A        1.5090   -2.2850    1.9190 h1        1 PTW      0.075700
     17 H19        -1.6700    1.1900    0.4460 h2        1 PTW      0.080200
     18 H19A       -0.1290    2.1300    0.1460 h2        1 PTW      0.080200
     19 H20         1.2540    1.3710    3.4850 h1        1 PTW      0.075700
     20 H20A        1.5060    2.2870    1.9200 h1        1 PTW      0.075700
     21 H21        -1.9970   -0.0010    2.4820 h2        1 PTW      0.080200
     22 H21A       -0.7130   -0.0010    3.7860 h2        1 PTW      0.080200
@<TRIPOS>BOND
     1    1    5 1   
     2    1    6 1   
     3    1    8 1   
     4    2    5 1   
     5    2    7 1   
     6    2    9 1   
     7    3    8 1   
     8    3    9 1   
     9    3   10 1   
    10    4    6 1   
    11    4    7 1   
    12    4   10 1   
    13    5   11 1   
    14    5   12 1   
    15    6   13 1   
    16    6   14 1   
    17    7   15 1   
    18    7   16 1   
    19    8   17 1   
    20    8   18 1   
    21    9   19 1   
    22    9   20 1   
    23   10   21 1   
    24   10   22 1   
@<TRIPOS>SUBSTRUCTURE
     1 PTW         1 TEMP              0 ****  ****    0 ROOT
