@<TRIPOS>MOLECULE
PTW
   22    24     1     0     0
SMALL
bcc


@<TRIPOS>ATOM
      1 N1          0.6990    0.0080   -1.4370 n3        1 PTW     -0.728600
      2 P1         -1.5840    0.0000    0.0040 p3        1 PTW     -0.729700
      3 N2          0.7050   -1.2460    0.7080 n3        1 PTW     -0.728600
      4 N3          0.7050    1.2380    0.7220 n3        1 PTW     -0.728600
      5 C16        -0.7390    0.0090   -1.5660 c3        1 PTW      0.313700
      6 C17         1.1670    1.2040   -0.6900 c3        1 PTW      0.347000
      7 C18        -0.7330    1.3530    0.7930 c3        1 PTW      0.313700
      8 C19         1.1680   -1.1960   -0.7030 c3        1 PTW      0.347000
      9 C20        -0.7330   -1.3620    0.7780 c3        1 PTW      0.313700
     10 C21         1.1730   -0.0080    1.3820 c3        1 PTW      0.347000
     11 H16        -1.0790    0.9270   -2.1040 h1        1 PTW      0.075700
     12 H16A       -1.0790   -0.9040   -2.1140 h1        1 PTW      0.075700
     13 H17         2.2950    1.1950   -0.6880 h2        1 PTW      0.080200
     14 H17A        0.8190    2.1360   -1.2200 h2        1 PTW      0.080200
     15 H18        -1.0730    2.2850    0.2780 h1        1 PTW      0.075700
     16 H18A       -1.0690    1.3600    1.8580 h1        1 PTW      0.075700
     17 H19         0.8190   -2.1220   -1.2440 h2        1 PTW      0.080200
     18 H19A        2.2950   -1.1870   -0.7010 h2        1 PTW      0.080200
     19 H20        -1.0690   -1.3810    1.8430 h1        1 PTW      0.075700
     20 H20A       -1.0730   -2.2870    0.2520 h1        1 PTW      0.075700
     21 H21         0.8290   -0.0140    2.4560 h2        1 PTW      0.080200
     22 H21A        2.3000   -0.0070    1.3680 h2        1 PTW      0.080200
@<TRIPOS>BOND
     1    1    5 1   
     2    1    6 1   
     3    1    8 1   
     4    2    5 1   
     5    2    7 1   
     6    2    9 1   
     7    3    8 1   
     8    3    9 1   
     9    3   10 1   
    10    4    6 1   
    11    4    7 1   
    12    4   10 1   
    13    5   11 1   
    14    5   12 1   
    15    6   13 1   
    16    6   14 1   
    17    7   15 1   
    18    7   16 1   
    19    8   17 1   
    20    8   18 1   
    21    9   19 1   
    22    9   20 1   
    23   10   21 1   
    24   10   22 1   
@<TRIPOS>SUBSTRUCTURE
     1 PTW         1 TEMP              0 ****  ****    0 ROOT
