@<TRIPOS>MOLECULE
PTX
   28    28     1     0     0
SMALL
bcc


@<TRIPOS>ATOM
      1 P8          1.0840    0.6290   -0.5160 p5        1 PTX      1.337600
      2 O81         1.2300    2.1090    0.1790 oh        1 PTX     -0.790400
      3 O82         1.2060   -0.4160    0.5180 o         1 PTX     -0.868500
      4 C7         -0.5520    0.6930   -1.0640 c3        1 PTX     -0.178200
      5 N10        -0.6590    0.4210   -2.4650 n         1 PTX     -0.484900
      6 C11        -1.4820    1.1630   -3.2870 c         1 PTX      0.559800
      7 O12        -2.4740    1.8010   -2.8850 o         1 PTX     -0.603100
      8 C13        -1.1510    1.1380   -4.7760 ce        1 PTX      0.304300
      9 N16        -1.9890    1.0180   -5.7690 n2        1 PTX     -0.425200
     10 O17        -3.2560    0.8170   -5.4520 os        1 PTX     -0.159300
     11 C18        -4.1400    0.7980   -6.5910 c3        1 PTX      0.131700
     12 C14         0.2940    1.2620   -5.0510 cc        1 PTX      0.316000
     13 C15         1.0120    0.4440   -5.9120 cd        1 PTX     -0.240400
     14 S16         2.6570    0.6260   -5.6690 ss        1 PTX     -0.161300
     15 C17         2.3580    1.8070   -4.3950 cd        1 PTX      0.675300
     16 N18         3.4490    2.3030   -3.6600 nh        1 PTX     -0.877500
     17 N19         1.0600    2.0960   -4.2360 nc        1 PTX     -0.663000
     18 O1          2.0340    0.7570   -1.6600 o         1 PTX     -0.868500
     19 H71        -1.1690   -0.0670   -0.5080 h1        1 PTX      0.079700
     20 H72        -1.0050    1.6930   -0.8190 h1        1 PTX      0.079700
     21 H10         0.2020    0.0920   -2.8630 hn        1 PTX      0.316500
     22 H181       -3.8760   -0.0310   -7.2880 h1        1 PTX      0.039367
     23 H182       -5.1360    0.6190   -6.1130 h1        1 PTX      0.039367
     24 H183       -4.1250    1.7780   -7.1240 h1        1 PTX      0.039367
     25 H15         0.5760   -0.2530   -6.6220 h4        1 PTX      0.175000
     26 H11         3.6670    1.6160   -2.9430 hn        1 PTX      0.401800
     27 H12         3.2120    3.1650   -3.1990 hn        1 PTX      0.401800
     28 H102        1.8350    2.6670   -0.2940 ho        1 PTX      0.423000
@<TRIPOS>BOND
     1    1    2 1   
     2    1    3 1   
     3    1    4 1   
     4    1   18 1   
     5    2   28 1   
     6    4    5 1   
     7    4   19 1   
     8    4   20 1   
     9    5    6 1   
    10    5   21 1   
    11    6    7 2   
    12    6    8 1   
    13    8    9 2   
    14    8   12 1   
    15    9   10 1   
    16   10   11 1   
    17   11   22 1   
    18   11   23 1   
    19   11   24 1   
    20   12   13 2   
    21   12   17 1   
    22   13   14 1   
    23   13   25 1   
    24   14   15 1   
    25   15   16 1   
    26   15   17 2   
    27   16   26 1   
    28   16   27 1   
@<TRIPOS>SUBSTRUCTURE
     1 PTX         1 TEMP              0 ****  ****    0 ROOT
