@<TRIPOS>MOLECULE
PTX
   28    28     1     0     0
SMALL
bcc


@<TRIPOS>ATOM
      1 P8          1.0970    0.7030   -0.5110 p5        1 PTX      1.337600
      2 O81         1.2040    2.1960    0.1630 oh        1 PTX     -0.790400
      3 O82         1.2470   -0.3240    0.5380 o         1 PTX     -0.868500
      4 C7         -0.5410    0.7150   -1.0570 c3        1 PTX     -0.178200
      5 N10        -0.6410    0.4230   -2.4550 ns        1 PTX     -0.484900
      6 C11        -1.4830    1.1330   -3.2860 c         1 PTX      0.559800
      7 O12        -2.4920    1.7500   -2.8910 o         1 PTX     -0.603100
      8 C13        -1.1520    1.0970   -4.7750 ce        1 PTX      0.304300
      9 N16        -1.9880    0.9430   -5.7660 n2        1 PTX     -0.425200
     10 O17        -3.2490    0.7140   -5.4440 os        1 PTX     -0.159300
     11 C18        -4.1330    0.6590   -6.5830 c3        1 PTX      0.131700
     12 C14         0.2880    1.2530   -5.0520 cc        1 PTX      0.316000
     13 C15         1.0270    0.4430   -5.9020 cd        1 PTX     -0.240400
     14 S16         2.6670    0.6690   -5.6640 ss        1 PTX     -0.161300
     15 C17         2.3390    1.8600   -4.4060 cd        1 PTX      0.675300
     16 N18         3.4170    2.3940   -3.6790 nv        1 PTX     -0.877500
     17 N19         1.0340    2.1180   -4.2500 nc        1 PTX     -0.663000
     18 O1          2.0420    0.8390   -1.6570 o         1 PTX     -0.868500
     19 H71        -1.1370   -0.0530   -0.4910 h1        1 PTX      0.079700
     20 H72        -1.0200    1.7060   -0.8250 h1        1 PTX      0.079700
     21 H10         1.7940    2.7630   -0.3180 ho        1 PTX      0.423000
     22 H181       -3.8490   -0.1720   -7.2710 h1        1 PTX      0.039700
     23 H182       -5.1230    0.4600   -6.1020 h1        1 PTX      0.039700
     24 H183       -4.1430    1.6330   -7.1270 h1        1 PTX      0.039700
     25 H15         0.6090   -0.2760   -6.6020 h4        1 PTX      0.175000
     26 H11         3.6530    1.7220   -2.9530 hn        1 PTX      0.401800
     27 H12         3.1570    3.2560   -3.2290 hn        1 PTX      0.401800
     28 H102        0.2280    0.1110   -2.8490 hn        1 PTX      0.316500
@<TRIPOS>BOND
     1    1    2 1   
     2    1    3 1   
     3    1    4 1   
     4    1   18 1   
     5    2   21 1   
     6    4    5 1   
     7    4   19 1   
     8    4   20 1   
     9    5    6 1   
    10    5   28 1   
    11    6    7 2   
    12    6    8 1   
    13    8    9 2   
    14    8   12 1   
    15    9   10 1   
    16   10   11 1   
    17   11   22 1   
    18   11   23 1   
    19   11   24 1   
    20   12   13 2   
    21   12   17 1   
    22   13   14 1   
    23   13   25 1   
    24   14   15 1   
    25   15   16 1   
    26   15   17 2   
    27   16   26 1   
    28   16   27 1   
@<TRIPOS>SUBSTRUCTURE
     1 PTX         1 TEMP              0 ****  ****    0 ROOT
