@<TRIPOS>MOLECULE
PTX
   27    27     1     0     0
SMALL
bcc


@<TRIPOS>ATOM
      1 P8          2.2590    1.7470   -0.3770 p5        1 PTX      1.211700
      2 O81         1.6280    1.4080   -1.7110 o         1 PTX     -0.943500
      3 O82         1.3750    2.6630    0.4450 o         1 PTX     -0.943500
      4 C7          2.2110    0.1260    0.5250 c3        1 PTX     -0.110200
      5 N10         1.0770   -0.5930    0.0470 n         1 PTX     -0.451900
      6 C11         0.2890   -1.4030    0.7950 c         1 PTX      0.547800
      7 O12         0.6280   -2.0670    1.8050 o         1 PTX     -0.676100
      8 C13        -1.1820   -1.4950    0.3460 ce        1 PTX      0.327300
      9 N16        -1.9070   -2.5540    0.1200 n2        1 PTX     -0.482200
     10 O17        -1.2710   -3.7230    0.1940 os        1 PTX     -0.163300
     11 C18        -2.1470   -4.8510    0.0520 c3        1 PTX      0.137700
     12 C14        -1.7670   -0.1470    0.1810 cc        1 PTX      0.325000
     13 C15        -2.4850    0.2880   -0.9200 cd        1 PTX     -0.235400
     14 S16        -2.5680    1.9650   -0.9500 ss        1 PTX     -0.237300
     15 C17        -1.6220    2.0560    0.5520 cd        1 PTX      0.716300
     16 N18        -1.2420    3.3150    1.0410 nh        1 PTX     -0.893500
     17 N19        -1.3530    0.8520    1.0660 nc        1 PTX     -0.663000
     18 O1          3.7250    2.0770   -0.3750 o         1 PTX     -0.943500
     19 H71         3.1510   -0.4360    0.3160 h1        1 PTX      0.030700
     20 H72         2.1460    0.3220    1.6200 h1        1 PTX      0.030700
     21 H10         0.6830   -0.1600   -0.7820 hn        1 PTX      0.346500
     22 H181       -2.9030   -4.8820    0.8720 h1        1 PTX      0.023033
     23 H182       -2.6570   -4.8480   -0.9410 h1        1 PTX      0.023033
     24 H183       -1.4440   -5.7180    0.1310 h1        1 PTX      0.023033
     25 H15        -2.8740   -0.3470   -1.7090 h4        1 PTX      0.161000
     26 H11        -0.4450    3.6250    0.4700 hn        1 PTX      0.419800
     27 H12        -0.8840    3.2310    1.9800 hn        1 PTX      0.419800
@<TRIPOS>BOND
     1    1    2 1   
     2    1    3 1   
     3    1    4 1   
     4    1   18 1   
     5    4    5 1   
     6    4   19 1   
     7    4   20 1   
     8    5    6 1   
     9    5   21 1   
    10    6    7 2   
    11    6    8 1   
    12    8    9 2   
    13    8   12 1   
    14    9   10 1   
    15   10   11 1   
    16   11   22 1   
    17   11   23 1   
    18   11   24 1   
    19   12   13 2   
    20   12   17 1   
    21   13   14 1   
    22   13   25 1   
    23   14   15 1   
    24   15   16 1   
    25   15   17 2   
    26   16   26 1   
    27   16   27 1   
@<TRIPOS>SUBSTRUCTURE
     1 PTX         1 TEMP              0 ****  ****    0 ROOT
