@<TRIPOS>MOLECULE
PTX
   27    27     1     0     0
SMALL
bcc


@<TRIPOS>ATOM
      1 P8          1.2420    0.8500   -0.4470 p5        1 PTX      1.211700
      2 O81         2.0470    1.0030   -1.7340 o         1 PTX     -0.945167
      3 O82         1.3490    2.0410    0.4650 o         1 PTX     -0.945167
      4 C7         -0.5230    0.9120   -1.0030 c3        1 PTX     -0.124200
      5 N10        -0.5820    0.5720   -2.3850 n         1 PTX     -0.433900
      6 C11        -1.4710    1.1040   -3.2680 c         1 PTX      0.536800
      7 O12        -2.5960    1.5860   -2.9870 o         1 PTX     -0.670100
      8 C13        -1.0740    1.0610   -4.7550 ce        1 PTX      0.326300
      9 N16        -1.8290    0.7890   -5.7830 n2        1 PTX     -0.479200
     10 O17        -3.0750    0.4080   -5.5170 os        1 PTX     -0.156300
     11 C18        -3.9030    0.3250   -6.6880 c3        1 PTX      0.136700
     12 C14         0.3580    1.3610   -4.9670 cc        1 PTX      0.333000
     13 C15         1.2380    0.5310   -5.6410 cd        1 PTX     -0.251400
     14 S16         2.8260    0.9040   -5.2430 ss        1 PTX     -0.253300
     15 C17         2.2640    2.2020   -4.1600 cd        1 PTX      0.762300
     16 N18         3.2110    2.8820   -3.3810 nh        1 PTX     -0.893500
     17 N19         0.9390    2.3840   -4.2130 nc        1 PTX     -0.678000
     18 O1          1.3520   -0.5080    0.1870 o         1 PTX     -0.945167
     19 H71        -0.9220    1.9340   -0.8030 h1        1 PTX      0.036700
     20 H72        -1.1110    0.1760   -0.4040 h1        1 PTX      0.036700
     21 H10         0.3340    0.3230   -2.7360 hn        1 PTX      0.335500
     22 H181       -4.0060    1.3210   -7.1810 h1        1 PTX      0.023700
     23 H182       -4.8840   -0.0110   -6.2700 h1        1 PTX      0.023700
     24 H183       -3.5060   -0.4230   -7.4150 h1        1 PTX      0.023700
     25 H15         0.9570   -0.3010   -6.2770 h4        1 PTX      0.158000
     26 H11         3.5050    2.2160   -2.6590 hn        1 PTX      0.416800
     27 H12         2.7840    3.6600   -2.9030 hn        1 PTX      0.416800
@<TRIPOS>BOND
     1    1    2 1   
     2    1    3 1   
     3    1    4 1   
     4    1   18 1   
     5    4    5 1   
     6    4   19 1   
     7    4   20 1   
     8    5    6 1   
     9    5   21 1   
    10    6    7 2   
    11    6    8 1   
    12    8    9 2   
    13    8   12 1   
    14    9   10 1   
    15   10   11 1   
    16   11   22 1   
    17   11   23 1   
    18   11   24 1   
    19   12   13 2   
    20   12   17 1   
    21   13   14 1   
    22   13   25 1   
    23   14   15 1   
    24   15   16 1   
    25   15   17 2   
    26   16   26 1   
    27   16   27 1   
@<TRIPOS>SUBSTRUCTURE
     1 PTX         1 TEMP              0 ****  ****    0 ROOT
