@<TRIPOS>MOLECULE
PTY
  129   128     1     0     0
SMALL
bcc


@<TRIPOS>ATOM
      1 C1          3.3850    0.2840   -3.7650 c3        1 PTY      0.135400
      2 C2          7.0040   -2.6860   -2.9600 c3        1 PTY      0.131800
      3 C3          7.5430   -1.9730   -1.7060 c3        1 PTY      0.143400
      4 O4          2.4380    0.8240   -4.7040 os        1 PTY     -0.450900
      5 C5          4.8940    1.5810   -2.1860 c3        1 PTY      0.177400
      6 C6          3.4450    1.2320   -2.5680 c3        1 PTY      0.110100
      7 O7          2.8000    0.5320   -1.4920 os        1 PTY     -0.437900
      8 C8          2.4720    1.2560   -0.3750 c         1 PTY      0.674100
      9 O10         2.3200    2.4770   -0.4910 o         1 PTY     -0.585000
     10 C11         2.3470    0.3970    0.8390 c3        1 PTY     -0.154400
     11 C12         1.4760    1.0380    1.8950 c3        1 PTY     -0.070400
     12 C13         1.5190    0.2390    3.1800 c3        1 PTY     -0.079400
     13 C14         0.6470    0.8680    4.2460 c3        1 PTY     -0.077400
     14 C15         0.6930    0.0720    5.5330 c3        1 PTY     -0.079400
     15 C16        -0.1780    0.7010    6.6000 c3        1 PTY     -0.078400
     16 C17        -0.1320   -0.0950    7.8870 c3        1 PTY     -0.079400
     17 C18        -1.0020    0.5330    8.9540 c3        1 PTY     -0.078400
     18 C19        -0.9560   -0.2630   10.2400 c3        1 PTY     -0.079400
     19 C20        -1.8270    0.3640   11.3070 c3        1 PTY     -0.078400
     20 C21        -1.7800   -0.4320   12.5940 c3        1 PTY     -0.079400
     21 C22        -2.6510    0.1950   13.6610 c3        1 PTY     -0.078400
     22 C23        -2.6050   -0.6010   14.9470 c3        1 PTY     -0.079400
     23 C24        -3.4760    0.0260   16.0140 c3        1 PTY     -0.078400
     24 C25        -3.4290   -0.7710   17.3000 c3        1 PTY     -0.079400
     25 C26        -4.3010   -0.1440   18.3670 c3        1 PTY     -0.079400
     26 C27        -4.2540   -0.9400   19.6540 c3        1 PTY     -0.079400
     27 C28        -5.1260   -0.3150   20.7220 c3        1 PTY     -0.080400
     28 C29        -5.0820   -1.1040   22.0040 c3        1 PTY     -0.092100
     29 C30         1.3470    0.0870   -5.0480 c         1 PTY      0.635100
     30 C31         0.4120    0.8540   -5.9380 c3        1 PTY     -0.131400
     31 O30         1.2200   -1.0660   -4.6340 o         1 PTY     -0.544000
     32 C32        -0.2430   -0.0580   -6.9530 c3        1 PTY     -0.079400
     33 C33        -1.2890    0.6880   -7.7530 c3        1 PTY     -0.078400
     34 C34        -1.9350   -0.2140   -8.7820 c3        1 PTY     -0.079400
     35 C35        -2.9870    0.5270   -9.5800 c3        1 PTY     -0.078400
     36 C36        -3.6320   -0.3750  -10.6090 c3        1 PTY     -0.079400
     37 C37        -4.6840    0.3650  -11.4070 c3        1 PTY     -0.078400
     38 C38        -5.3300   -0.5370  -12.4370 c3        1 PTY     -0.079400
     39 C39        -6.3810    0.2030  -13.2350 c3        1 PTY     -0.078400
     40 C40        -7.0270   -0.6990  -14.2640 c3        1 PTY     -0.079400
     41 C41        -8.0790    0.0410  -15.0620 c3        1 PTY     -0.079400
     42 C42        -8.7250   -0.8620  -16.0910 c3        1 PTY     -0.079400
     43 C43        -9.7770   -0.1220  -16.8900 c3        1 PTY     -0.080400
     44 C44       -10.4230   -1.0170  -17.9160 c3        1 PTY     -0.092100
     45 P1          6.4150    0.1190   -0.6690 p5        1 PTY      1.434800
     46 O11         6.4930   -1.5040   -0.9160 os        1 PTY     -0.566200
     47 O12         5.4090    0.4020    0.3730 o         1 PTY     -0.829500
     48 O13         7.7850    0.6590   -0.7150 o         1 PTY     -0.829500
     49 O14         5.7150    0.4630   -2.1430 os        1 PTY     -0.585200
     50 N1          6.1780   -1.9070   -3.8480 n3        1 PTY     -0.905800
     51 HC11        4.3670    0.2820   -4.3090 h1        1 PTY      0.092200
     52 HC12        3.1100   -0.7550   -3.4480 h1        1 PTY      0.092200
     53 HC21        7.8940   -3.0520   -3.5470 h1        1 PTY      0.032200
     54 HC22        6.4100   -3.5830   -2.6280 h1        1 PTY      0.032200
     55 HC31        8.2270   -1.1260   -1.9920 h1        1 PTY      0.033700
     56 HC32        8.1260   -2.7270   -1.1040 h1        1 PTY      0.033700
     57 HC51        5.2860    2.2830   -2.9780 h1        1 PTY      0.038200
     58 HC52        4.8750    2.1010   -1.1860 h1        1 PTY      0.038200
     59 HC6         2.8840    2.1840   -2.7810 h1        1 PTY      0.068700
     60 H111        3.4100    0.2530    1.2110 hc        1 PTY      0.116200
     61 H112        1.9520   -0.6110    0.5500 hc        1 PTY      0.116200
     62 H121        0.4190    1.1100    1.5280 hc        1 PTY      0.043200
     63 H122        1.8320    2.0860    2.0840 hc        1 PTY      0.043200
     64 H131        2.5790    0.1770    3.5450 hc        1 PTY      0.044700
     65 H132        1.1760   -0.8110    2.9830 hc        1 PTY      0.044700
     66 H141       -0.4110    0.9300    3.8790 hc        1 PTY      0.036200
     67 H142        0.9920    1.9180    4.4400 hc        1 PTY      0.036200
     68 H151        1.7520    0.0120    5.8990 hc        1 PTY      0.039700
     69 H152        0.3510   -0.9780    5.3380 hc        1 PTY      0.039700
     70 H161       -1.2360    0.7620    6.2330 hc        1 PTY      0.037200
     71 H162        0.1660    1.7510    6.7950 hc        1 PTY      0.037200
     72 H171        0.9270   -0.1560    8.2530 hc        1 PTY      0.039200
     73 H172       -0.4740   -1.1450    7.6910 hc        1 PTY      0.039200
     74 H181       -2.0610    0.5940    8.5870 hc        1 PTY      0.038200
     75 H182       -0.6590    1.5830    9.1490 hc        1 PTY      0.038200
     76 H191        0.1030   -0.3240   10.6070 hc        1 PTY      0.039200
     77 H192       -1.2980   -1.3140   10.0450 hc        1 PTY      0.039200
     78 H201       -2.8850    0.4250   10.9410 hc        1 PTY      0.038200
     79 H202       -1.4840    1.4150   11.5030 hc        1 PTY      0.038200
     80 H211       -0.7220   -0.4930   12.9600 hc        1 PTY      0.039200
     81 H212       -2.1220   -1.4830   12.3980 hc        1 PTY      0.039200
     82 H221       -3.7100    0.2560   13.2940 hc        1 PTY      0.038700
     83 H222       -2.3090    1.2460   13.8560 hc        1 PTY      0.038700
     84 H231       -1.5460   -0.6620   15.3140 hc        1 PTY      0.039200
     85 H232       -2.9470   -1.6520   14.7520 hc        1 PTY      0.039200
     86 H241       -4.5350    0.0860   15.6480 hc        1 PTY      0.039200
     87 H242       -3.1340    1.0760   16.2100 hc        1 PTY      0.039200
     88 H251       -2.3710   -0.8310   17.6670 hc        1 PTY      0.039700
     89 H252       -3.7710   -1.8210   17.1050 hc        1 PTY      0.039700
     90 H261       -5.3600   -0.0840   18.0010 hc        1 PTY      0.038700
     91 H262       -3.9590    0.9060   18.5630 hc        1 PTY      0.038700
     92 H271       -3.1960   -1.0000   20.0210 hc        1 PTY      0.039200
     93 H272       -4.5960   -1.9910   19.4580 hc        1 PTY      0.039200
     94 H281       -6.1840   -0.2540   20.3520 hc        1 PTY      0.037700
     95 H282       -4.7840    0.7370   20.9150 hc        1 PTY      0.037700
     96 H291       -5.7310   -0.6260   22.7770 hc        1 PTY      0.031700
     97 H292       -5.4430   -2.1480   21.8370 hc        1 PTY      0.031700
     98 H293       -4.0390   -1.1550   22.4010 hc        1 PTY      0.031700
     99 H311       -0.3630    1.3270   -5.2780 hc        1 PTY      0.073200
    100 H312        0.9730    1.6780   -6.4520 hc        1 PTY      0.073200
    101 H321        0.5370   -0.4730   -7.6440 hc        1 PTY      0.056700
    102 H322       -0.7120   -0.9290   -6.4230 hc        1 PTY      0.056700
    103 H331       -2.0750    1.0920   -7.0610 hc        1 PTY      0.038700
    104 H332       -0.8170    1.5670   -8.2660 hc        1 PTY      0.038700
    105 H341       -1.1500   -0.6160   -9.4750 hc        1 PTY      0.041700
    106 H342       -2.4040   -1.0950   -8.2680 hc        1 PTY      0.041700
    107 H351       -3.7720    0.9280   -8.8860 hc        1 PTY      0.038700
    108 H352       -2.5180    1.4080  -10.0930 hc        1 PTY      0.038700
    109 H361       -2.8470   -0.7760  -11.3030 hc        1 PTY      0.039700
    110 H362       -4.1000   -1.2560  -10.0960 hc        1 PTY      0.039700
    111 H371       -5.4690    0.7660  -10.7130 hc        1 PTY      0.038700
    112 H372       -4.2150    1.2460  -11.9200 hc        1 PTY      0.038700
    113 H381       -4.5440   -0.9380  -13.1300 hc        1 PTY      0.039700
    114 H382       -5.7980   -1.4180  -11.9230 hc        1 PTY      0.039700
    115 H391       -7.1670    0.6040  -12.5400 hc        1 PTY      0.038700
    116 H392       -5.9130    1.0840  -13.7480 hc        1 PTY      0.038700
    117 H401       -6.2420   -1.1010  -14.9570 hc        1 PTY      0.039700
    118 H402       -7.4950   -1.5800  -13.7500 hc        1 PTY      0.039700
    119 H411       -8.8640    0.4420  -14.3680 hc        1 PTY      0.038700
    120 H412       -7.6110    0.9220  -15.5750 hc        1 PTY      0.038700
    121 H421       -7.9400   -1.2630  -16.7850 hc        1 PTY      0.039700
    122 H422       -9.1940   -1.7420  -15.5780 hc        1 PTY      0.039700
    123 H431      -10.5600    0.2800  -16.1940 hc        1 PTY      0.037700
    124 H432       -9.3070    0.7590  -17.4010 hc        1 PTY      0.037700
    125 H441      -11.1950   -0.4530  -18.4930 hc        1 PTY      0.031367
    126 H442       -9.6620   -1.4080  -18.6330 hc        1 PTY      0.031367
    127 H443      -10.9180   -1.8890  -17.4230 hc        1 PTY      0.031367
    128 HN11        5.3000   -1.7050   -3.4020 hn        1 PTY      0.350300
    129 HN12        6.6180   -1.0230   -4.0360 hn        1 PTY      0.350300
@<TRIPOS>BOND
     1    1    4 1   
     2    1    6 1   
     3    1   51 1   
     4    1   52 1   
     5    2    3 1   
     6    2   50 1   
     7    2   53 1   
     8    2   54 1   
     9    3   46 1   
    10    3   55 1   
    11    3   56 1   
    12    4   29 1   
    13    5    6 1   
    14    5   49 1   
    15    5   57 1   
    16    5   58 1   
    17    6    7 1   
    18    6   59 1   
    19    7    8 1   
    20    8    9 2   
    21    8   10 1   
    22   10   11 1   
    23   10   60 1   
    24   10   61 1   
    25   11   12 1   
    26   11   62 1   
    27   11   63 1   
    28   12   13 1   
    29   12   64 1   
    30   12   65 1   
    31   13   14 1   
    32   13   66 1   
    33   13   67 1   
    34   14   15 1   
    35   14   68 1   
    36   14   69 1   
    37   15   16 1   
    38   15   70 1   
    39   15   71 1   
    40   16   17 1   
    41   16   72 1   
    42   16   73 1   
    43   17   18 1   
    44   17   74 1   
    45   17   75 1   
    46   18   19 1   
    47   18   76 1   
    48   18   77 1   
    49   19   20 1   
    50   19   78 1   
    51   19   79 1   
    52   20   21 1   
    53   20   80 1   
    54   20   81 1   
    55   21   22 1   
    56   21   82 1   
    57   21   83 1   
    58   22   23 1   
    59   22   84 1   
    60   22   85 1   
    61   23   24 1   
    62   23   86 1   
    63   23   87 1   
    64   24   25 1   
    65   24   88 1   
    66   24   89 1   
    67   25   26 1   
    68   25   90 1   
    69   25   91 1   
    70   26   27 1   
    71   26   92 1   
    72   26   93 1   
    73   27   28 1   
    74   27   94 1   
    75   27   95 1   
    76   28   96 1   
    77   28   97 1   
    78   28   98 1   
    79   29   30 1   
    80   29   31 2   
    81   30   32 1   
    82   30   99 1   
    83   30  100 1   
    84   32   33 1   
    85   32  101 1   
    86   32  102 1   
    87   33   34 1   
    88   33  103 1   
    89   33  104 1   
    90   34   35 1   
    91   34  105 1   
    92   34  106 1   
    93   35   36 1   
    94   35  107 1   
    95   35  108 1   
    96   36   37 1   
    97   36  109 1   
    98   36  110 1   
    99   37   38 1   
   100   37  111 1   
   101   37  112 1   
   102   38   39 1   
   103   38  113 1   
   104   38  114 1   
   105   39   40 1   
   106   39  115 1   
   107   39  116 1   
   108   40   41 1   
   109   40  117 1   
   110   40  118 1   
   111   41   42 1   
   112   41  119 1   
   113   41  120 1   
   114   42   43 1   
   115   42  121 1   
   116   42  122 1   
   117   43   44 1   
   118   43  123 1   
   119   43  124 1   
   120   44  125 1   
   121   44  126 1   
   122   44  127 1   
   123   45   46 1   
   124   45   47 1   
   125   45   48 1   
   126   45   49 1   
   127   50  128 1   
   128   50  129 1   
@<TRIPOS>SUBSTRUCTURE
     1 PTY         1 TEMP              0 ****  ****    0 ROOT
