@<TRIPOS>MOLECULE
PU
   66    69     1     0     0
SMALL
bcc


@<TRIPOS>ATOM
      1 P           0.5600    2.7350    3.9800 p5        1 PU       1.435700
      2 OP1        -0.0910    3.7890    4.8090 o         1 PU      -0.873500
      3 OP2         1.7630    1.9920    4.4790 o         1 PU      -0.873500
      4 OP3         1.2480    3.5270    2.6990 oh        1 PU      -0.792400
      5 N          -0.5500    1.7400    3.3700 n3        1 PU      -0.947300
      6 CA         -0.2170    0.4700    2.8270 c3        1 PU       0.207500
      7 C          -0.5850    0.3530    1.3100 c2        1 PU       0.536300
      8 O          -1.7670    0.6950    0.9630 o         1 PU      -0.841300
      9 CB         -0.9600   -0.7310    3.4560 c3        1 PU      -0.052100
     10 CG         -0.6500   -1.0910    4.8650 ca        1 PU      -0.067300
     11 CD1        -1.4480   -2.0730    5.4750 ca        1 PU      -0.113000
     12 CD2         0.4030   -0.5300    5.5950 ca        1 PU      -0.113000
     13 CE1        -1.2100   -2.4940    6.7790 ca        1 PU      -0.183500
     14 CE2         0.6580   -0.9410    6.9030 ca        1 PU      -0.183500
     15 CZ         -0.1470   -1.9210    7.4920 ca        1 PU       0.072100
     16 OC          0.0360   -2.4150    8.7820 os        1 PU      -0.353900
     17 CM          0.9190   -1.6600    9.5970 c3        1 PU       0.121700
     18 C4'        -0.4650   -1.5950   -1.3910 c3        1 PU       0.057100
     19 O4'         0.3280   -2.0360   -2.5090 os        1 PU      -0.424600
     20 C3'         0.0850   -0.2210   -0.8880 c3        1 PU       0.158500
     21 N3'         0.3640   -0.1520    0.5030 n2        1 PU      -0.638200
     22 C2'         1.3540    0.0150   -1.7680 c3        1 PU       0.132100
     23 O2'         2.6050   -0.2320   -1.1700 oh        1 PU      -0.622800
     24 C1'         1.2240   -1.0170   -2.9350 c3        1 PU       0.215800
     25 N9          0.7590   -0.4170   -4.1810 na        1 PU      -0.252000
     26 C8         -0.2570    0.5510   -4.3330 cc        1 PU       0.437700
     27 N7         -0.5640    0.8300   -5.6130 nd        1 PU      -0.574100
     28 C5          0.2610   -0.0050   -6.3780 ca        1 PU      -0.167200
     29 C6          0.4450   -0.1900   -7.7830 ca        1 PU       0.687200
     30 N6         -0.2670    0.6300   -8.7030 nh        1 PU      -0.729300
     31 C9          0.2320    0.6680  -10.0580 c3        1 PU       0.179100
     32 C10        -1.7080    0.5550   -8.6300 c3        1 PU       0.179100
     33 N1          1.3650   -1.1030   -8.2150 nb        1 PU      -0.787000
     34 C2          2.0830   -1.7810   -7.2750 ca        1 PU       0.638900
     35 C4          1.1010   -0.8150   -5.4800 ca        1 PU       0.436800
     36 N3          2.0260   -1.7140   -5.9290 nb        1 PU      -0.689000
     37 HN1        -1.4700    2.0340    3.1640 hn        1 PU       0.417800
     38 HA          0.8960    0.3270    2.9720 h1        1 PU       0.079700
     39 HB1        -0.7220   -1.6300    2.8210 hc        1 PU       0.049700
     40 HB2        -2.0650   -0.5440    3.3630 hc        1 PU       0.049700
     41 HD1        -2.2810   -2.5170    4.9100 ha        1 PU       0.174500
     42 HD2         1.0390    0.2730    5.1470 ha        1 PU       0.174500
     43 HE1        -1.8360   -3.2600    7.2540 ha        1 PU       0.123500
     44 HE2         1.4880   -0.4770    7.4540 ha        1 PU       0.123500
     45 HM1         0.8140   -2.1230   10.6110 h1        1 PU       0.030033
     46 HM2         1.9700   -1.7600    9.2320 h1        1 PU       0.030033
     47 HM3         0.6230   -0.5830    9.6240 h1        1 PU       0.030033
     48 HO5'       -2.5330   -0.7860   -0.1530 ho        1 PU       0.463000
     49 H3'        -0.6710    0.5610   -1.2170 h1        1 PU       0.021700
     50 HN'3        2.0990    3.1610    2.4900 ho        1 PU       0.416000
     51 H2'         1.3750    1.0740   -2.1410 h1        1 PU       0.049700
     52 HO2'        2.4570   -0.3670   -0.2190 ho        1 PU       0.460000
     53 H1'         2.2050   -1.5340   -3.1520 h2        1 PU       0.111700
     54 H8         -0.7190    1.0210   -3.4500 h5        1 PU       0.096800
     55 H91        -0.2980    1.4970  -10.5980 h1        1 PU       0.037033
     56 H92         1.3310    0.8880  -10.0470 h1        1 PU       0.037033
     57 H93         0.0620   -0.2900  -10.6210 h1        1 PU       0.037033
     58 H101       -2.1190    1.5300   -9.0090 h1        1 PU       0.037033
     59 H102       -2.1200   -0.2770   -9.2660 h1        1 PU       0.037033
     60 H103       -2.0580    0.4050   -7.5770 h1        1 PU       0.037033
     61 H2          2.8190   -2.5030   -7.6860 h5        1 PU       0.036100
     62 C5'        -1.9240   -1.5210   -1.8430 c3        1 PU       0.139400
     63 H5'        -2.0830   -0.6190   -2.4960 h1        1 PU       0.018200
     64 O5'        -2.8170   -1.4990   -0.7570 oh        1 PU      -0.638800
     65 H5''       -2.1910   -2.4420   -2.4290 h1        1 PU       0.018200
     66 H4'        -0.3480   -2.3990   -0.6160 h1        1 PU       0.084700
@<TRIPOS>BOND
     1    1    2 1   
     2    1    3 1   
     3    1    4 1   
     4    1    5 1   
     5    4   50 1   
     6    5    6 1   
     7    5   37 1   
     8    6    7 1   
     9    6    9 1   
    10    6   38 1   
    11    7    8 1   
    12    7   21 2   
    13    9   10 1   
    14    9   39 1   
    15    9   40 1   
    16   10   11 ar  
    17   10   12 ar  
    18   11   13 ar  
    19   11   41 1   
    20   12   14 ar  
    21   12   42 1   
    22   13   15 ar  
    23   13   43 1   
    24   14   15 ar  
    25   14   44 1   
    26   15   16 1   
    27   16   17 1   
    28   17   45 1   
    29   17   46 1   
    30   17   47 1   
    31   18   19 1   
    32   18   20 1   
    33   18   62 1   
    34   18   66 1   
    35   19   24 1   
    36   20   21 1   
    37   20   22 1   
    38   20   49 1   
    39   22   23 1   
    40   22   24 1   
    41   22   51 1   
    42   23   52 1   
    43   24   25 1   
    44   24   53 1   
    45   25   26 1   
    46   25   35 1   
    47   26   27 2   
    48   26   54 1   
    49   27   28 1   
    50   28   29 ar  
    51   28   35 ar  
    52   29   30 1   
    53   29   33 ar  
    54   30   31 1   
    55   30   32 1   
    56   31   55 1   
    57   31   56 1   
    58   31   57 1   
    59   32   58 1   
    60   32   59 1   
    61   32   60 1   
    62   33   34 ar  
    63   34   36 ar  
    64   34   61 1   
    65   35   36 ar  
    66   48   64 1   
    67   62   63 1   
    68   62   64 1   
    69   62   65 1   
@<TRIPOS>SUBSTRUCTURE
     1 PU          1 TEMP              0 ****  ****    0 ROOT
