@<TRIPOS>MOLECULE
PU0
   48    50     1     0     0
SMALL
bcc


@<TRIPOS>ATOM
      1 C19        -0.1230    0.6850   -0.4050 c3        1 PU0      0.115700
      2 C5          0.6270    0.4440    2.2830 ca        1 PU0     -0.168000
      3 O20         1.2600    0.6280   -0.0770 os        1 PU0     -0.323900
      4 C6          1.5610    0.3620    1.2460 ca        1 PU0      0.110100
      5 C4          1.0220    0.2140    3.6000 ca        1 PU0     -0.163000
      6 C3          2.3570   -0.0900    3.8720 ca        1 PU0      0.094100
      7 O2          2.8700   -0.3260    5.1360 os        1 PU0     -0.327900
      8 C8          1.9390   -0.2590    6.2090 c3        1 PU0      0.113700
      9 C2          3.3000   -0.1790    2.8330 ca        1 PU0     -0.126000
     10 C1          2.9110    0.0340    1.5130 ca        1 PU0     -0.077300
     11 C9          3.9100   -0.0500    0.4100 c3        1 PU0     -0.038400
     12 C10         4.1610   -1.4650   -0.0170 cc        1 PU0      0.413800
     13 N1          3.4220   -2.1220   -0.9370 nd        1 PU0     -0.532100
     14 C11         4.0070   -3.3850   -1.0580 ca        1 PU0     -0.241200
     15 C13         3.6930   -4.5270   -1.8690 ca        1 PU0      0.784200
     16 N5          2.6190   -4.4960   -2.7180 nv        1 PU0     -0.959500
     17 C12         5.1530   -3.4910   -0.1690 ca        1 PU0      0.469800
     18 N4          5.9450   -4.6010   -0.0620 nb        1 PU0     -0.749000
     19 C14         5.5310   -5.6080   -0.8940 ca        1 PU0      0.894200
     20 N3          4.4740   -5.6510   -1.7800 nb        1 PU0     -0.814000
     21 N2          5.2440   -2.2530    0.4800 na        1 PU0     -0.252000
     22 C15         6.2010   -1.9310    1.5010 c3        1 PU0      0.047300
     23 C16         6.0010   -2.6700    2.8260 c3        1 PU0     -0.108400
     24 C17         6.9950   -2.1580    3.8470 c3        1 PU0     -0.077400
     25 C18         6.8670   -2.9010    5.1520 c3        1 PU0     -0.093100
     26 F1          6.2720   -6.7470   -0.8420 f         1 PU0     -0.200200
     27 H191       -0.5940    1.5920    0.0490 h1        1 PU0      0.044367
     28 H192       -0.1220    0.7620   -1.5220 h1        1 PU0      0.044367
     29 H193       -0.6530   -0.2400   -0.0740 h1        1 PU0      0.044367
     30 H4          0.2770    0.2790    4.4060 ha        1 PU0      0.140000
     31 H8C1        1.4940    0.7630    6.2840 h1        1 PU0      0.044367
     32 H8C2        1.1370   -1.0270    6.0850 h1        1 PU0      0.044367
     33 H8C3        2.5640   -0.4840    7.1110 h1        1 PU0      0.044367
     34 H2          4.3470   -0.4210    3.0760 ha        1 PU0      0.151000
     35 H9C1        4.8710    0.4340    0.7320 hc        1 PU0      0.081700
     36 H9C2        3.5320    0.5220   -0.4850 hc        1 PU0      0.081700
     37 H5N1        2.4090   -5.2670   -3.3000 hn        1 PU0      0.452300
     38 H5N2        2.0900   -3.6630   -2.7860 hn        1 PU0      0.452300
     39 H151        6.1560   -0.8200    1.6870 h1        1 PU0      0.063200
     40 H152        7.2270   -2.1820    1.1010 h1        1 PU0      0.063200
     41 H161        6.1480   -3.7710    2.6710 hc        1 PU0      0.065200
     42 H162        4.9570   -2.5200    3.2070 hc        1 PU0      0.065200
     43 H171        6.8240   -1.0620    4.0210 hc        1 PU0      0.039200
     44 H172        8.0380   -2.2730    3.4490 hc        1 PU0      0.039200
     45 H181        7.6040   -2.5100    5.8930 hc        1 PU0      0.037033
     46 H182        5.8400   -2.7800    5.5750 hc        1 PU0      0.037033
     47 H183        7.0590   -3.9920    5.0040 hc        1 PU0      0.037033
     48 H5         -0.4240    0.6900    2.0740 ha        1 PU0      0.140000
@<TRIPOS>BOND
     1    1    3 1   
     2    1   27 1   
     3    1   28 1   
     4    1   29 1   
     5    2    4 ar  
     6    2    5 ar  
     7    2   48 1   
     8    3    4 1   
     9    4   10 ar  
    10    5    6 ar  
    11    5   30 1   
    12    6    7 1   
    13    6    9 ar  
    14    7    8 1   
    15    8   31 1   
    16    8   32 1   
    17    8   33 1   
    18    9   10 ar  
    19    9   34 1   
    20   10   11 1   
    21   11   12 1   
    22   11   35 1   
    23   11   36 1   
    24   12   13 2   
    25   12   21 1   
    26   13   14 1   
    27   14   15 ar  
    28   14   17 ar  
    29   15   16 1   
    30   15   20 ar  
    31   16   37 1   
    32   16   38 1   
    33   17   18 ar  
    34   17   21 1   
    35   18   19 ar  
    36   19   20 ar  
    37   19   26 1   
    38   21   22 1   
    39   22   23 1   
    40   22   39 1   
    41   22   40 1   
    42   23   24 1   
    43   23   41 1   
    44   23   42 1   
    45   24   25 1   
    46   24   43 1   
    47   24   44 1   
    48   25   45 1   
    49   25   46 1   
    50   25   47 1   
@<TRIPOS>SUBSTRUCTURE
     1 PU0         1 TEMP              0 ****  ****    0 ROOT
