@<TRIPOS>MOLECULE
PU0
   48    50     1     0     0
SMALL
bcc


@<TRIPOS>ATOM
      1 C19        -0.1070    0.6970   -0.4170 c3        1 PU0      0.115700
      2 C5          0.6410    0.4630    2.2730 ca        1 PU0     -0.168000
      3 O20         1.2760    0.6330   -0.0880 os        1 PU0     -0.323900
      4 C6          1.5750    0.3710    1.2360 ca        1 PU0      0.110100
      5 C4          1.0340    0.2380    3.5910 ca        1 PU0     -0.163000
      6 C3          2.3680   -0.0720    3.8650 ca        1 PU0      0.094100
      7 O2          2.8790   -0.3030    5.1300 os        1 PU0     -0.327900
      8 C8          1.9480   -0.2280    6.2020 c3        1 PU0      0.113700
      9 C2          3.3110   -0.1700    2.8260 ca        1 PU0     -0.126000
     10 C1          2.9230    0.0380    1.5060 ca        1 PU0     -0.077300
     11 C9          3.9220   -0.0570    0.4030 c3        1 PU0     -0.038400
     12 C10         4.1630   -1.4750   -0.0180 cc        1 PU0      0.413800
     13 N1          3.4210   -2.1300   -0.9360 nd        1 PU0     -0.532100
     14 C11         3.9980   -3.3980   -1.0520 ca        1 PU0     -0.241200
     15 C13         3.6760   -4.5420   -1.8590 ca        1 PU0      0.784200
     16 N5          2.6040   -4.5060   -2.7090 nh        1 PU0     -0.959500
     17 C12         5.1420   -3.5090   -0.1620 ca        1 PU0      0.469800
     18 N4          5.9270   -4.6230   -0.0500 nb        1 PU0     -0.749000
     19 C14         5.5070   -5.6310   -0.8780 ca        1 PU0      0.894200
     20 N3          4.4500   -5.6700   -1.7650 nb        1 PU0     -0.814000
     21 N2          5.2410   -2.2680    0.4820 na        1 PU0     -0.252000
     22 C15         6.1990   -1.9480    1.5030 c3        1 PU0      0.047300
     23 C16         5.9940   -2.6800    2.8310 c3        1 PU0     -0.108400
     24 C17         6.9910   -2.1710    3.8500 c3        1 PU0     -0.077400
     25 C18         6.8550   -2.9080    5.1580 c3        1 PU0     -0.093100
     26 F1          6.2400   -6.7740   -0.8210 f         1 PU0     -0.200200
     27 H191       -0.1050    0.7680   -1.5340 h1        1 PU0      0.044367
     28 H192       -0.6420   -0.2240   -0.0810 h1        1 PU0      0.044367
     29 H193       -0.5730    1.6070    0.0330 h1        1 PU0      0.044367
     30 H4          0.2900    0.3110    4.3960 ha        1 PU0      0.140000
     31 H8C1        1.5080    0.7970    6.2720 h1        1 PU0      0.044367
     32 H8C2        1.1420   -0.9920    6.0810 h1        1 PU0      0.044367
     33 H8C3        2.5710   -0.4520    7.1050 h1        1 PU0      0.044367
     34 H2          4.3560   -0.4160    3.0710 ha        1 PU0      0.151000
     35 H9C1        3.5480    0.5140   -0.4940 hc        1 PU0      0.081700
     36 H9C2        4.8860    0.4220    0.7240 hc        1 PU0      0.081700
     37 H5N1        2.0800   -3.6700   -2.7800 hn        1 PU0      0.452300
     38 H5N2        2.3890   -5.2780   -3.2880 hn        1 PU0      0.452300
     39 H151        6.1630   -0.8360    1.6840 h1        1 PU0      0.063700
     40 H152        7.2240   -2.2080    1.1050 h1        1 PU0      0.063700
     41 H161        6.1320   -3.7830    2.6800 hc        1 PU0      0.065200
     42 H162        4.9500   -2.5210    3.2110 hc        1 PU0      0.065200
     43 H171        8.0330   -2.2980    3.4530 hc        1 PU0      0.039200
     44 H172        6.8290   -1.0740    4.0190 hc        1 PU0      0.039200
     45 H181        5.8300   -2.7760    5.5800 hc        1 PU0      0.037033
     46 H182        7.5960   -2.5190    5.8980 hc        1 PU0      0.037033
     47 H183        7.0380   -4.0010    5.0160 hc        1 PU0      0.037033
     48 H5         -0.4090    0.7140    2.0630 ha        1 PU0      0.140000
@<TRIPOS>BOND
     1    1    3 1   
     2    1   27 1   
     3    1   28 1   
     4    1   29 1   
     5    2    4 ar  
     6    2    5 ar  
     7    2   48 1   
     8    3    4 1   
     9    4   10 ar  
    10    5    6 ar  
    11    5   30 1   
    12    6    7 1   
    13    6    9 ar  
    14    7    8 1   
    15    8   31 1   
    16    8   32 1   
    17    8   33 1   
    18    9   10 ar  
    19    9   34 1   
    20   10   11 1   
    21   11   12 1   
    22   11   35 1   
    23   11   36 1   
    24   12   13 2   
    25   12   21 1   
    26   13   14 1   
    27   14   15 ar  
    28   14   17 ar  
    29   15   16 1   
    30   15   20 ar  
    31   16   37 1   
    32   16   38 1   
    33   17   18 ar  
    34   17   21 1   
    35   18   19 ar  
    36   19   20 ar  
    37   19   26 1   
    38   21   22 1   
    39   22   23 1   
    40   22   39 1   
    41   22   40 1   
    42   23   24 1   
    43   23   41 1   
    44   23   42 1   
    45   24   25 1   
    46   24   43 1   
    47   24   44 1   
    48   25   45 1   
    49   25   46 1   
    50   25   47 1   
@<TRIPOS>SUBSTRUCTURE
     1 PU0         1 TEMP              0 ****  ****    0 ROOT
