@<TRIPOS>MOLECULE
PU0
   49    51     1     0     0
SMALL
bcc


@<TRIPOS>ATOM
      1 C19        -0.1130    0.8830   -0.3400 c3        1 PU0      0.111700
      2 C5          0.5780    0.2270    2.3010 ca        1 PU0     -0.157000
      3 O20         1.1570    0.2870   -0.0810 os        1 PU0     -0.338900
      4 C6          1.5040    0.1630    1.2520 ca        1 PU0      0.107100
      5 C4          1.0020    0.0700    3.6170 ca        1 PU0     -0.148000
      6 C3          2.3590   -0.1490    3.8840 ca        1 PU0      0.106100
      7 O2          2.8940   -0.3300    5.1430 os        1 PU0     -0.326900
      8 C8          2.0020   -0.1460    6.2390 c3        1 PU0      0.109700
      9 C2          3.2930   -0.2100    2.8360 ca        1 PU0     -0.130000
     10 C1          2.8730   -0.0610    1.5150 ca        1 PU0     -0.109300
     11 C9          3.8650   -0.0820    0.4050 c3        1 PU0     -0.051400
     12 C10         4.1590   -1.4860   -0.0440 cc        1 PU0      0.529800
     13 N1          3.4420   -2.1360   -0.9980 nd        1 PU0     -0.585100
     14 C11         4.0360   -3.3890   -1.1180 ca        1 PU0     -0.137200
     15 C13         3.7840   -4.5180   -1.9080 ca        1 PU0      0.531200
     16 N5          2.6550   -4.4730   -2.8560 n4        1 PU0     -0.813300
     17 C12         5.1830   -3.5010   -0.1860 ca        1 PU0      0.472800
     18 N4          5.9600   -4.6020   -0.0850 nb        1 PU0     -0.636000
     19 C14         5.5800   -5.6240   -0.9330 ca        1 PU0      0.886200
     20 N3          4.5340   -5.6440   -1.8380 nb        1 PU0     -0.708000
     21 N2          5.2350   -2.2640    0.4710 na        1 PU0     -0.240000
     22 C15         6.1840   -1.9290    1.5070 c3        1 PU0      0.031300
     23 C16         5.9720   -2.6650    2.8300 c3        1 PU0     -0.107400
     24 C17         6.9650   -2.1500    3.8530 c3        1 PU0     -0.077400
     25 C18         6.8250   -2.8890    5.1600 c3        1 PU0     -0.096100
     26 F1          6.3180   -6.7550   -0.8770 f         1 PU0     -0.150200
     27 H191       -0.2260    1.8460    0.2140 h1        1 PU0      0.051033
     28 H192       -0.0950    1.0620   -1.4450 h1        1 PU0      0.051033
     29 H193       -0.9320    0.1740   -0.0700 h1        1 PU0      0.051033
     30 H4          0.2660    0.1240    4.4340 ha        1 PU0      0.154000
     31 H8C1        1.1990   -0.9230    6.2240 h1        1 PU0      0.052700
     32 H8C2        1.5590    0.8790    6.2210 h1        1 PU0      0.052700
     33 H8C3        2.6630   -0.2770    7.1330 h1        1 PU0      0.052700
     34 H2          4.3560   -0.3640    3.0760 ha        1 PU0      0.149000
     35 H9C1        4.8150    0.4270    0.7240 hc        1 PU0      0.099700
     36 H9C2        3.4540    0.4880   -0.4780 hc        1 PU0      0.099700
     37 H5N1        2.8740   -3.7870   -3.5890 hn        1 PU0      0.478800
     38 H5N2        1.8170   -4.1650   -2.3460 hn        1 PU0      0.478800
     39 H151        6.1220   -0.8170    1.6830 h1        1 PU0      0.083200
     40 H152        7.2150   -2.1710    1.1130 h1        1 PU0      0.083200
     41 H161        4.9270   -2.5070    3.2080 hc        1 PU0      0.065700
     42 H162        6.1180   -3.7670    2.6840 hc        1 PU0      0.065700
     43 H171        6.7950   -1.0530    4.0210 hc        1 PU0      0.046700
     44 H172        8.0090   -2.2720    3.4610 hc        1 PU0      0.046700
     45 H181        5.7970   -2.7610    5.5780 hc        1 PU0      0.044700
     46 H182        7.5600   -2.4940    5.9030 hc        1 PU0      0.044700
     47 H183        7.0160   -3.9800    5.0200 hc        1 PU0      0.044700
     48 H53         2.4860   -5.3940   -3.2830 hn        1 PU0      0.478800
     49 H5         -0.4880    0.4060    2.0960 ha        1 PU0      0.151000
@<TRIPOS>BOND
     1    1    3 1   
     2    1   27 1   
     3    1   28 1   
     4    1   29 1   
     5    2    4 ar  
     6    2    5 ar  
     7    2   49 1   
     8    3    4 1   
     9    4   10 ar  
    10    5    6 ar  
    11    5   30 1   
    12    6    7 1   
    13    6    9 ar  
    14    7    8 1   
    15    8   31 1   
    16    8   32 1   
    17    8   33 1   
    18    9   10 ar  
    19    9   34 1   
    20   10   11 1   
    21   11   12 1   
    22   11   35 1   
    23   11   36 1   
    24   12   13 2   
    25   12   21 1   
    26   13   14 1   
    27   14   15 ar  
    28   14   17 ar  
    29   15   16 1   
    30   15   20 ar  
    31   16   37 1   
    32   16   38 1   
    33   16   48 1   
    34   17   18 ar  
    35   17   21 1   
    36   18   19 ar  
    37   19   20 ar  
    38   19   26 1   
    39   21   22 1   
    40   22   23 1   
    41   22   39 1   
    42   22   40 1   
    43   23   24 1   
    44   23   41 1   
    45   23   42 1   
    46   24   25 1   
    47   24   43 1   
    48   24   44 1   
    49   25   45 1   
    50   25   46 1   
    51   25   47 1   
@<TRIPOS>SUBSTRUCTURE
     1 PU0         1 TEMP              0 ****  ****    0 ROOT
