@<TRIPOS>MOLECULE
PU0
   48    50     1     0     0
SMALL
bcc


@<TRIPOS>ATOM
      1 C19        -4.6480   -0.2860   -1.9520 c3        1 PU0      0.115700
      2 C5         -2.4070    0.5170   -3.4300 ca        1 PU0     -0.168000
      3 O20        -3.3970   -0.9160   -1.7050 os        1 PU0     -0.323900
      4 C6         -2.3040   -0.3760   -2.3590 ca        1 PU0      0.110100
      5 C4         -1.2580    0.9740   -4.0730 ca        1 PU0     -0.163000
      6 C3         -0.0070    0.5250   -3.6430 ca        1 PU0      0.094100
      7 O2          1.2000    0.8970   -4.2090 os        1 PU0     -0.327900
      8 C8          1.1250    1.8130   -5.2930 c3        1 PU0      0.113700
      9 C2          0.1030   -0.3700   -2.5630 ca        1 PU0     -0.126000
     10 C1         -1.0390   -0.8180   -1.9060 ca        1 PU0     -0.077300
     11 C9         -0.9250   -1.7730   -0.7670 c3        1 PU0     -0.038400
     12 C10        -0.6000   -1.0790    0.5210 cc        1 PU0      0.413800
     13 N1         -1.5240   -0.5480    1.3500 nd        1 PU0     -0.532100
     14 C11        -0.8060   -0.0340    2.4340 ca        1 PU0     -0.241200
     15 C13        -1.2110    0.6410    3.6350 ca        1 PU0      0.784200
     16 N5         -2.5350    0.9050    3.8650 nh        1 PU0     -0.959500
     17 C12         0.6160   -0.2700    2.2470 ca        1 PU0      0.469800
     18 N4          1.5840    0.1050    3.1390 nb        1 PU0     -0.749000
     19 C14         1.0540    0.7330    4.2350 ca        1 PU0      0.894200
     20 N3         -0.2590    1.0250    4.5440 nb        1 PU0     -0.814000
     21 N2          0.7300   -0.9490    1.0260 na        1 PU0     -0.252000
     22 C15         1.9700   -1.3280    0.4120 c3        1 PU0      0.047300
     23 C16         2.8200   -0.1610   -0.0980 c3        1 PU0     -0.108400
     24 C17         4.0360   -0.6980   -0.8230 c3        1 PU0     -0.077400
     25 C18         4.9270    0.4230   -1.2930 c3        1 PU0     -0.093100
     26 F1          1.9580    1.1360    5.1680 f         1 PU0     -0.200200
     27 H191       -5.3370   -0.7840   -1.2230 h1        1 PU0      0.044367
     28 H192       -4.5900    0.8120   -1.7540 h1        1 PU0      0.044367
     29 H193       -4.9810   -0.4790   -3.0010 h1        1 PU0      0.044367
     30 H4         -1.3530    1.6770   -4.9120 ha        1 PU0      0.140000
     31 H8C1        2.1970    1.9690   -5.5780 h1        1 PU0      0.044367
     32 H8C2        0.5520    1.3710   -6.1450 h1        1 PU0      0.044367
     33 H8C3        0.6610    2.7750   -4.9670 h1        1 PU0      0.044367
     34 H2          1.1030   -0.7060   -2.2450 ha        1 PU0      0.151000
     35 H9C1       -0.1450   -2.5480   -0.9980 hc        1 PU0      0.081700
     36 H9C2       -1.9040   -2.3170   -0.6320 hc        1 PU0      0.081700
     37 H5N1       -2.8280    1.3460    4.7000 hn        1 PU0      0.452300
     38 H5N2       -3.2040    0.5910    3.2080 hn        1 PU0      0.452300
     39 H151        1.7400   -2.0200   -0.4480 h1        1 PU0      0.063200
     40 H152        2.5720   -1.9010    1.1770 h1        1 PU0      0.063200
     41 H161        3.1430    0.4770    0.7660 hc        1 PU0      0.065200
     42 H162        2.2230    0.4880   -0.7900 hc        1 PU0      0.065200
     43 H171        3.7070   -1.3100   -1.7050 hc        1 PU0      0.039200
     44 H172        4.6120   -1.3770   -0.1410 hc        1 PU0      0.039200
     45 H181        5.8160    0.0110   -1.8270 hc        1 PU0      0.037033
     46 H182        4.3760    1.0990   -1.9910 hc        1 PU0      0.037033
     47 H183        5.2860    1.0300   -0.4260 hc        1 PU0      0.037033
     48 H5         -3.3900    0.8670   -3.7760 ha        1 PU0      0.140000
@<TRIPOS>BOND
     1    1    3 1   
     2    1   27 1   
     3    1   28 1   
     4    1   29 1   
     5    2    4 ar  
     6    2    5 ar  
     7    2   48 1   
     8    3    4 1   
     9    4   10 ar  
    10    5    6 ar  
    11    5   30 1   
    12    6    7 1   
    13    6    9 ar  
    14    7    8 1   
    15    8   31 1   
    16    8   32 1   
    17    8   33 1   
    18    9   10 ar  
    19    9   34 1   
    20   10   11 1   
    21   11   12 1   
    22   11   35 1   
    23   11   36 1   
    24   12   13 2   
    25   12   21 1   
    26   13   14 1   
    27   14   15 ar  
    28   14   17 ar  
    29   15   16 1   
    30   15   20 ar  
    31   16   37 1   
    32   16   38 1   
    33   17   18 ar  
    34   17   21 1   
    35   18   19 ar  
    36   19   20 ar  
    37   19   26 1   
    38   21   22 1   
    39   22   23 1   
    40   22   39 1   
    41   22   40 1   
    42   23   24 1   
    43   23   41 1   
    44   23   42 1   
    45   24   25 1   
    46   24   43 1   
    47   24   44 1   
    48   25   45 1   
    49   25   46 1   
    50   25   47 1   
@<TRIPOS>SUBSTRUCTURE
     1 PU0         1 TEMP              0 ****  ****    0 ROOT
