@<TRIPOS>MOLECULE
PU1
   51    53     1     0     0
SMALL
bcc


@<TRIPOS>ATOM
      1 Cl          1.7230    1.8550   -1.8820 cl        1 PU1     -0.075400
      2 C13         2.3260    0.6390   -0.8550 ca        1 PU1     -0.021600
      3 C15         3.2240    0.9850    0.1750 ca        1 PU1      0.124100
      4 O3          3.5120    2.3180    0.4110 os        1 PU1     -0.326900
      5 C20         4.8500    2.6950    0.0740 c3        1 PU1      0.115700
      6 C17         3.7500   -0.0050    1.0220 ca        1 PU1      0.059100
      7 O2          4.7340    0.3490    1.9260 os        1 PU1     -0.327900
      8 C19         4.3360    0.2380    3.2960 c3        1 PU1      0.116700
      9 C16         3.3420   -1.3490    0.8520 ca        1 PU1      0.120100
     10 O1          3.8770   -2.2530    1.7440 os        1 PU1     -0.317900
     11 C18         3.5680   -3.6250    1.5110 c3        1 PU1      0.109700
     12 C14         2.4320   -1.6790   -0.1540 ca        1 PU1     -0.188000
     13 C12         1.9260   -0.6960   -1.0120 ca        1 PU1     -0.050300
     14 C6          0.9340   -1.1090   -2.0490 c3        1 PU1     -0.053400
     15 C5          1.4220   -2.2590   -2.8740 cc        1 PU1      0.405800
     16 N3          0.9960   -3.5350   -2.7630 nd        1 PU1     -0.545100
     17 C2          1.7040   -4.2510   -3.7330 ca        1 PU1     -0.242200
     18 C3          1.7030   -5.6350   -4.1140 ca        1 PU1      0.779200
     19 N5          0.9180   -6.5360   -3.4420 nv        1 PU1     -0.951500
     20 C1          2.5980   -3.3600   -4.4580 ca        1 PU1      0.473800
     21 N1          3.4260   -3.7540   -5.4710 nb        1 PU1     -0.746000
     22 C4          3.3160   -5.0960   -5.7300 ca        1 PU1      0.898200
     23 N2          2.5170   -6.0520   -5.1350 nb        1 PU1     -0.810000
     24 N4          2.4190   -2.0960   -3.8810 na        1 PU1     -0.244000
     25 C7          3.0190   -0.8700   -4.3220 c3        1 PU1      0.038300
     26 C8          2.2730   -0.1680   -5.4600 c3        1 PU1     -0.098400
     27 C9          3.0000    1.1200   -5.8110 c3        1 PU1     -0.000300
     28 C10         2.3340    1.8420   -6.8550 c1        1 PU1     -0.145100
     29 C11         1.7900    2.4550   -7.7260 c1        1 PU1     -0.148500
     30 F           4.1090   -5.5630   -6.7300 f         1 PU1     -0.196200
     31 H201        4.8970    3.7720    0.3720 h1        1 PU1      0.049033
     32 H202        5.0160    2.5790   -1.0240 h1        1 PU1      0.049033
     33 H203        5.5860    2.0850    0.6520 h1        1 PU1      0.049033
     34 H191        5.2500    0.5570    3.8560 h1        1 PU1      0.047367
     35 H192        3.4800    0.9230    3.5050 h1        1 PU1      0.047367
     36 H193        4.0670   -0.8180    3.5380 h1        1 PU1      0.047367
     37 H181        2.4750   -3.8080    1.6470 h1        1 PU1      0.050367
     38 H182        4.1590   -4.1570    2.3000 h1        1 PU1      0.050367
     39 H183        3.8970   -3.9390    0.4910 h1        1 PU1      0.050367
     40 H14         2.1030   -2.7210   -0.2900 ha        1 PU1      0.161000
     41 H6C1       -0.0190   -1.4120   -1.5290 hc        1 PU1      0.089200
     42 H6C2        0.6810   -0.2560   -2.7380 hc        1 PU1      0.089200
     43 H5N1        0.8470   -7.4720   -3.7590 hn        1 PU1      0.449300
     44 H5N2        0.2460   -6.1880   -2.8030 hn        1 PU1      0.449300
     45 H7C1        3.0710   -0.1770   -3.4310 h1        1 PU1      0.076200
     46 H7C2        4.0710   -1.1000   -4.6610 h1        1 PU1      0.076200
     47 H8C1        2.2260   -0.8350   -6.3600 hc        1 PU1      0.062700
     48 H8C2        1.2210    0.0630   -5.1510 hc        1 PU1      0.062700
     49 H9C1        3.0730    1.7730   -4.8960 hc        1 PU1      0.062700
     50 H9C2        4.0520    0.8810   -6.1370 hc        1 PU1      0.062700
     51 H11         1.3090    2.9990   -8.4980 ha        1 PU1      0.165500
@<TRIPOS>BOND
     1    1    2 1   
     2    2    3 ar  
     3    2   13 ar  
     4    3    4 1   
     5    3    6 ar  
     6    4    5 1   
     7    5   31 1   
     8    5   32 1   
     9    5   33 1   
    10    6    7 1   
    11    6    9 ar  
    12    7    8 1   
    13    8   34 1   
    14    8   35 1   
    15    8   36 1   
    16    9   10 1   
    17    9   12 ar  
    18   10   11 1   
    19   11   37 1   
    20   11   38 1   
    21   11   39 1   
    22   12   13 ar  
    23   12   40 1   
    24   13   14 1   
    25   14   15 1   
    26   14   41 1   
    27   14   42 1   
    28   15   16 2   
    29   15   24 1   
    30   16   17 1   
    31   17   18 ar  
    32   17   20 ar  
    33   18   19 1   
    34   18   23 ar  
    35   19   43 1   
    36   19   44 1   
    37   20   21 ar  
    38   20   24 1   
    39   21   22 ar  
    40   22   23 ar  
    41   22   30 1   
    42   24   25 1   
    43   25   26 1   
    44   25   45 1   
    45   25   46 1   
    46   26   27 1   
    47   26   47 1   
    48   26   48 1   
    49   27   28 1   
    50   27   49 1   
    51   27   50 1   
    52   28   29 3   
    53   29   51 1   
@<TRIPOS>SUBSTRUCTURE
     1 PU1         1 TEMP              0 ****  ****    0 ROOT
