@<TRIPOS>MOLECULE
PU1
   52    53     1     0     0
SMALL
bcc


@<TRIPOS>ATOM
      1 CL          0.1790   -1.0610   -0.0490 cl        1 PU1     -0.079400
      2 C13         1.7680   -0.4940   -0.2650 ca        1 PU1     -0.011600
      3 C15         2.6290   -0.3700    0.8460 ca        1 PU1      0.135100
      4 O3          2.2170   -0.8550    2.0710 os        1 PU1     -0.326900
      5 C20         2.0210    0.1490    3.0750 c3        1 PU1      0.114700
      6 C17         3.9260    0.1480    0.6780 ca        1 PU1      0.084100
      7 O2          4.6810    0.3910    1.8050 os        1 PU1     -0.322900
      8 C19         5.9040   -0.3520    1.8830 c3        1 PU1      0.114700
      9 C16         4.3620    0.5220   -0.6170 ca        1 PU1      0.128100
     10 O1          5.6460    1.0050   -0.6960 os        1 PU1     -0.308900
     11 C18         6.0410    1.5740   -1.9430 c3        1 PU1      0.107700
     12 C14         3.5150    0.3570   -1.7160 ca        1 PU1     -0.201000
     13 C12         2.2210   -0.1520   -1.5450 ca        1 PU1     -0.096300
     14 C6          1.3320   -0.2450   -2.7380 c3        1 PU1     -0.070400
     15 C5          0.8620   -1.6430   -3.0120 cc        1 PU1      0.497800
     16 N3         -0.4230   -2.0130   -3.1160 nd        1 PU1     -0.573100
     17 C2         -0.3980   -3.3930   -3.3870 ca        1 PU1     -0.124200
     18 C3         -1.3990   -4.3470   -3.5760 ca        1 PU1      0.529200
     19 N5         -2.8120   -3.9340   -3.4880 n4        1 PU1     -0.813300
     20 C1          0.9920   -3.8870   -3.4640 ca        1 PU1      0.521800
     21 N1          1.3190   -5.1610   -3.7110 nb        1 PU1     -0.585000
     22 C4          0.2110   -5.9930   -3.8860 ca        1 PU1      0.899200
     23 N2         -1.1200   -5.6570   -3.8310 nb        1 PU1     -0.706000
     24 N4          1.8160   -2.7380   -3.2230 na        1 PU1     -0.228300
     25 C7          3.1450   -2.7830   -3.2240 c1        1 PU1      0.099500
     26 C8          4.5740   -2.1290   -5.6910 c3        1 PU1     -0.094100
     27 C9          5.2870   -0.8290   -5.3940 c3        1 PU1     -0.006300
     28 C10         4.7230    0.2850   -6.0990 c1        1 PU1     -0.165100
     29 C11         4.2710    1.2210   -6.6910 c1        1 PU1     -0.141500
     30 F           0.4790   -7.2900   -4.1410 f         1 PU1     -0.136200
     31 H201        1.7380   -0.4510    3.9770 h1        1 PU1      0.057033
     32 H202        2.9640    0.7200    3.2510 h1        1 PU1      0.057033
     33 H203        1.1920    0.8320    2.7730 h1        1 PU1      0.057033
     34 H191        6.3350   -0.0240    2.8630 h1        1 PU1      0.055033
     35 H192        6.5810   -0.0800    1.0380 h1        1 PU1      0.055033
     36 H193        5.6900   -1.4470    1.8870 h1        1 PU1      0.055033
     37 H181        5.3430    2.3900   -2.2470 h1        1 PU1      0.055367
     38 H182        6.0960    0.7830   -2.7310 h1        1 PU1      0.055367
     39 H183        7.0610    1.9830   -1.7230 h1        1 PU1      0.055367
     40 H14         3.8550    0.6490   -2.7220 ha        1 PU1      0.152000
     41 H6C1        1.8650    0.1230   -3.6610 hc        1 PU1      0.108200
     42 H6C2        0.4350    0.4210   -2.5790 hc        1 PU1      0.108200
     43 H5N1       -2.9450   -3.0960   -4.0710 hn        1 PU1      0.482133
     44 H5N2       -3.0240   -3.7020   -2.5090 hn        1 PU1      0.482133
     45 H7C1        4.9510   -2.9370   -5.0170 hc        1 PU1      0.042367
     46 H7C2        3.6510   -1.8140   -3.0080 ha        1 PU1      0.026500
     47 H8C1        3.4720   -2.0220   -5.5370 hc        1 PU1      0.042367
     48 H8C2        4.7440   -2.4380   -6.7510 hc        1 PU1      0.042367
     49 H9C1        6.3750   -0.9300   -5.6690 hc        1 PU1      0.057200
     50 H9C2        5.2460   -0.6220   -4.2850 hc        1 PU1      0.057200
     51 H11         3.8830    2.0520   -7.2250 ha        1 PU1      0.171500
     52 H53        -3.4400   -4.6850   -3.8080 hn        1 PU1      0.482133
@<TRIPOS>BOND
     1    1    2 1   
     2    2    3 ar  
     3    2   13 ar  
     4    3    4 1   
     5    3    6 ar  
     6    4    5 1   
     7    5   31 1   
     8    5   32 1   
     9    5   33 1   
    10    6    7 1   
    11    6    9 ar  
    12    7    8 1   
    13    8   34 1   
    14    8   35 1   
    15    8   36 1   
    16    9   10 1   
    17    9   12 ar  
    18   10   11 1   
    19   11   37 1   
    20   11   38 1   
    21   11   39 1   
    22   12   13 ar  
    23   12   40 1   
    24   13   14 1   
    25   14   15 1   
    26   14   41 1   
    27   14   42 1   
    28   15   16 2   
    29   15   24 1   
    30   16   17 1   
    31   17   18 ar  
    32   17   20 ar  
    33   18   19 1   
    34   18   23 ar  
    35   19   43 1   
    36   19   44 1   
    37   19   52 1   
    38   20   21 ar  
    39   20   24 1   
    40   21   22 ar  
    41   22   23 ar  
    42   22   30 1   
    43   24   25 3   
    44   25   46 1   
    45   26   27 1   
    46   26   45 1   
    47   26   47 1   
    48   26   48 1   
    49   27   28 1   
    50   27   49 1   
    51   27   50 1   
    52   28   29 3   
    53   29   51 1   
@<TRIPOS>SUBSTRUCTURE
     1 PU1         1 TEMP              0 ****  ****    0 ROOT
