@<TRIPOS>MOLECULE
PU1
   51    53     1     0     0
SMALL
bcc


@<TRIPOS>ATOM
      1 CL          1.6410    1.8620   -1.9000 cl        1 PU1     -0.075400
      2 C13         2.2630    0.6650   -0.8610 ca        1 PU1     -0.021600
      3 C15         3.1430    1.0370    0.1770 ca        1 PU1      0.124100
      4 O3          3.3970    2.3780    0.4080 os        1 PU1     -0.326900
      5 C20         4.7300    2.7830    0.0810 c3        1 PU1      0.115700
      6 C17         3.6830    0.0640    1.0340 ca        1 PU1      0.059100
      7 O2          4.6500    0.4450    1.9450 os        1 PU1     -0.327900
      8 C19         4.2420    0.3330    3.3110 c3        1 PU1      0.116700
      9 C16         3.3070   -1.2890    0.8670 ca        1 PU1      0.120100
     10 O1          3.8550   -2.1770    1.7680 os        1 PU1     -0.317900
     11 C18         3.5790   -3.5570    1.5410 c3        1 PU1      0.109700
     12 C14         2.4150   -1.6460   -0.1450 ca        1 PU1     -0.188000
     13 C12         1.8950   -0.6790   -1.0140 ca        1 PU1     -0.050300
     14 C6          0.9220   -1.1200   -2.0570 c3        1 PU1     -0.053400
     15 C5          1.4440   -2.2640   -2.8710 cc        1 PU1      0.405800
     16 N3          1.0440   -3.5490   -2.7570 nd        1 PU1     -0.545100
     17 C2          1.7780   -4.2530   -3.7160 ca        1 PU1     -0.242200
     18 C3          1.8110   -5.6400   -4.0900 ca        1 PU1      0.779200
     19 N5          1.0390   -6.5540   -3.4200 nh        1 PU1     -0.951500
     20 C1          2.6600   -3.3470   -4.4370 ca        1 PU1      0.473800
     21 N1          3.5070   -3.7280   -5.4390 nb        1 PU1     -0.746000
     22 C4          3.4290   -5.0740   -5.6910 ca        1 PU1      0.898200
     23 N2          2.6450   -6.0430   -5.0990 nb        1 PU1     -0.810000
     24 N4          2.4480   -2.0850   -3.8690 na        1 PU1     -0.244000
     25 C7          3.0250   -0.8480   -4.3110 c3        1 PU1      0.038300
     26 C8          2.2770   -0.1690   -5.4600 c3        1 PU1     -0.098400
     27 C9          2.9790    1.1330   -5.8120 c3        1 PU1     -0.000300
     28 C10         2.3090    1.8330   -6.8670 c1        1 PU1     -0.145100
     29 C11         1.7610    2.4300   -7.7470 c1        1 PU1     -0.148500
     30 F           4.2420   -5.5290   -6.6810 f         1 PU1     -0.196200
     31 H201        4.7490    3.8630    0.3740 h1        1 PU1      0.049033
     32 H202        4.9090    2.6660   -1.0140 h1        1 PU1      0.049033
     33 H203        5.4740    2.1930    0.6690 h1        1 PU1      0.049033
     34 H191        3.3680    0.9980    3.5090 h1        1 PU1      0.047367
     35 H192        3.9950   -0.7280    3.5570 h1        1 PU1      0.047367
     36 H193        5.1430    0.6760    3.8790 h1        1 PU1      0.047367
     37 H181        3.9250   -3.8690    0.5260 h1        1 PU1      0.050367
     38 H182        2.4890   -3.7640    1.6680 h1        1 PU1      0.050367
     39 H183        4.1750   -4.0710    2.3380 h1        1 PU1      0.050367
     40 H14         2.1110   -2.6960   -0.2790 ha        1 PU1      0.161000
     41 H6C1        0.6570   -0.2780   -2.7540 hc        1 PU1      0.089200
     42 H6C2       -0.0290   -1.4420   -1.5440 hc        1 PU1      0.089200
     43 H5N1        0.3530   -6.2170   -2.7910 hn        1 PU1      0.449300
     44 H5N2        0.9920   -7.4920   -3.7330 hn        1 PU1      0.449300
     45 H7C1        3.0520   -0.1490   -3.4230 h1        1 PU1      0.076200
     46 H7C2        4.0850   -1.0560   -4.6360 h1        1 PU1      0.076200
     47 H8C1        2.2540   -0.8420   -6.3560 hc        1 PU1      0.062700
     48 H8C2        1.2160    0.0410   -5.1640 hc        1 PU1      0.062700
     49 H9C1        3.0280    1.7930   -4.8990 hc        1 PU1      0.062700
     50 H9C2        4.0390    0.9150   -6.1240 hc        1 PU1      0.062700
     51 H11         1.2770    2.9580   -8.5280 ha        1 PU1      0.165500
@<TRIPOS>BOND
     1    1    2 1   
     2    2    3 ar  
     3    2   13 ar  
     4    3    4 1   
     5    3    6 ar  
     6    4    5 1   
     7    5   31 1   
     8    5   32 1   
     9    5   33 1   
    10    6    7 1   
    11    6    9 ar  
    12    7    8 1   
    13    8   34 1   
    14    8   35 1   
    15    8   36 1   
    16    9   10 1   
    17    9   12 ar  
    18   10   11 1   
    19   11   37 1   
    20   11   38 1   
    21   11   39 1   
    22   12   13 ar  
    23   12   40 1   
    24   13   14 1   
    25   14   15 1   
    26   14   41 1   
    27   14   42 1   
    28   15   16 2   
    29   15   24 1   
    30   16   17 1   
    31   17   18 ar  
    32   17   20 ar  
    33   18   19 1   
    34   18   23 ar  
    35   19   43 1   
    36   19   44 1   
    37   20   21 ar  
    38   20   24 1   
    39   21   22 ar  
    40   22   23 ar  
    41   22   30 1   
    42   24   25 1   
    43   25   26 1   
    44   25   45 1   
    45   25   46 1   
    46   26   27 1   
    47   26   47 1   
    48   26   48 1   
    49   27   28 1   
    50   27   49 1   
    51   27   50 1   
    52   28   29 3   
    53   29   51 1   
@<TRIPOS>SUBSTRUCTURE
     1 PU1         1 TEMP              0 ****  ****    0 ROOT
