@<TRIPOS>MOLECULE
PU1
   51    53     1     0     0
SMALL
bcc


@<TRIPOS>ATOM
      1 CL          1.1690   -2.8290   -1.6230 cl        1 PU1     -0.075400
      2 C13         0.5430   -1.3050   -2.0510 ca        1 PU1     -0.021600
      3 C15         0.9240   -0.7190   -3.2760 ca        1 PU1      0.124100
      4 O3          1.7050   -1.4390   -4.1630 os        1 PU1     -0.326900
      5 C20         3.0350   -0.9330   -4.3120 c3        1 PU1      0.115700
      6 C17         0.4350    0.5470   -3.6400 ca        1 PU1      0.059100
      7 O2          0.9400    1.1510   -4.7770 os        1 PU1     -0.327900
      8 C19        -0.0190    1.3170   -5.8240 c3        1 PU1      0.116700
      9 C16        -0.4690    1.2130   -2.7810 ca        1 PU1      0.120100
     10 O1         -0.9270    2.4350   -3.2260 os        1 PU1     -0.317900
     11 C18        -1.7450    3.1700   -2.3190 c3        1 PU1      0.109700
     12 C14        -0.8610    0.6150   -1.5820 ca        1 PU1     -0.188000
     13 C12        -0.3570   -0.6370   -1.2080 ca        1 PU1     -0.050300
     14 C6         -0.8380   -1.2360    0.0710 c3        1 PU1     -0.053400
     15 C5         -0.6900   -0.2970    1.2280 cc        1 PU1      0.405800
     16 N3         -1.6990    0.3800    1.8170 nd        1 PU1     -0.545100
     17 C2         -1.1040    1.1110    2.8500 ca        1 PU1     -0.242200
     18 C3         -1.6340    2.0150    3.8310 ca        1 PU1      0.779200
     19 N5         -2.9690    2.3300    3.8310 nh        1 PU1     -0.951500
     20 C1          0.3300    0.8590    2.8800 ca        1 PU1      0.473800
     21 N1          1.1940    1.4240    3.7750 nb        1 PU1     -0.746000
     22 C4          0.5510    2.2590    4.6510 ca        1 PU1      0.898200
     23 N2         -0.7870    2.5850    4.7460 nb        1 PU1     -0.810000
     24 N4          0.5780   -0.0250    1.8230 na        1 PU1     -0.244000
     25 C7          1.8370   -0.6370    1.5070 c3        1 PU1      0.038300
     26 C8          2.1450   -1.9090    2.3000 c3        1 PU1     -0.098400
     27 C9          3.4890   -2.4610    1.8530 c3        1 PU1     -0.000300
     28 C10         3.8230   -3.6730    2.5400 c1        1 PU1     -0.145100
     29 C11         4.1170   -4.6860    3.1060 c1        1 PU1     -0.148500
     30 F           1.3460    2.8570    5.5770 f         1 PU1     -0.196200
     31 H201        3.4810   -1.6070   -5.0860 h1        1 PU1      0.049033
     32 H202        3.0140    0.1260   -4.6660 h1        1 PU1      0.049033
     33 H203        3.5880   -1.0170   -3.3460 h1        1 PU1      0.049033
     34 H191        0.5680    1.8150   -6.6360 h1        1 PU1      0.047367
     35 H192       -0.4000    0.3230   -6.1600 h1        1 PU1      0.047367
     36 H193       -0.8600    1.9680   -5.4820 h1        1 PU1      0.047367
     37 H181       -1.9270    4.1320   -2.8620 h1        1 PU1      0.050367
     38 H182       -2.7060    2.6310   -2.1350 h1        1 PU1      0.050367
     39 H183       -1.2060    3.3540   -1.3580 h1        1 PU1      0.050367
     40 H14        -1.5710    1.1210   -0.9100 ha        1 PU1      0.161000
     41 H6C1       -1.9270   -1.5000   -0.0460 hc        1 PU1      0.089200
     42 H6C2       -0.2880   -2.1880    0.3110 hc        1 PU1      0.089200
     43 H5N1       -3.3520    2.8820    4.5590 hn        1 PU1      0.449300
     44 H5N2       -3.5740    1.8060    3.2490 hn        1 PU1      0.449300
     45 H7C1        1.8280   -0.8810    0.4040 h1        1 PU1      0.076200
     46 H7C2        2.6500    0.1210    1.7010 h1        1 PU1      0.076200
     47 H8C1        2.1720   -1.6830    3.3970 hc        1 PU1      0.062700
     48 H8C2        1.3450   -2.6760    2.1300 hc        1 PU1      0.062700
     49 H9C1        3.4660   -2.6570    0.7430 hc        1 PU1      0.062700
     50 H9C2        4.2910   -1.6930    2.0400 hc        1 PU1      0.062700
     51 H11         4.3780   -5.5820    3.6080 ha        1 PU1      0.165500
@<TRIPOS>BOND
     1    1    2 1   
     2    2    3 ar  
     3    2   13 ar  
     4    3    4 1   
     5    3    6 ar  
     6    4    5 1   
     7    5   31 1   
     8    5   32 1   
     9    5   33 1   
    10    6    7 1   
    11    6    9 ar  
    12    7    8 1   
    13    8   34 1   
    14    8   35 1   
    15    8   36 1   
    16    9   10 1   
    17    9   12 ar  
    18   10   11 1   
    19   11   37 1   
    20   11   38 1   
    21   11   39 1   
    22   12   13 ar  
    23   12   40 1   
    24   13   14 1   
    25   14   15 1   
    26   14   41 1   
    27   14   42 1   
    28   15   16 2   
    29   15   24 1   
    30   16   17 1   
    31   17   18 ar  
    32   17   20 ar  
    33   18   19 1   
    34   18   23 ar  
    35   19   43 1   
    36   19   44 1   
    37   20   21 ar  
    38   20   24 1   
    39   21   22 ar  
    40   22   23 ar  
    41   22   30 1   
    42   24   25 1   
    43   25   26 1   
    44   25   45 1   
    45   25   46 1   
    46   26   27 1   
    47   26   47 1   
    48   26   48 1   
    49   27   28 1   
    50   27   49 1   
    51   27   50 1   
    52   28   29 3   
    53   29   51 1   
@<TRIPOS>SUBSTRUCTURE
     1 PU1         1 TEMP              0 ****  ****    0 ROOT
