@<TRIPOS>MOLECULE
PU2
   36    38     1     0     0
SMALL
bcc


@<TRIPOS>ATOM
      1 C18        -3.6670   -0.4190    2.0870 c3        1 PU2      0.115700
      2 N2          0.6690    2.0140   -1.3510 nc        1 PU2     -0.634700
      3 C12         0.5690    1.2320   -2.5250 ca        1 PU2      0.592300
      4 N4          1.2190    1.3750   -3.7180 nb        1 PU2     -0.673000
      5 C14         0.8680    0.4280   -4.6380 ca        1 PU2      0.857200
      6 C9         -0.4760    1.9490    0.9120 c3        1 PU2     -0.050400
      7 N3         -0.0140   -0.6350   -4.5240 nb        1 PU2     -0.772000
      8 C11        -0.4030    0.1610   -2.2940 ca        1 PU2     -0.374800
      9 C13        -0.6710   -0.7700   -3.3410 ca        1 PU2      0.697200
     10 N5         -1.6510   -1.7550   -3.1680 nh        1 PU2     -0.920500
     11 N1         -0.8620    0.3210   -0.9910 na        1 PU2     -0.240300
     12 C10        -0.2010    1.4500   -0.4740 cd        1 PU2      0.449800
     13 C1         -1.3260   -0.0160    2.2550 ca        1 PU2      0.075100
     14 C6         -0.2860    0.8860    1.9380 ca        1 PU2     -0.081300
     15 C5          0.9220    0.7860    2.6230 ca        1 PU2     -0.113000
     16 C2         -1.1610   -0.9840    3.2480 ca        1 PU2     -0.155000
     17 C3          0.0480   -1.0750    3.9360 ca        1 PU2     -0.170000
     18 C4          1.0860   -0.1940    3.6210 ca        1 PU2      0.106100
     19 O1          2.3240   -0.1860    4.2340 os        1 PU2     -0.321900
     20 O2         -2.4810    0.0990    1.4920 os        1 PU2     -0.356900
     21 C7          2.5390   -1.1840    5.2260 c3        1 PU2      0.112700
     22 H181       -4.4850   -0.0170    1.4360 h1        1 PU2      0.047367
     23 H182       -3.6540   -1.5360    2.0560 h1        1 PU2      0.047367
     24 H183       -3.7820   -0.0580    3.1370 h1        1 PU2      0.047367
     25 H9C1       -1.5390    2.3200    0.9460 hc        1 PU2      0.090700
     26 H9C2        0.2020    2.8200    1.1300 hc        1 PU2      0.090700
     27 H5N1       -1.7300   -2.4200   -3.9090 hn        1 PU2      0.408300
     28 H5N2       -1.6490   -2.1660   -2.2610 hn        1 PU2      0.408300
     29 H1         -1.5910   -0.1790   -0.5470 hn        1 PU2      0.326700
     30 H5          1.7560    1.4690    2.3960 ha        1 PU2      0.165000
     31 H2         -1.9760   -1.6790    3.4960 ha        1 PU2      0.141000
     32 H3          0.1690   -1.8400    4.7170 ha        1 PU2      0.143000
     33 H7C1        3.5910   -0.9950    5.5580 h1        1 PU2      0.046033
     34 H7C2        1.8280   -1.0530    6.0770 h1        1 PU2      0.046033
     35 H7C3        2.4410   -2.2060    4.7870 h1        1 PU2      0.046033
     36 F1          1.4810    0.5230   -5.8480 f         1 PU2     -0.198200
@<TRIPOS>BOND
     1    1   20 1   
     2    1   22 1   
     3    1   23 1   
     4    1   24 1   
     5    2    3 1   
     6    2   12 2   
     7    3    4 ar  
     8    3    8 ar  
     9    4    5 ar  
    10    5    7 ar  
    11    5   36 1   
    12    6   12 1   
    13    6   14 1   
    14    6   25 1   
    15    6   26 1   
    16    7    9 ar  
    17    8    9 ar  
    18    8   11 1   
    19    9   10 1   
    20   10   27 1   
    21   10   28 1   
    22   11   12 1   
    23   11   29 1   
    24   13   14 ar  
    25   13   16 ar  
    26   13   20 1   
    27   14   15 ar  
    28   15   18 ar  
    29   15   30 1   
    30   16   17 ar  
    31   16   31 1   
    32   17   18 ar  
    33   17   32 1   
    34   18   19 1   
    35   19   21 1   
    36   21   33 1   
    37   21   34 1   
    38   21   35 1   
@<TRIPOS>SUBSTRUCTURE
     1 PU2         1 TEMP              0 ****  ****    0 ROOT
