@<TRIPOS>MOLECULE
PU2
   37    39     1     0     0
SMALL
bcc


@<TRIPOS>ATOM
      1 C18        -0.4870   -2.5700    1.4920 c3        1 PU2     -0.080000
      2 N2          3.0810   -2.9670   -0.4650 na        1 PU2     -0.205000
      3 C12         3.9280   -3.7930   -1.2050 c2        1 PU2      0.087000
      4 N4          3.8210   -5.0890   -1.5750 n2        1 PU2     -0.111000
      5 C14         4.8990   -5.5380   -2.3120 c2        1 PU2      0.227000
      6 C9          3.0610   -0.5540    0.3360 c3        1 PU2     -0.082000
      7 N3          6.0300   -4.8380   -2.6930 n2        1 PU2     -0.180000
      8 C11         5.0820   -2.9280   -1.5510 c2        1 PU2     -0.152000
      9 C13         6.0950   -3.5440   -2.3000 c2        1 PU2      0.020000
     10 N5          7.2780   -2.7450   -2.6720 n4        1 PU2     -0.008000
     11 N1          4.9010   -1.6490   -1.0280 n2        1 PU2     -0.154000
     12 C10         3.7060   -1.6960   -0.3850 c2        1 PU2      0.117000
     13 C1          1.3670   -1.1940    2.0920 c2        1 PU2      0.036000
     14 C6          2.8050   -0.8730    1.8110 c3        1 PU2     -0.127000
     15 C5          3.4060    0.1900    2.6320 c1        1 PU2     -0.032000
     16 C2          0.7010   -0.6210    3.1310 c2        1 PU2     -0.222000
     17 C3          1.3540    0.3360    3.9730 c2        1 PU2     -0.085000
     18 C4          2.6650    0.6830    3.7490 c2        1 PU2     -0.042000
     19 O1          3.3860    1.5640    4.5310 os        1 PU2     -0.168000
     20 O2          0.8510   -2.1360    1.2360 os        1 PU2     -0.254000
     21 C7          2.6680    2.2030    5.5800 c3        1 PU2     -0.091000
     22 H181        2.2020   -3.2160   -0.0660 hn        1 PU2      0.316000
     23 H182       -0.5580   -3.0280    2.5090 h1        1 PU2      0.099667
     24 H183       -0.6700   -3.3350    0.6950 h1        1 PU2      0.099667
     25 H9C1        2.0910   -0.3100   -0.1780 hc        1 PU2      0.155000
     26 H9C2        3.7370    0.3470    0.2670 hc        1 PU2      0.155000
     27 H5N1        7.6790   -2.3410   -1.8140 hn        1 PU2      0.276333
     28 H5N2        7.9850   -3.3200   -3.1500 hn        1 PU2      0.276333
     29 H1         -1.1960   -1.7140    1.3920 h1        1 PU2      0.099667
     30 H5          3.4110   -1.7870    2.1290 hc        1 PU2      0.175000
     31 H2          0.7570    0.7760    4.7890 ha        1 PU2      0.156000
     32 H3         -0.3470   -0.8670    3.3590 ha        1 PU2      0.156000
     33 H7C1        2.3020    1.4520    6.3230 h1        1 PU2      0.089667
     34 H7C2        3.4340    2.8750    6.0440 h1        1 PU2      0.089667
     35 H7C3        1.8150    2.7990    5.1730 h1        1 PU2      0.089667
     36 H53         6.9750   -1.9830   -3.2920 hn        1 PU2      0.276333
     37 F1          4.8540   -6.8270   -2.7150 f         1 PU2     -0.005000
@<TRIPOS>BOND
     1    1   20 1   
     2    1   23 1   
     3    1   24 1   
     4    1   29 1   
     5    2    3 1   
     6    2   12 1   
     7    2   22 1   
     8    3    4 1   
     9    3    8 1   
    10    4    5 1   
    11    5    7 1   
    12    5   37 1   
    13    6   12 1   
    14    6   14 1   
    15    6   25 1   
    16    6   26 1   
    17    7    9 1   
    18    8    9 1   
    19    8   11 1   
    20    9   10 1   
    21   10   27 1   
    22   10   28 1   
    23   10   36 1   
    24   11   12 1   
    25   13   14 1   
    26   13   16 1   
    27   13   20 1   
    28   14   15 1   
    29   14   30 1   
    30   15   18 1   
    31   16   17 1   
    32   16   32 1   
    33   17   18 1   
    34   17   31 1   
    35   18   19 1   
    36   19   21 1   
    37   21   33 1   
    38   21   34 1   
    39   21   35 1   
@<TRIPOS>SUBSTRUCTURE
     1 PU2         1 TEMP              0 ****  ****    0 ROOT
