@<TRIPOS>MOLECULE
PU3
   52    54     1     0     0
SMALL
bcc


@<TRIPOS>ATOM
      1 C19         0.7730   -1.6040    0.0830 c3        1 PU3      0.111200
      2 O3          1.9410   -0.8480    0.3930 os        1 PU3     -0.311400
      3 C5          2.0230   -0.3590    1.6780 ca        1 PU3      0.139600
      4 C6          0.9670   -0.3870    2.5980 ca        1 PU3     -0.221500
      5 C4          3.2670    0.2050    2.0330 ca        1 PU3      0.044100
      6 O1          4.3360    0.0890    1.1650 os        1 PU3     -0.309900
      7 C7          4.7110    1.3220    0.5460 c3        1 PU3      0.114700
      8 C3          3.4140    0.7740    3.3160 ca        1 PU3      0.139600
      9 O2          4.6430    1.3520    3.5670 os        1 PU3     -0.311400
     10 C8          4.8630    1.8070    4.8980 c3        1 PU3      0.111200
     11 C2          2.3570    0.7470    4.2330 ca        1 PU3     -0.221500
     12 C1          1.1400    0.1620    3.8700 ca        1 PU3     -0.033300
     13 C9          0.0060    0.1610    4.8390 c3        1 PU3     -0.048400
     14 C10        -0.5230   -1.2170    5.0910 cc        1 PU3      0.403800
     15 N1         -1.7040   -1.6920    4.6390 nd        1 PU3     -0.550100
     16 C11        -1.7870   -3.0020    5.1230 ca        1 PU3     -0.229200
     17 C13        -2.7840   -4.0280    4.9900 ca        1 PU3      0.755200
     18 N5         -3.9020   -3.8090    4.2230 nv        1 PU3     -0.954500
     19 C12        -0.5980   -3.3250    5.9020 ca        1 PU3      0.455800
     20 N4         -0.3940   -4.5350    6.5070 nb        1 PU3     -0.732000
     21 C14        -1.4160   -5.3960    6.3050 ca        1 PU3      0.683900
     22 N3         -2.5770   -5.2350    5.6120 nb        1 PU3     -0.796000
     23 N2          0.2040   -2.1770    5.8540 na        1 PU3     -0.247000
     24 C15         1.4640   -1.9910    6.5110 c3        1 PU3      0.039300
     25 C16         1.3690   -1.4620    7.9440 c3        1 PU3     -0.102400
     26 C17         2.7600   -1.2930    8.5180 c3        1 PU3     -0.078400
     27 C18         2.7080   -0.7610    9.9270 c3        1 PU3     -0.093100
     28 H191        0.6500   -2.4580    0.7920 h1        1 PU3      0.046700
     29 H192        0.9770   -1.9740   -0.9540 h1        1 PU3      0.046700
     30 H193       -0.1310   -0.9480    0.0960 h1        1 PU3      0.046700
     31 H6         -0.0000   -0.8380    2.3330 ha        1 PU3      0.147000
     32 H7C1        3.8710    1.7140   -0.0760 h1        1 PU3      0.042033
     33 H7C2        5.5820    1.0370   -0.0950 h1        1 PU3      0.042033
     34 H7C3        5.0110    2.0690    1.3200 h1        1 PU3      0.042033
     35 H8C1        4.7340    0.9750    5.6310 h1        1 PU3      0.046700
     36 H8C2        4.1760    2.6550    5.1410 h1        1 PU3      0.046700
     37 H8C3        5.9270    2.1550    4.8780 h1        1 PU3      0.046700
     38 H2          2.4750    1.1860    5.2330 ha        1 PU3      0.147000
     39 H9C1        0.3240    0.6100    5.8200 hc        1 PU3      0.078200
     40 H9C2       -0.8250    0.8000    4.4270 hc        1 PU3      0.078200
     41 H5N1       -4.0850   -2.8860    3.9180 hn        1 PU3      0.443300
     42 H5N2       -4.6390   -4.4710    4.2230 hn        1 PU3      0.443300
     43 H14        -1.2990   -6.3930    6.7810 h5        1 PU3      0.051100
     44 H151        2.0690   -1.2660    5.8890 h1        1 PU3      0.074700
     45 H152        2.0000   -2.9840    6.5250 h1        1 PU3      0.074700
     46 H161        0.8310   -0.4780    7.9590 hc        1 PU3      0.054200
     47 H162        0.7820   -2.1760    8.5780 hc        1 PU3      0.054200
     48 H171        3.3510   -0.5910    7.8720 hc        1 PU3      0.040700
     49 H172        3.2920   -2.2810    8.5070 hc        1 PU3      0.040700
     50 H181        3.7420   -0.6450   10.3350 hc        1 PU3      0.036367
     51 H182        2.1430   -1.4600   10.5910 hc        1 PU3      0.036367
     52 H183        2.2030    0.2340    9.9560 hc        1 PU3      0.036367
@<TRIPOS>BOND
     1    1    2 1   
     2    1   28 1   
     3    1   29 1   
     4    1   30 1   
     5    2    3 1   
     6    3    4 ar  
     7    3    5 ar  
     8    4   12 ar  
     9    4   31 1   
    10    5    6 1   
    11    5    8 ar  
    12    6    7 1   
    13    7   32 1   
    14    7   33 1   
    15    7   34 1   
    16    8    9 1   
    17    8   11 ar  
    18    9   10 1   
    19   10   35 1   
    20   10   36 1   
    21   10   37 1   
    22   11   12 ar  
    23   11   38 1   
    24   12   13 1   
    25   13   14 1   
    26   13   39 1   
    27   13   40 1   
    28   14   15 2   
    29   14   23 1   
    30   15   16 1   
    31   16   17 ar  
    32   16   19 ar  
    33   17   18 1   
    34   17   22 ar  
    35   18   41 1   
    36   18   42 1   
    37   19   20 ar  
    38   19   23 1   
    39   20   21 ar  
    40   21   22 ar  
    41   21   43 1   
    42   23   24 1   
    43   24   25 1   
    44   24   44 1   
    45   24   45 1   
    46   25   26 1   
    47   25   46 1   
    48   25   47 1   
    49   26   27 1   
    50   26   48 1   
    51   26   49 1   
    52   27   50 1   
    53   27   51 1   
    54   27   52 1   
@<TRIPOS>SUBSTRUCTURE
     1 PU3         1 TEMP              0 ****  ****    0 ROOT
