@<TRIPOS>MOLECULE
PU3
   52    54     1     0     0
SMALL
bcc


@<TRIPOS>ATOM
      1 C19        -3.3270   -0.3930   -2.7160 c3        1 PU3      0.111200
      2 O3         -2.1140   -0.5500   -3.4480 os        1 PU3     -0.311400
      3 C5         -0.9730   -0.0790   -2.8370 ca        1 PU3      0.139600
      4 C6         -0.9690    0.7030   -1.6740 ca        1 PU3     -0.221500
      5 C4          0.2390   -0.4240   -3.4720 ca        1 PU3      0.044100
      6 O1          0.2220   -1.3150   -4.5270 os        1 PU3     -0.309900
      7 C7          0.5080   -0.7140   -5.7920 c3        1 PU3      0.114700
      8 C3          1.4500    0.0650   -2.9360 ca        1 PU3      0.139600
      9 O2          2.5870   -0.2720   -3.6420 os        1 PU3     -0.311400
     10 C8          3.8280    0.0900   -3.0470 c3        1 PU3      0.111200
     11 C2          1.4510    0.8480   -1.7750 ca        1 PU3     -0.221500
     12 C1          0.2410    1.1580   -1.1480 ca        1 PU3     -0.033300
     13 C9          0.2420    2.0170    0.0720 c3        1 PU3     -0.048400
     14 C10        -0.4480    1.3610    1.2280 cc        1 PU3      0.403800
     15 N1         -1.6560    1.7180    1.7170 nd        1 PU3     -0.550100
     16 C11        -1.8930    0.8530    2.7890 ca        1 PU3     -0.229200
     17 C13        -2.9890    0.7180    3.7080 ca        1 PU3      0.755200
     18 N5         -4.1000    1.5140    3.5790 nh        1 PU3     -0.954500
     19 C12        -0.7730   -0.0670    2.9480 ca        1 PU3      0.455800
     20 N4         -0.7150   -1.0310    3.9180 nb        1 PU3     -0.732000
     21 C14        -1.8090   -1.0330    4.7130 ca        1 PU3      0.683900
     22 N3         -2.9170   -0.2440    4.6870 nb        1 PU3     -0.796000
     23 N2          0.1300    0.2640    1.9300 na        1 PU3     -0.247000
     24 C15         1.4120   -0.3360    1.7000 c3        1 PU3      0.039300
     25 C16         2.5670    0.3000    2.4760 c3        1 PU3     -0.102400
     26 C17         3.8610   -0.4070    2.1340 c3        1 PU3     -0.078400
     27 C18         5.0270    0.2000    2.8720 c3        1 PU3     -0.093100
     28 H191       -4.0780   -0.9320   -3.3490 h1        1 PU3      0.046700
     29 H192       -3.2490   -0.8640   -1.7070 h1        1 PU3      0.046700
     30 H193       -3.5910    0.6890   -2.6270 h1        1 PU3      0.046700
     31 H6         -1.9100    0.9620   -1.1670 ha        1 PU3      0.147000
     32 H7C1        0.4640   -1.5740   -6.5050 h1        1 PU3      0.042033
     33 H7C2       -0.2660    0.0500   -6.0420 h1        1 PU3      0.042033
     34 H7C3        1.5260   -0.2550   -5.7820 h1        1 PU3      0.042033
     35 H8C1        4.5860   -0.3470   -3.7470 h1        1 PU3      0.046700
     36 H8C2        3.9310    1.2010   -2.9990 h1        1 PU3      0.046700
     37 H8C3        3.9280   -0.3580   -2.0290 h1        1 PU3      0.046700
     38 H2          2.3950    1.2230   -1.3560 ha        1 PU3      0.147000
     39 H9C1       -0.2820    2.9850   -0.1640 hc        1 PU3      0.078200
     40 H9C2        1.2950    2.2680    0.3770 hc        1 PU3      0.078200
     41 H5N1       -4.8030    1.4990    4.2770 hn        1 PU3      0.443300
     42 H5N2       -4.0510    2.2870    2.9630 hn        1 PU3      0.443300
     43 H14        -1.8070   -1.7980    5.5210 h5        1 PU3      0.051100
     44 H151        1.6270   -0.2650    0.5930 h1        1 PU3      0.074700
     45 H152        1.3410   -1.4270    1.9820 h1        1 PU3      0.074700
     46 H161        2.3740    0.2270    3.5790 hc        1 PU3      0.054200
     47 H162        2.6510    1.3890    2.2210 hc        1 PU3      0.054200
     48 H171        4.0420   -0.3480    1.0280 hc        1 PU3      0.040700
     49 H172        3.7740   -1.4950    2.3970 hc        1 PU3      0.040700
     50 H181        5.9710   -0.3360    2.6090 hc        1 PU3      0.036367
     51 H182        5.1460    1.2780    2.6050 hc        1 PU3      0.036367
     52 H183        4.8750    0.1270    3.9760 hc        1 PU3      0.036367
@<TRIPOS>BOND
     1    1    2 1   
     2    1   28 1   
     3    1   29 1   
     4    1   30 1   
     5    2    3 1   
     6    3    4 ar  
     7    3    5 ar  
     8    4   12 ar  
     9    4   31 1   
    10    5    6 1   
    11    5    8 ar  
    12    6    7 1   
    13    7   32 1   
    14    7   33 1   
    15    7   34 1   
    16    8    9 1   
    17    8   11 ar  
    18    9   10 1   
    19   10   35 1   
    20   10   36 1   
    21   10   37 1   
    22   11   12 ar  
    23   11   38 1   
    24   12   13 1   
    25   13   14 1   
    26   13   39 1   
    27   13   40 1   
    28   14   15 2   
    29   14   23 1   
    30   15   16 1   
    31   16   17 ar  
    32   16   19 ar  
    33   17   18 1   
    34   17   22 ar  
    35   18   41 1   
    36   18   42 1   
    37   19   20 ar  
    38   19   23 1   
    39   20   21 ar  
    40   21   22 ar  
    41   21   43 1   
    42   23   24 1   
    43   24   25 1   
    44   24   44 1   
    45   24   45 1   
    46   25   26 1   
    47   25   46 1   
    48   25   47 1   
    49   26   27 1   
    50   26   48 1   
    51   26   49 1   
    52   27   50 1   
    53   27   51 1   
    54   27   52 1   
@<TRIPOS>SUBSTRUCTURE
     1 PU3         1 TEMP              0 ****  ****    0 ROOT
