@<TRIPOS>MOLECULE
PU3
   52    54     1     0     0
SMALL
bcc


@<TRIPOS>ATOM
      1 C19         0.7780   -1.6510    0.0880 c3        1 PU3      0.111200
      2 O3          1.9440   -0.8900    0.3910 os        1 PU3     -0.311400
      3 C5          2.0240   -0.3880    1.6720 ca        1 PU3      0.139600
      4 C6          0.9670   -0.4090    2.5920 ca        1 PU3     -0.221500
      5 C4          3.2670    0.1810    2.0220 ca        1 PU3      0.044100
      6 O1          4.3370    0.0580    1.1570 os        1 PU3     -0.309900
      7 C7          4.7110    1.2850    0.5260 c3        1 PU3      0.114700
      8 C3          3.4120    0.7630    3.3000 ca        1 PU3      0.139600
      9 O2          4.6390    1.3450    3.5470 os        1 PU3     -0.311400
     10 C8          4.8570    1.8130    4.8740 c3        1 PU3      0.111200
     11 C2          2.3540    0.7440    4.2160 ca        1 PU3     -0.221500
     12 C1          1.1380    0.1530    3.8580 ca        1 PU3     -0.033300
     13 C9          0.0030    0.1590    4.8260 c3        1 PU3     -0.048400
     14 C10        -0.5240   -1.2170    5.0920 cc        1 PU3      0.403800
     15 N1         -1.7040   -1.6980    4.6440 nd        1 PU3     -0.550100
     16 C11        -1.7850   -3.0030    5.1400 ca        1 PU3     -0.229200
     17 C13        -2.7800   -4.0320    5.0180 ca        1 PU3      0.755200
     18 N5         -3.8990   -3.8220    4.2490 nh        1 PU3     -0.954500
     19 C12        -0.5950   -3.3160    5.9220 ca        1 PU3      0.455800
     20 N4         -0.3890   -4.5210    6.5400 nb        1 PU3     -0.732000
     21 C14        -1.4110   -5.3850    6.3460 ca        1 PU3      0.683900
     22 N3         -2.5720   -5.2330    5.6510 nb        1 PU3     -0.796000
     23 N2          0.2040   -2.1680    5.8630 na        1 PU3     -0.247000
     24 C15         1.4650   -1.9740    6.5190 c3        1 PU3      0.039300
     25 C16         1.3690   -1.4300    7.9460 c3        1 PU3     -0.102400
     26 C17         2.7600   -1.2510    8.5170 c3        1 PU3     -0.078400
     27 C18         2.7080   -0.7050    9.9210 c3        1 PU3     -0.093100
     28 H191        0.6570   -2.4980    0.8060 h1        1 PU3      0.046700
     29 H192        0.9830   -2.0320   -0.9440 h1        1 PU3      0.046700
     30 H193       -0.1270   -0.9970    0.0940 h1        1 PU3      0.046700
     31 H6          0.0010   -0.8640    2.3300 ha        1 PU3      0.147000
     32 H7C1        5.0090    2.0400    1.2930 h1        1 PU3      0.042033
     33 H7C2        3.8710    1.6710   -0.1000 h1        1 PU3      0.042033
     34 H7C3        5.5820    0.9960   -0.1110 h1        1 PU3      0.042033
     35 H8C1        5.9210    2.1620    4.8520 h1        1 PU3      0.046700
     36 H8C2        4.7280    0.9880    5.6150 h1        1 PU3      0.046700
     37 H8C3        4.1690    2.6620    5.1070 h1        1 PU3      0.046700
     38 H2          2.4700    1.1920    5.2120 ha        1 PU3      0.147000
     39 H9C1       -0.8290    0.7930    4.4070 hc        1 PU3      0.078200
     40 H9C2        0.3190    0.6190    5.8030 hc        1 PU3      0.078200
     41 H5N1       -4.6350   -4.4850    4.2560 hn        1 PU3      0.443300
     42 H5N2       -4.0830   -2.9020    3.9350 hn        1 PU3      0.443300
     43 H14        -1.2920   -6.3780    6.8320 h5        1 PU3      0.051100
     44 H151        2.0690   -1.2540    5.8890 h1        1 PU3      0.074700
     45 H152        2.0020   -2.9660    6.5430 h1        1 PU3      0.074700
     46 H161        0.8290   -0.4470    7.9500 hc        1 PU3      0.054200
     47 H162        0.7840   -2.1390    8.5880 hc        1 PU3      0.054200
     48 H171        3.2950   -2.2380    8.5160 hc        1 PU3      0.040700
     49 H172        3.3490   -0.5550    7.8630 hc        1 PU3      0.040700
     50 H181        2.2000    0.2890    9.9400 hc        1 PU3      0.036367
     51 H182        3.7410   -0.5820   10.3260 hc        1 PU3      0.036367
     52 H183        2.1450   -1.3980   10.5920 hc        1 PU3      0.036367
@<TRIPOS>BOND
     1    1    2 1   
     2    1   28 1   
     3    1   29 1   
     4    1   30 1   
     5    2    3 1   
     6    3    4 ar  
     7    3    5 ar  
     8    4   12 ar  
     9    4   31 1   
    10    5    6 1   
    11    5    8 ar  
    12    6    7 1   
    13    7   32 1   
    14    7   33 1   
    15    7   34 1   
    16    8    9 1   
    17    8   11 ar  
    18    9   10 1   
    19   10   35 1   
    20   10   36 1   
    21   10   37 1   
    22   11   12 ar  
    23   11   38 1   
    24   12   13 1   
    25   13   14 1   
    26   13   39 1   
    27   13   40 1   
    28   14   15 2   
    29   14   23 1   
    30   15   16 1   
    31   16   17 ar  
    32   16   19 ar  
    33   17   18 1   
    34   17   22 ar  
    35   18   41 1   
    36   18   42 1   
    37   19   20 ar  
    38   19   23 1   
    39   20   21 ar  
    40   21   22 ar  
    41   21   43 1   
    42   23   24 1   
    43   24   25 1   
    44   24   44 1   
    45   24   45 1   
    46   25   26 1   
    47   25   46 1   
    48   25   47 1   
    49   26   27 1   
    50   26   48 1   
    51   26   49 1   
    52   27   50 1   
    53   27   51 1   
    54   27   52 1   
@<TRIPOS>SUBSTRUCTURE
     1 PU3         1 TEMP              0 ****  ****    0 ROOT
