@<TRIPOS>MOLECULE
PU3
   53    55     1     0     0
SMALL
bcc


@<TRIPOS>ATOM
      1 C19         0.7500   -1.2980   -0.1160 c3        1 PU3      0.108700
      2 O3          1.9970   -0.8100    0.3650 os        1 PU3     -0.299400
      3 C5          2.0220   -0.3680    1.6680 ca        1 PU3      0.143600
      4 C6          0.9270   -0.4160    2.5420 ca        1 PU3     -0.224000
      5 C4          3.2650    0.1470    2.1020 ca        1 PU3      0.067100
      6 O1          4.3580    0.0220    1.2720 os        1 PU3     -0.306900
      7 C7          4.8810    1.2640    0.7910 c3        1 PU3      0.113700
      8 C3          3.3690    0.6540    3.4150 ca        1 PU3      0.143600
      9 O2          4.6010    1.1690    3.7530 os        1 PU3     -0.299400
     10 C8          4.7260    1.7170    5.0630 c3        1 PU3      0.108700
     11 C2          2.2690    0.6160    4.2820 ca        1 PU3     -0.224000
     12 C1          1.0610    0.0680    3.8440 ca        1 PU3     -0.062300
     13 C9         -0.1100    0.0420    4.7680 c3        1 PU3     -0.061400
     14 C10        -0.5580   -1.3590    5.0710 cc        1 PU3      0.518800
     15 N1         -1.7380   -1.8940    4.6500 nd        1 PU3     -0.607100
     16 C11        -1.7570   -3.1860    5.1650 ca        1 PU3     -0.126200
     17 C13        -2.6700   -4.2530    5.1090 ca        1 PU3      0.504200
     18 N5         -3.9250   -4.0640    4.3580 n4        1 PU3     -0.813300
     19 C12        -0.5190   -3.4470    5.9380 ca        1 PU3      0.450800
     20 N4         -0.2690   -4.6300    6.5510 nb        1 PU3     -0.614000
     21 C14        -1.2530   -5.5540    6.3960 ca        1 PU3      0.664900
     22 N3         -2.4310   -5.4410    5.7190 nb        1 PU3     -0.679000
     23 N2          0.2200   -2.2600    5.8420 na        1 PU3     -0.227000
     24 C15         1.5010   -2.0160    6.4600 c3        1 PU3      0.019300
     25 C16         1.4280   -1.3780    7.8470 c3        1 PU3     -0.101400
     26 C17         2.8330   -1.0870    8.3370 c3        1 PU3     -0.078400
     27 C18         2.8090   -0.4610    9.7080 c3        1 PU3     -0.097100
     28 H191       -0.0340   -0.5030   -0.0650 h1        1 PU3      0.049367
     29 H192        0.4330   -2.2020    0.4560 h1        1 PU3      0.049367
     30 H193        0.9760   -1.5630   -1.1810 h1        1 PU3      0.049367
     31 H6         -0.0380   -0.8190    2.2070 ha        1 PU3      0.141500
     32 H7C1        5.7430    0.9480    0.1530 h1        1 PU3      0.049700
     33 H7C2        4.1110    1.8000    0.1860 h1        1 PU3      0.049700
     34 H7C3        5.2260    1.8980    1.6440 h1        1 PU3      0.049700
     35 H8C1        4.0280    2.5770    5.1990 h1        1 PU3      0.049367
     36 H8C2        5.7920    2.0620    5.0920 h1        1 PU3      0.049367
     37 H8C3        4.5450    0.9330    5.8380 h1        1 PU3      0.049367
     38 H2          2.3510    1.0250    5.3000 ha        1 PU3      0.141500
     39 H9C1        0.1390    0.5500    5.7410 hc        1 PU3      0.096200
     40 H9C2       -0.9660    0.6050    4.2990 hc        1 PU3      0.096200
     41 H5N1       -3.6920   -3.8960    3.3720 hn        1 PU3      0.475800
     42 H5N2       -4.4080   -3.2390    4.7360 hn        1 PU3      0.475800
     43 H14        -1.0800   -6.5400    6.8880 h5        1 PU3      0.098100
     44 H151        2.0820   -1.3390    5.7640 h1        1 PU3      0.095200
     45 H152        2.0440   -3.0030    6.5330 h1        1 PU3      0.095200
     46 H161        0.8390   -0.4240    7.8090 hc        1 PU3      0.055700
     47 H162        0.9120   -2.0670    8.5650 hc        1 PU3      0.055700
     48 H171        3.3490   -0.3990    7.6150 hc        1 PU3      0.046700
     49 H172        3.4250   -2.0400    8.3680 hc        1 PU3      0.046700
     50 H181        3.8520   -0.2540   10.0520 hc        1 PU3      0.044367
     51 H182        2.3230   -1.1430   10.4470 hc        1 PU3      0.044367
     52 H183        2.2440    0.5030    9.6940 hc        1 PU3      0.044367
     53 H53        -4.5340   -4.8890    4.4350 hn        1 PU3      0.475800
@<TRIPOS>BOND
     1    1    2 1   
     2    1   28 1   
     3    1   29 1   
     4    1   30 1   
     5    2    3 1   
     6    3    4 ar  
     7    3    5 ar  
     8    4   12 ar  
     9    4   31 1   
    10    5    6 1   
    11    5    8 ar  
    12    6    7 1   
    13    7   32 1   
    14    7   33 1   
    15    7   34 1   
    16    8    9 1   
    17    8   11 ar  
    18    9   10 1   
    19   10   35 1   
    20   10   36 1   
    21   10   37 1   
    22   11   12 ar  
    23   11   38 1   
    24   12   13 1   
    25   13   14 1   
    26   13   39 1   
    27   13   40 1   
    28   14   15 2   
    29   14   23 1   
    30   15   16 1   
    31   16   17 ar  
    32   16   19 ar  
    33   17   18 1   
    34   17   22 ar  
    35   18   41 1   
    36   18   42 1   
    37   18   53 1   
    38   19   20 ar  
    39   19   23 1   
    40   20   21 ar  
    41   21   22 ar  
    42   21   43 1   
    43   23   24 1   
    44   24   25 1   
    45   24   44 1   
    46   24   45 1   
    47   25   26 1   
    48   25   46 1   
    49   25   47 1   
    50   26   27 1   
    51   26   48 1   
    52   26   49 1   
    53   27   50 1   
    54   27   51 1   
    55   27   52 1   
@<TRIPOS>SUBSTRUCTURE
     1 PU3         1 TEMP              0 ****  ****    0 ROOT
