@<TRIPOS>MOLECULE
PU4
   44    46     1     0     0
SMALL
bcc


@<TRIPOS>ATOM
      1 C18         0.4250    0.0020   -0.3100 c3        1 PU4     -0.093100
      2 C17         1.9100    0.0290   -0.0530 c3        1 PU4     -0.078400
      3 C16         2.2110    0.0180    1.4300 c3        1 PU4     -0.103400
      4 C15         3.7250    0.0350    1.6500 c3        1 PU4      0.041300
      5 N2          4.1340    0.0290    3.0240 na        1 PU4     -0.249000
      6 C12         4.2960    1.1520    3.8460 ca        1 PU4      0.455800
      7 N4          4.1960    2.4880    3.5680 nb        1 PU4     -0.735000
      8 C14         4.4550    3.2630    4.6440 ca        1 PU4      0.683900
      9 N3          4.7870    2.9180    5.9180 nb        1 PU4     -0.798000
     10 C11         4.6410    0.6250    5.1600 ca        1 PU4     -0.229200
     11 C13         4.8820    1.5780    6.2080 ca        1 PU4      0.760200
     12 N5          5.1760    1.1490    7.4760 nh        1 PU4     -0.961500
     13 N1          4.6680   -0.7730    5.1250 nc        1 PU4     -0.550100
     14 C10         4.3530   -1.1080    3.8560 cd        1 PU4      0.405800
     15 C9          4.2470   -2.5070    3.3320 c3        1 PU4     -0.040400
     16 C1          5.4270   -2.8880    2.5060 ca        1 PU4     -0.128300
     17 C6          6.7110   -2.8870    3.0700 ca        1 PU4     -0.088500
     18 C5          7.8150   -3.2710    2.3210 ca        1 PU4     -0.179000
     19 C2          5.2620   -3.2810    1.1760 ca        1 PU4     -0.088500
     20 C3          6.3580   -3.6720    0.4060 ca        1 PU4     -0.179000
     21 C4          7.6330   -3.6660    0.9810 ca        1 PU4      0.129100
     22 O1          8.7910   -4.0300    0.3230 os        1 PU4     -0.324900
     23 C7          8.6440   -4.4310   -1.0340 c3        1 PU4      0.112700
     24 H181       -0.0350   -0.9180    0.1250 hc        1 PU4      0.036033
     25 H182       -0.0700    0.8910    0.1510 hc        1 PU4      0.036033
     26 H183        0.2220    0.0140   -1.4080 hc        1 PU4      0.036033
     27 H171        2.3930   -0.8570   -0.5430 hc        1 PU4      0.040700
     28 H172        2.3560    0.9480   -0.5190 hc        1 PU4      0.040700
     29 H161        1.7620   -0.8960    1.9010 hc        1 PU4      0.054700
     30 H162        1.7430    0.9120    1.9180 hc        1 PU4      0.054700
     31 H151        4.1810   -0.8740    1.1560 h1        1 PU4      0.071700
     32 H152        4.1530    0.9590    1.1630 h1        1 PU4      0.071700
     33 H14         4.3880    4.3590    4.4680 h5        1 PU4      0.050100
     34 H5N1        5.3220    0.1820    7.6290 hn        1 PU4      0.446300
     35 H5N2        5.4170    1.7980    8.1830 hn        1 PU4      0.446300
     36 H9C1        3.3000   -2.6000    2.7330 hc        1 PU4      0.074200
     37 H9C2        4.1660   -3.2130    4.2050 hc        1 PU4      0.074200
     38 H6          6.8410   -2.5750    4.1180 ha        1 PU4      0.139500
     39 H5          8.8250   -3.2720    2.7530 ha        1 PU4      0.145000
     40 H2          4.2580   -3.2910    0.7240 ha        1 PU4      0.139500
     41 H3          6.2070   -3.9810   -0.6370 ha        1 PU4      0.145000
     42 H7C1        7.9920   -5.3350   -1.1100 h1        1 PU4      0.045033
     43 H7C2        8.2280   -3.5960   -1.6500 h1        1 PU4      0.045033
     44 H7C3        9.6910   -4.6710   -1.3500 h1        1 PU4      0.045033
@<TRIPOS>BOND
     1    1    2 1   
     2    1   24 1   
     3    1   25 1   
     4    1   26 1   
     5    2    3 1   
     6    2   27 1   
     7    2   28 1   
     8    3    4 1   
     9    3   29 1   
    10    3   30 1   
    11    4    5 1   
    12    4   31 1   
    13    4   32 1   
    14    5    6 1   
    15    5   14 1   
    16    6    7 ar  
    17    6   10 ar  
    18    7    8 ar  
    19    8    9 ar  
    20    8   33 1   
    21    9   11 ar  
    22   10   11 ar  
    23   10   13 1   
    24   11   12 1   
    25   12   34 1   
    26   12   35 1   
    27   13   14 2   
    28   14   15 1   
    29   15   16 1   
    30   15   36 1   
    31   15   37 1   
    32   16   17 ar  
    33   16   19 ar  
    34   17   18 ar  
    35   17   38 1   
    36   18   21 ar  
    37   18   39 1   
    38   19   20 ar  
    39   19   40 1   
    40   20   21 ar  
    41   20   41 1   
    42   21   22 1   
    43   22   23 1   
    44   23   42 1   
    45   23   43 1   
    46   23   44 1   
@<TRIPOS>SUBSTRUCTURE
     1 PU4         1 TEMP              0 ****  ****    0 ROOT
