@<TRIPOS>MOLECULE
PU4
   44    39     1     0     0
SMALL
bcc


@<TRIPOS>ATOM
      1 C18        -4.5870    1.9430   -3.5450 c3        1 PU4     -0.211000
      2 C17        -3.0780    1.5310   -3.5140 c3        1 PU4     -0.157000
      3 C16        -2.6600    1.2090   -2.0490 c3        1 PU4     -0.182000
      4 C15        -1.1690    0.8410   -2.0150 c3        1 PU4     -0.018000
      5 N2         -0.6860    0.8650   -0.6330 n3        1 PU4     -0.166000
      6 C12        -0.4370    2.1200   -0.1030 c1        1 PU4      0.064000
      7 N4         -0.4650    3.3700   -0.6500 n1        1 PU4     -0.209000
      8 C14        -0.1770    4.4480    0.1150 c1        1 PU4      0.021000
      9 N3          0.1430    4.2860    1.4340 n1        1 PU4     -0.272000
     10 C11        -0.1180    1.9640    1.2100 c1        1 PU4     -0.238000
     11 C13         0.1720    3.0550    1.9760 c1        1 PU4      0.239000
     12 N5          0.6210    3.4080    3.2700 n3        1 PU4     -0.359000
     13 N1         -0.1660    0.6230    1.5020 n1        1 PU4     -0.123000
     14 C10        -0.5170   -0.0510    0.3580 c1        1 PU4      0.004000
     15 C9         -0.7750   -1.4540    0.9190 c2        1 PU4     -0.051000
     16 C1          0.5950   -2.2160    1.0890 c2        1 PU4     -0.121000
     17 C6          1.0240   -3.0960    0.1070 c2        1 PU4     -0.095000
     18 C5          2.1580   -3.8870    0.3230 c1        1 PU4     -0.205000
     19 C2          1.2930   -2.1220    2.2890 c1        1 PU4     -0.082000
     20 C3          2.4230   -2.9110    2.5030 c1        1 PU4     -0.153000
     21 C4          2.8520   -3.7900    1.5230 c1        1 PU4      0.084000
     22 O1          4.0430   -4.5800    1.7370 os        1 PU4     -0.208000
     23 C7          5.2280   -3.9910    1.2150 c3        1 PU4     -0.077000
     24 H181       -4.7040    2.7860   -3.0610 hc        1 PU4      0.075333
     25 H182       -4.8830    2.0590   -4.4890 hc        1 PU4      0.075333
     26 H183       -5.1280    1.2380   -3.1130 hc        1 PU4      0.075333
     27 H171       -2.9420    0.7270   -4.0810 hc        1 PU4      0.080000
     28 H172       -2.5030    2.3050   -3.8730 hc        1 PU4      0.080000
     29 H161       -2.8140    1.9810   -1.4920 hc        1 PU4      0.094000
     30 H162       -3.2100    0.4270   -1.7050 hc        1 PU4      0.094000
     31 H151       -1.0440   -0.0760   -2.3970 h1        1 PU4      0.111000
     32 H152       -0.6480    1.5080   -2.5630 h1        1 PU4      0.111000
     33 H14        -0.1970    5.3500   -0.2790 ha        1 PU4      0.187000
     34 H5N1        0.7450    4.3120    3.4940 hn        1 PU4      0.241500
     35 H5N2        0.7640    2.7460    3.9090 hn        1 PU4      0.241500
     36 H9C1       -1.3690   -1.9660    0.2840 ha        1 PU4      0.113500
     37 H9C2       -1.2120   -1.3810    1.7830 ha        1 PU4      0.113500
     38 H6          0.5470   -3.1630   -0.7160 ha        1 PU4      0.130000
     39 H5          2.4690   -4.5230   -0.3830 ha        1 PU4      0.138000
     40 H2          0.9930   -1.5040    2.9810 ha        1 PU4      0.149000
     41 H3          2.9070   -2.8460    3.3340 ha        1 PU4      0.152000
     42 H7C1        5.9970   -4.5830    1.3970 h1        1 PU4      0.084333
     43 H7C2        5.3810   -3.0950    1.6560 h1        1 PU4      0.084333
     44 H7C3        5.1330   -3.8680    0.2530 h1        1 PU4      0.084333
@<TRIPOS>BOND
     1    1    2 1   
     2    1   24 1   
     3    1   25 1   
     4    1   26 1   
     5    2    3 1   
     6    2   27 1   
     7    2   28 1   
     8    3    4 1   
     9    3   29 1   
    10    3   30 1   
    11    4    5 1   
    12    4   31 1   
    13    4   32 1   
    14    5    6 1   
    15    5   14 1   
    16    6   10 1   
    17    7    8 1   
    18    8   33 1   
    19    9   11 1   
    20   11   12 1   
    21   12   34 1   
    22   12   35 1   
    23   13   14 1   
    24   15   16 1   
    25   15   36 1   
    26   15   37 1   
    27   16   17 1   
    28   16   19 1   
    29   17   18 1   
    30   17   38 1   
    31   18   39 1   
    32   19   40 1   
    33   20   21 1   
    34   20   41 1   
    35   21   22 1   
    36   22   23 1   
    37   23   42 1   
    38   23   43 1   
    39   23   44 1   
@<TRIPOS>SUBSTRUCTURE
     1 PU4         1 TEMP              0 ****  ****    0 ROOT
