@<TRIPOS>MOLECULE
PU4
   44    46     1     0     0
SMALL
bcc


@<TRIPOS>ATOM
      1 C18         5.2970    0.2030    1.7480 c3        1 PU4     -0.093100
      2 C17         4.1000   -0.4570    1.1150 c3        1 PU4     -0.078400
      3 C16         2.8100    0.1900    1.5750 c3        1 PU4     -0.103400
      4 C15         1.6190   -0.5000    0.9050 c3        1 PU4      0.041300
      5 N2          0.3370    0.0280    1.2690 na        1 PU4     -0.249000
      6 C12        -0.4350   -0.3550    2.3730 ca        1 PU4      0.455800
      7 N4         -0.2350   -1.3330    3.3100 nb        1 PU4     -0.735000
      8 C14        -1.2410   -1.4010    4.2110 ca        1 PU4      0.683900
      9 N3         -2.3800   -0.6640    4.3170 nb        1 PU4     -0.798000
     10 C11        -1.6030    0.5170    2.3520 ca        1 PU4     -0.229200
     11 C13        -2.5840    0.3250    3.3840 ca        1 PU4      0.760200
     12 N5         -3.6890    1.1340    3.4440 nh        1 PU4     -0.961500
     13 N1         -1.5200    1.4050    1.2750 nc        1 PU4     -0.550100
     14 C10        -0.3590    1.1080    0.6520 cd        1 PU4      0.405800
     15 C9          0.1710    1.8040   -0.5630 c3        1 PU4     -0.040400
     16 C1         -0.0040    0.9900   -1.7980 ca        1 PU4     -0.128300
     17 C6         -1.2890    0.6140   -2.2170 ca        1 PU4     -0.088500
     18 C5         -1.4680   -0.1180   -3.3820 ca        1 PU4     -0.179000
     19 C2          1.1030    0.6230   -2.5670 ca        1 PU4     -0.088500
     20 C3          0.9440   -0.1100   -3.7420 ca        1 PU4     -0.179000
     21 C4         -0.3430   -0.4800   -4.1480 ca        1 PU4      0.129100
     22 O1         -0.6270   -1.2040   -5.2890 os        1 PU4     -0.324900
     23 C7          0.4890   -1.5900   -6.0830 c3        1 PU4      0.112700
     24 H181        5.3420    1.2860    1.4770 hc        1 PU4      0.036033
     25 H182        6.2380   -0.2870    1.3990 hc        1 PU4      0.036033
     26 H183        5.2490    0.1230    2.8610 hc        1 PU4      0.036033
     27 H171        4.1780   -0.3880   -0.0030 hc        1 PU4      0.040700
     28 H172        4.0870   -1.5470    1.3790 hc        1 PU4      0.040700
     29 H161        2.7230    0.1080    2.6900 hc        1 PU4      0.054700
     30 H162        2.8200    1.2810    1.3170 hc        1 PU4      0.054700
     31 H151        1.7200   -0.4050   -0.2160 h1        1 PU4      0.071700
     32 H152        1.6340   -1.5950    1.1750 h1        1 PU4      0.071700
     33 H14        -1.1260   -2.1830    4.9930 h5        1 PU4      0.050100
     34 H5N1       -4.4040    0.9600    4.1040 hn        1 PU4      0.446300
     35 H5N2       -3.8470    1.7770    2.7080 hn        1 PU4      0.446300
     36 H9C1       -0.3750    2.7810   -0.6860 hc        1 PU4      0.074200
     37 H9C2        1.2580    2.0440   -0.3990 hc        1 PU4      0.074200
     38 H6         -2.1620    0.9010   -1.6100 ha        1 PU4      0.139500
     39 H5         -2.4700   -0.4190   -3.7190 ha        1 PU4      0.145000
     40 H2          2.1160    0.9170   -2.2500 ha        1 PU4      0.139500
     41 H3          1.8270   -0.3870   -4.3340 ha        1 PU4      0.145000
     42 H7C1        0.0220   -2.1540   -6.9300 h1        1 PU4      0.045033
     43 H7C2        1.0340   -0.6910   -6.4610 h1        1 PU4      0.045033
     44 H7C3        1.1780   -2.2510   -5.5020 h1        1 PU4      0.045033
@<TRIPOS>BOND
     1    1    2 1   
     2    1   24 1   
     3    1   25 1   
     4    1   26 1   
     5    2    3 1   
     6    2   27 1   
     7    2   28 1   
     8    3    4 1   
     9    3   29 1   
    10    3   30 1   
    11    4    5 1   
    12    4   31 1   
    13    4   32 1   
    14    5    6 1   
    15    5   14 1   
    16    6    7 ar  
    17    6   10 ar  
    18    7    8 ar  
    19    8    9 ar  
    20    8   33 1   
    21    9   11 ar  
    22   10   11 ar  
    23   10   13 1   
    24   11   12 1   
    25   12   34 1   
    26   12   35 1   
    27   13   14 2   
    28   14   15 1   
    29   15   16 1   
    30   15   36 1   
    31   15   37 1   
    32   16   17 ar  
    33   16   19 ar  
    34   17   18 ar  
    35   17   38 1   
    36   18   21 ar  
    37   18   39 1   
    38   19   20 ar  
    39   19   40 1   
    40   20   21 ar  
    41   20   41 1   
    42   21   22 1   
    43   22   23 1   
    44   23   42 1   
    45   23   43 1   
    46   23   44 1   
@<TRIPOS>SUBSTRUCTURE
     1 PU4         1 TEMP              0 ****  ****    0 ROOT
