@<TRIPOS>MOLECULE
PU4
   45    47     1     0     0
SMALL
bcc


@<TRIPOS>ATOM
      1 C18         0.4430   -0.0890   -0.3410 c3        1 PU4     -0.096100
      2 C17         1.9260   -0.0400   -0.0750 c3        1 PU4     -0.078400
      3 C16         2.2120   -0.0230    1.4130 c3        1 PU4     -0.102400
      4 C15         3.7230    0.0180    1.6380 c3        1 PU4      0.024300
      5 N2          4.1210    0.0300    3.0250 na        1 PU4     -0.231000
      6 C12         4.2860    1.1710    3.8210 ca        1 PU4      0.450800
      7 N4          4.1810    2.4940    3.5510 nb        1 PU4     -0.616000
      8 C14         4.4390    3.2990    4.6160 ca        1 PU4      0.663900
      9 N3          4.7830    2.9490    5.8880 nb        1 PU4     -0.680000
     10 C11         4.6520    0.6470    5.1600 ca        1 PU4     -0.124200
     11 C13         4.8860    1.6210    6.1460 ca        1 PU4      0.503200
     12 N5          5.2600    1.1720    7.5000 n4        1 PU4     -0.812300
     13 N1          4.6850   -0.7430    5.1400 nc        1 PU4     -0.606100
     14 C10         4.3600   -1.0900    3.8640 cd        1 PU4      0.519800
     15 C9          4.2700   -2.5030    3.3630 c3        1 PU4     -0.052400
     16 C1          5.4430   -2.8590    2.5190 ca        1 PU4     -0.165300
     17 C6          6.7300   -2.8850    3.0780 ca        1 PU4     -0.083000
     18 C5          7.8270   -3.2520    2.3140 ca        1 PU4     -0.178000
     19 C2          5.2670   -3.2220    1.1810 ca        1 PU4     -0.083000
     20 C3          6.3560   -3.5980    0.3970 ca        1 PU4     -0.178000
     21 C4          7.6380   -3.6100    0.9620 ca        1 PU4      0.154100
     22 O1          8.7870   -3.9520    0.2900 os        1 PU4     -0.315900
     23 C7          8.6320   -4.3820   -1.0610 c3        1 PU4      0.108700
     24 H181        0.2510   -0.1010   -1.4420 hc        1 PU4      0.044033
     25 H182       -0.0100   -1.0070    0.1050 hc        1 PU4      0.044033
     26 H183       -0.0670    0.8030    0.0960 hc        1 PU4      0.044033
     27 H171        2.4230   -0.9300   -0.5450 hc        1 PU4      0.047200
     28 H172        2.3640    0.8760   -0.5530 hc        1 PU4      0.047200
     29 H161        1.7250    0.8740    1.8790 hc        1 PU4      0.057200
     30 H162        1.7700   -0.9360    1.8920 hc        1 PU4      0.057200
     31 H151        4.2010   -0.8900    1.1640 h1        1 PU4      0.091200
     32 H152        4.1470    0.9430    1.1500 h1        1 PU4      0.091200
     33 H14         4.3600    4.3960    4.4290 h5        1 PU4      0.097100
     34 H5N1        6.1520    0.6670    7.4400 hn        1 PU4      0.475800
     35 H5N2        4.5320    0.5320    7.8410 hn        1 PU4      0.475800
     36 H9C1        4.2200   -3.1980    4.2480 hc        1 PU4      0.093200
     37 H9C2        3.3110   -2.6190    2.7850 hc        1 PU4      0.093200
     38 H6          6.8690   -2.6190    4.1370 ha        1 PU4      0.134500
     39 H5          8.8400   -3.2780    2.7410 ha        1 PU4      0.156500
     40 H2          4.2590   -3.2300    0.7370 ha        1 PU4      0.134500
     41 H3          6.1980   -3.8870   -0.6520 ha        1 PU4      0.156500
     42 H7C1        9.6800   -4.6260   -1.3720 h1        1 PU4      0.054033
     43 H7C2        7.9810   -5.2880   -1.1140 h1        1 PU4      0.054033
     44 H7C3        8.2160   -3.5570   -1.6880 h1        1 PU4      0.054033
     45 H53         5.3540    1.9680    8.1440 hn        1 PU4      0.475800
@<TRIPOS>BOND
     1    1    2 1   
     2    1   24 1   
     3    1   25 1   
     4    1   26 1   
     5    2    3 1   
     6    2   27 1   
     7    2   28 1   
     8    3    4 1   
     9    3   29 1   
    10    3   30 1   
    11    4    5 1   
    12    4   31 1   
    13    4   32 1   
    14    5    6 1   
    15    5   14 1   
    16    6    7 ar  
    17    6   10 ar  
    18    7    8 ar  
    19    8    9 ar  
    20    8   33 1   
    21    9   11 ar  
    22   10   11 ar  
    23   10   13 1   
    24   11   12 1   
    25   12   34 1   
    26   12   35 1   
    27   12   45 1   
    28   13   14 2   
    29   14   15 1   
    30   15   16 1   
    31   15   36 1   
    32   15   37 1   
    33   16   17 ar  
    34   16   19 ar  
    35   17   18 ar  
    36   17   38 1   
    37   18   21 ar  
    38   18   39 1   
    39   19   20 ar  
    40   19   40 1   
    41   20   21 ar  
    42   20   41 1   
    43   21   22 1   
    44   22   23 1   
    45   23   42 1   
    46   23   43 1   
    47   23   44 1   
@<TRIPOS>SUBSTRUCTURE
     1 PU4         1 TEMP              0 ****  ****    0 ROOT
