@<TRIPOS>MOLECULE
PU4
   44    46     1     0     0
SMALL
bcc


@<TRIPOS>ATOM
      1 C18         0.4290   -0.0150   -0.3230 c3        1 PU4     -0.093100
      2 C17         1.9140    0.0130   -0.0630 c3        1 PU4     -0.078400
      3 C16         2.2110    0.0090    1.4210 c3        1 PU4     -0.103400
      4 C15         3.7250    0.0290    1.6440 c3        1 PU4      0.041300
      5 N2          4.1300    0.0300    3.0200 na        1 PU4     -0.249000
      6 C12         4.2880    1.1560    3.8380 ca        1 PU4      0.455800
      7 N4          4.1850    2.4920    3.5540 nb        1 PU4     -0.735000
      8 C14         4.4400    3.2720    4.6280 ca        1 PU4      0.683900
      9 N3          4.7700    2.9320    5.9040 nb        1 PU4     -0.798000
     10 C11         4.6310    0.6350    5.1550 ca        1 PU4     -0.229200
     11 C13         4.8670    1.5930    6.1990 ca        1 PU4      0.760200
     12 N5          5.1590    1.1700    7.4700 nv        1 PU4     -0.961500
     13 N1          4.6610   -0.7630    5.1250 nc        1 PU4     -0.550100
     14 C10         4.3500   -1.1030    3.8560 cd        1 PU4      0.405800
     15 C9          4.2490   -2.5040    3.3380 c3        1 PU4     -0.040400
     16 C1          5.4310   -2.8850    2.5150 ca        1 PU4     -0.128300
     17 C6          6.7140   -2.8780    3.0800 ca        1 PU4     -0.088500
     18 C5          7.8200   -3.2610    2.3340 ca        1 PU4     -0.179000
     19 C2          5.2690   -3.2850    1.1870 ca        1 PU4     -0.088500
     20 C3          6.3670   -3.6760    0.4200 ca        1 PU4     -0.179000
     21 C4          7.6410   -3.6630    0.9960 ca        1 PU4      0.129100
     22 O1          8.8010   -4.0270    0.3410 os        1 PU4     -0.324900
     23 C7          8.6560   -4.4340   -1.0150 c3        1 PU4      0.112700
     24 H181       -0.0310   -0.9330    0.1160 hc        1 PU4      0.036033
     25 H182        0.2290   -0.0100   -1.4210 hc        1 PU4      0.036033
     26 H183       -0.0670    0.8760    0.1310 hc        1 PU4      0.036033
     27 H171        2.3600    0.9300   -0.5320 hc        1 PU4      0.040700
     28 H172        2.3980   -0.8760   -0.5470 hc        1 PU4      0.040700
     29 H161        1.7630   -0.9030    1.8950 hc        1 PU4      0.054700
     30 H162        1.7410    0.9050    1.9040 hc        1 PU4      0.054700
     31 H151        4.1830   -0.8810    1.1550 h1        1 PU4      0.071700
     32 H152        4.1530    0.9520    1.1550 h1        1 PU4      0.071700
     33 H14         4.3710    4.3660    4.4470 h5        1 PU4      0.050100
     34 H5N1        5.3960    1.8220    8.1750 hn        1 PU4      0.446300
     35 H5N2        5.3060    0.2040    7.6270 hn        1 PU4      0.446300
     36 H9C1        3.3030   -2.6020    2.7380 hc        1 PU4      0.074200
     37 H9C2        4.1680   -3.2080    4.2130 hc        1 PU4      0.074200
     38 H6          6.8420   -2.5610    4.1280 ha        1 PU4      0.139500
     39 H5          8.8300   -3.2570    2.7680 ha        1 PU4      0.145000
     40 H2          4.2660   -3.3000    0.7330 ha        1 PU4      0.139500
     41 H3          6.2180   -3.9900   -0.6220 ha        1 PU4      0.145000
     42 H7C1        9.7050   -4.6720   -1.3280 h1        1 PU4      0.045033
     43 H7C2        8.2390   -3.6030   -1.6340 h1        1 PU4      0.045033
     44 H7C3        8.0080   -5.3400   -1.0880 h1        1 PU4      0.045033
@<TRIPOS>BOND
     1    1    2 1   
     2    1   24 1   
     3    1   25 1   
     4    1   26 1   
     5    2    3 1   
     6    2   27 1   
     7    2   28 1   
     8    3    4 1   
     9    3   29 1   
    10    3   30 1   
    11    4    5 1   
    12    4   31 1   
    13    4   32 1   
    14    5    6 1   
    15    5   14 1   
    16    6    7 ar  
    17    6   10 ar  
    18    7    8 ar  
    19    8    9 ar  
    20    8   33 1   
    21    9   11 ar  
    22   10   11 ar  
    23   10   13 1   
    24   11   12 1   
    25   12   34 1   
    26   12   35 1   
    27   13   14 2   
    28   14   15 1   
    29   15   16 1   
    30   15   36 1   
    31   15   37 1   
    32   16   17 ar  
    33   16   19 ar  
    34   17   18 ar  
    35   17   38 1   
    36   18   21 ar  
    37   18   39 1   
    38   19   20 ar  
    39   19   40 1   
    40   20   21 ar  
    41   20   41 1   
    42   21   22 1   
    43   22   23 1   
    44   23   42 1   
    45   23   43 1   
    46   23   44 1   
@<TRIPOS>SUBSTRUCTURE
     1 PU4         1 TEMP              0 ****  ****    0 ROOT
