@<TRIPOS>MOLECULE
PU5
   44    46     1     0     0
SMALL
bcc


@<TRIPOS>ATOM
      1 C18         5.2900    0.3430    0.6130 c3        1 PU5     -0.093100
      2 C17         4.0050   -0.3490    0.2380 c3        1 PU5     -0.079400
      3 C16         2.8200    0.2760    0.9450 c3        1 PU5     -0.102400
      4 C15         1.5360   -0.4470    0.5330 c3        1 PU5      0.039300
      5 N2          0.3390    0.0610    1.1390 na        1 PU5     -0.248000
      6 C12        -0.1900   -0.3190    2.3790 ca        1 PU5      0.455800
      7 N4          0.2170   -1.2740    3.2720 nb        1 PU5     -0.733000
      8 C14        -0.5820   -1.3400    4.3610 ca        1 PU5      0.682900
      9 N3         -1.6920   -0.6200    4.6830 nb        1 PU5     -0.798000
     10 C11        -1.3570    0.5300    2.5810 ca        1 PU5     -0.228200
     11 C13        -2.1130    0.3320    3.7870 ca        1 PU5      0.757200
     12 N5         -3.2510    1.0640    4.0160 nh        1 PU5     -0.958500
     13 N1         -1.5080    1.4050    1.5000 nc        1 PU5     -0.549100
     14 C10        -0.4880    1.1200    0.6620 cd        1 PU5      0.404800
     15 C1         -1.9550    0.5590   -1.9590 ca        1 PU5     -0.147000
     16 C6         -0.6220    0.9660   -1.8070 ca        1 PU5     -0.060300
     17 C5          0.3280    0.6100   -2.7640 ca        1 PU5     -0.159000
     18 C2         -2.3320   -0.2010   -3.0620 ca        1 PU5     -0.093000
     19 C3         -1.3960   -0.5670   -4.0300 ca        1 PU5     -0.199000
     20 C4         -0.0670   -0.1570   -3.8760 ca        1 PU5      0.124100
     21 O1          0.9530   -0.4540   -4.7610 os        1 PU5     -0.329900
     22 C7          0.5890   -1.2240   -5.9010 c3        1 PU5      0.113700
     23 H181        5.4690    0.2740    1.7140 hc        1 PU5      0.036033
     24 H182        5.2550    1.4230    0.3310 hc        1 PU5      0.036033
     25 H183        6.1520   -0.1320    0.0860 hc        1 PU5      0.036033
     26 H171        4.0710   -1.4370    0.5070 hc        1 PU5      0.042700
     27 H172        3.8560   -0.2900   -0.8720 hc        1 PU5      0.042700
     28 H161        2.7530    1.3630    0.6810 hc        1 PU5      0.053700
     29 H162        2.9610    0.2050    2.0550 hc        1 PU5      0.053700
     30 H151        1.6280   -1.5380    0.8080 h1        1 PU5      0.073700
     31 H152        1.4100   -0.3690   -0.5870 h1        1 PU5      0.073700
     32 H14        -0.2900   -2.0990    5.1180 h5        1 PU5      0.050100
     33 H9C1        0.8670    2.0720   -0.7000 hc        1 PU5      0.077700
     34 H9C2       -0.8090    2.7690   -0.6690 hc        1 PU5      0.077700
     35 H5N1       -3.7200    0.9980    4.8850 hn        1 PU5      0.444800
     36 H5N2       -3.4550    1.8190    3.4100 hn        1 PU5      0.444800
     37 H5          1.3780    0.9220   -2.6730 ha        1 PU5      0.147000
     38 H2         -3.3800   -0.5200   -3.1750 ha        1 PU5      0.136000
     39 H3         -1.7090   -1.1670   -4.8950 ha        1 PU5      0.139000
     40 H7C1        1.5530   -1.3320   -6.4590 h1        1 PU5      0.045033
     41 H7C2        0.1970   -2.2240   -5.5930 h1        1 PU5      0.045033
     42 H7C3       -0.1660   -0.6800   -6.5190 h1        1 PU5      0.045033
     43 C9         -0.2250    1.8060   -0.6410 c3        1 PU5     -0.048400
     44 H1         -2.6980    0.8410   -1.1970 ha        1 PU5      0.149000
@<TRIPOS>BOND
     1    1    2 1   
     2    1   23 1   
     3    1   24 1   
     4    1   25 1   
     5    2    3 1   
     6    2   26 1   
     7    2   27 1   
     8    3    4 1   
     9    3   28 1   
    10    3   29 1   
    11    4    5 1   
    12    4   30 1   
    13    4   31 1   
    14    5    6 1   
    15    5   14 1   
    16    6    7 ar  
    17    6   10 ar  
    18    7    8 ar  
    19    8    9 ar  
    20    8   32 1   
    21    9   11 ar  
    22   10   11 ar  
    23   10   13 1   
    24   11   12 1   
    25   12   35 1   
    26   12   36 1   
    27   13   14 2   
    28   14   43 1   
    29   15   16 ar  
    30   15   18 ar  
    31   15   44 1   
    32   16   17 ar  
    33   16   43 1   
    34   17   20 ar  
    35   17   37 1   
    36   18   19 ar  
    37   18   38 1   
    38   19   20 ar  
    39   19   39 1   
    40   20   21 1   
    41   21   22 1   
    42   22   40 1   
    43   22   41 1   
    44   22   42 1   
    45   33   43 1   
    46   34   43 1   
@<TRIPOS>SUBSTRUCTURE
     1 PU5         1 TEMP              0 ****  ****    0 ROOT
