@<TRIPOS>MOLECULE
PU5
   45    46     1     0     0
SMALL
bcc


@<TRIPOS>ATOM
      1 C18         1.4250   -0.2390   -0.5760 c3        1 PU5     -0.215000
      2 C17         2.8640    0.0540   -0.2280 c3        1 PU5     -0.132000
      3 C16         3.0240    0.3690    1.2130 c2        1 PU5     -0.151000
      4 C15         4.0190   -0.1750    1.9350 c2        1 PU5     -0.174000
      5 N2          4.2690    0.0960    3.2930 na        1 PU5     -0.078000
      6 C12         4.1110    1.3010    3.9700 c2        1 PU5      0.057000
      7 N4          3.6430    2.5520    3.6270 nh        1 PU5     -0.151000
      8 C14         3.6330    3.5580    4.5680 c1        1 PU5      0.074000
      9 N3          4.0760    3.3640    5.8520 n2        1 PU5     -0.205000
     10 C11         4.6050    1.0640    5.3310 c2        1 PU5     -0.216000
     11 C13         4.5440    2.1670    6.2210 c2        1 PU5      0.075000
     12 N5          5.0260    1.9470    7.6050 n4        1 PU5     -0.027000
     13 N1          5.0460   -0.2540    5.4510 n2        1 PU5     -0.151000
     14 C10         4.8400   -0.8170    4.2370 c2        1 PU5      0.062000
     15 C1          7.0160   -3.7280    3.2460 c2        1 PU5     -0.138000
     16 C6          6.3340   -2.4300    3.0050 c3        1 PU5     -0.136000
     17 C5          5.9840   -2.1270    1.6150 c1        1 PU5     -0.090000
     18 C2          7.4270   -4.4980    2.2130 c2        1 PU5     -0.140000
     19 C3          7.1710   -4.1220    0.8510 c2        1 PU5     -0.080000
     20 C4          6.4850   -2.9610    0.5780 c2        1 PU5     -0.021000
     21 O1          6.1710   -2.5080   -0.6880 os        1 PU5     -0.182000
     22 C7          6.5940   -3.3310   -1.7700 c3        1 PU5     -0.091000
     23 H181       -0.1540   -3.0290    0.7280 ha        1 PU5      0.001000
     24 H182        0.7700    0.6310   -0.3280 hc        1 PU5      0.082667
     25 H183        1.3350   -0.4490   -1.6690 hc        1 PU5      0.082667
     26 H171        1.0540   -1.1310   -0.0140 hc        1 PU5      0.082667
     27 H172        3.5110   -0.8180   -0.5180 hc        1 PU5      0.104500
     28 H161        3.2210    0.9400   -0.8230 hc        1 PU5      0.104500
     29 H162        0.2880   -2.9620    1.2370 ha        1 PU5      0.001000
     30 H151        2.2730    1.0630    1.6250 ha        1 PU5      0.114000
     31 H152        4.7990   -0.9390    1.5130 h4        1 PU5      0.295000
     32 H14         3.3200    2.7440    2.6980 hn        1 PU5      0.290000
     33 H9C1        4.2090   -2.6940    3.4160 hc        1 PU5      0.134000
     34 H9C2        5.2880   -2.8110    4.8750 hc        1 PU5      0.134000
     35 H5N1        4.4690    1.1960    8.0290 hn        1 PU5      0.270333
     36 H5N2        4.9370    2.8050    8.1650 hn        1 PU5      0.270333
     37 H5          7.1040   -1.6190    3.2540 hc        1 PU5      0.186000
     38 H2          7.5270   -4.7980    0.0570 ha        1 PU5      0.160000
     39 H3          7.9650   -5.4450    2.3860 ha        1 PU5      0.159000
     40 H7C1        6.1130   -4.3380   -1.7120 h1        1 PU5      0.093667
     41 H7C2        6.2350   -2.7730   -2.6730 h1        1 PU5      0.093667
     42 H7C3        7.7070   -3.4250   -1.7820 h1        1 PU5      0.093667
     43 C9          5.1170   -2.2530    3.9130 c3        1 PU5     -0.060000
     44 H53         6.0100    1.6570    7.5670 hn        1 PU5      0.270333
     45 H1          7.2040   -4.0140    4.2920 ha        1 PU5      0.149000
@<TRIPOS>BOND
     1    1    2 1   
     2    1   24 1   
     3    1   25 1   
     4    1   26 1   
     5    2    3 1   
     6    2   27 1   
     7    2   28 1   
     8    3    4 1   
     9    3   30 1   
    10    4    5 1   
    11    4   31 1   
    12    5    6 1   
    13    5   14 1   
    14    6    7 1   
    15    6   10 1   
    16    7    8 1   
    17    7   32 1   
    18    8    9 1   
    19    9   11 1   
    20   10   11 1   
    21   10   13 1   
    22   11   12 1   
    23   12   35 1   
    24   12   36 1   
    25   12   44 1   
    26   13   14 1   
    27   14   43 1   
    28   15   16 1   
    29   15   18 1   
    30   15   45 1   
    31   16   17 1   
    32   16   37 1   
    33   16   43 1   
    34   17   20 1   
    35   18   19 1   
    36   18   39 1   
    37   19   20 1   
    38   19   38 1   
    39   20   21 1   
    40   21   22 1   
    41   22   40 1   
    42   22   41 1   
    43   22   42 1   
    44   23   29 1   
    45   33   43 1   
    46   34   43 1   
@<TRIPOS>SUBSTRUCTURE
     1 PU5         1 TEMP              0 ****  ****    0 ROOT
