@<TRIPOS>MOLECULE
PU5
   44    45     1     0     0
SMALL
bcc


@<TRIPOS>ATOM
      1 C18        -2.0210    1.3660    1.1240 c3        1 PU5     -0.270000
      2 C17         2.5130    0.2620    0.6760 cx        1 PU5     -0.214000
      3 C16         1.4260    0.1160    1.6970 cx        1 PU5     -0.214000
      4 C15         2.5680    1.0890    1.9450 cx        1 PU5     -0.041000
      5 N2          3.5470    0.8810    2.9450 na        1 PU5     -0.164000
      6 C12         3.6260    1.5650    4.1660 c2        1 PU5      0.063000
      7 N4          2.9040    2.5890    4.7340 nh        1 PU5     -0.211000
      8 C14         3.2810    3.0460    5.9930 c1        1 PU5     -0.012000
      9 N3          4.3110    2.5420    6.6810 n2        1 PU5     -0.309000
     10 C11         4.7520    0.9830    4.8700 c2        1 PU5     -0.254000
     11 C13         5.0760    1.5190    6.1770 c2        1 PU5      0.273000
     12 N5          6.1290    1.0000    6.8720 n3        1 PU5     -0.352000
     13 N1          5.3210   -0.0340    4.0900 n2        1 PU5     -0.147000
     14 C10         4.5940   -0.0820    2.9670 c2        1 PU5     -0.086000
     15 C1          7.0750   -2.6750    2.0240 c2        1 PU5      0.048000
     16 C6          6.3560   -2.9000    0.8710 c2        1 PU5     -0.219000
     17 C5          6.8090   -3.9070   -0.0650 c2        1 PU5     -0.068000
     18 C2          8.2980   -3.4400    2.3240 c3        1 PU5     -0.236000
     19 C3          8.7330   -4.4460    1.3660 c1        1 PU5     -0.101000
     20 C4          7.9460   -4.6300    0.1930 c2        1 PU5     -0.040000
     21 O1          8.3090   -5.5720   -0.7540 os        1 PU5     -0.214000
     22 C7          9.4980   -6.2990   -0.4390 c3        1 PU5     -0.057000
     23 H181       -1.9150    0.3190    0.7670 hc        1 PU5      0.068000
     24 H182       -3.0680    1.7060    0.9700 hc        1 PU5      0.068000
     25 H183       -1.7720    1.4160    2.2070 hc        1 PU5      0.068000
     26 H171       -1.3310    2.0250    0.5530 hc        1 PU5      0.068000
     27 H172        2.3050    0.7950   -0.2690 hc        1 PU5      0.126750
     28 H161        3.2310   -0.5700    0.5330 hc        1 PU5      0.126750
     29 H162        0.4240    0.5390    1.4950 hc        1 PU5      0.126750
     30 H151        1.3690   -0.8190    2.2820 hc        1 PU5      0.126750
     31 H152        2.3330    2.1760    1.8560 h1        1 PU5      0.133000
     32 H14         2.1260    2.9940    4.2690 hn        1 PU5      0.247000
     33 H9C1        4.7600   -0.7790    2.1060 h5        1 PU5      0.265000
     34 H9C2        4.6250   -2.3230   -0.2740 ha        1 PU5      0.058000
     35 H5N1        6.6540    0.2590    6.4820 hn        1 PU5      0.242000
     36 H5N2        6.3630    1.3510    7.7680 hn        1 PU5      0.242000
     37 H5          6.2200   -4.0720   -0.9810 ha        1 PU5      0.153000
     38 H2          9.1650   -2.7220    2.4700 hc        1 PU5      0.187000
     39 H3          8.1800   -3.9610    3.3250 hc        1 PU5      0.187000
     40 H7C1       10.3670   -5.6040   -0.3530 h1        1 PU5      0.085667
     41 H7C2        9.6130   -6.9920   -1.3100 h1        1 PU5      0.085667
     42 H7C3        9.3660   -6.8640    0.5150 h1        1 PU5      0.085667
     43 C9          5.1900   -2.1290    0.6490 c1        1 PU5     -0.102000
     44 H1          6.7430   -1.9100    2.7500 ha        1 PU5      0.177000
@<TRIPOS>BOND
     1    1   23 1   
     2    1   24 1   
     3    1   25 1   
     4    1   26 1   
     5    2    3 1   
     6    2    4 1   
     7    2   27 1   
     8    2   28 1   
     9    3    4 1   
    10    3   29 1   
    11    3   30 1   
    12    4    5 1   
    13    4   31 1   
    14    5    6 1   
    15    5   14 1   
    16    6    7 1   
    17    6   10 1   
    18    7    8 1   
    19    7   32 1   
    20    8    9 1   
    21    9   11 1   
    22   10   11 1   
    23   10   13 1   
    24   11   12 1   
    25   12   35 1   
    26   12   36 1   
    27   13   14 1   
    28   14   33 1   
    29   15   16 1   
    30   15   18 1   
    31   15   44 1   
    32   16   17 1   
    33   16   43 1   
    34   17   20 1   
    35   17   37 1   
    36   18   19 1   
    37   18   38 1   
    38   18   39 1   
    39   19   20 1   
    40   20   21 1   
    41   21   22 1   
    42   22   40 1   
    43   22   41 1   
    44   22   42 1   
    45   34   43 1   
@<TRIPOS>SUBSTRUCTURE
     1 PU5         1 TEMP              0 ****  ****    0 ROOT
