@<TRIPOS>MOLECULE
PU5
   44    44     1     0     0
SMALL
bcc


@<TRIPOS>ATOM
      1 C18         0.7500    2.0980    0.4810 c3        1 PU5     -0.211000
      2 C17         1.0090    0.6400    0.1990 c3        1 PU5     -0.182000
      3 C16        -0.2490   -0.1810    0.3140 c3        1 PU5     -0.211000
      4 C15         3.5630   -0.7440    2.2190 c1        1 PU5     -0.082000
      5 N2          4.1080   -0.1820    3.2730 na        1 PU5     -0.126000
      6 C12         3.7990    1.1460    3.7330 c2        1 PU5      0.103000
      7 N4          2.9470    2.1030    3.2700 nu        1 PU5     -0.179000
      8 C14         2.8830    3.3180    3.9650 c1        1 PU5     -0.014000
      9 N3          3.6140    3.5770    5.0500 n2        1 PU5     -0.300000
     10 C11         4.6100    1.3710    4.8980 c2        1 PU5     -0.271000
     11 C13         4.4930    2.6480    5.5640 c2        1 PU5      0.269000
     12 N5          5.2430    2.9050    6.6730 n8        1 PU5     -0.348000
     13 N1          5.4030    0.2260    5.1690 n2        1 PU5     -0.099000
     14 C10         5.1070   -0.6580    4.2330 c2        1 PU5     -0.143000
     15 C1          7.7340   -5.0770    3.2760 c2        1 PU5     -0.008000
     16 C6          6.9660   -3.9510    3.1000 c2        1 PU5     -0.205000
     17 C5          6.8120   -3.3940    1.7730 c2        1 PU5     -0.030000
     18 C2          8.4120   -5.7320    2.1440 c3        1 PU5     -0.228000
     19 C3          8.2410   -5.1540    0.8200 c1        1 PU5     -0.098000
     20 C4          7.4290   -3.9900    0.7010 c2        1 PU5     -0.038000
     21 O1          7.2290   -3.3980   -0.5330 os        1 PU5     -0.207000
     22 C7          7.8920   -4.0490   -1.6190 c3        1 PU5     -0.058000
     23 H181       -1.0220    0.1760   -0.4080 hc        1 PU5      0.070000
     24 H182        1.6940    2.6880    0.3940 hc        1 PU5      0.070000
     25 H183        0.0100    2.5140   -0.2450 hc        1 PU5      0.070000
     26 H171        0.3380    2.2350    1.5100 hc        1 PU5      0.070000
     27 H172        1.7860    0.2430    0.9120 hc        1 PU5      0.092000
     28 H161        1.4310    0.5310   -0.8360 hc        1 PU5      0.092000
     29 H162       -0.6740   -0.1080    1.3440 hc        1 PU5      0.070000
     30 H151       -0.0330   -1.2550    0.0980 hc        1 PU5      0.070000
     31 H152        3.9210   -1.7740    1.9990 ha        1 PU5      0.057000
     32 H14         2.3820    1.9470    2.4600 hn        1 PU5      0.274000
     33 H9C1        5.5440   -1.7150    4.1270 h5        1 PU5      0.295000
     34 H9C2        6.4070   -3.7260    5.1730 ha        1 PU5      0.067000
     35 H5N1        5.8630    2.2140    7.0140 hn        1 PU5      0.245000
     36 H5N2        5.1720    3.7760    7.1390 hn        1 PU5      0.245000
     37 H5          6.1900   -2.4900    1.6610 ha        1 PU5      0.167000
     38 H2          9.5290   -5.7760    2.3440 hc        1 PU5      0.186500
     39 H3          8.0830   -6.8160    2.0790 hc        1 PU5      0.186500
     40 H7C1        8.9960   -4.0450   -1.4580 h1        1 PU5      0.087667
     41 H7C2        7.5250   -5.0980   -1.7240 h1        1 PU5      0.087667
     42 H7C3        7.6050   -3.4250   -2.5020 h1        1 PU5      0.087667
     43 C9          6.3100   -3.2890    4.1680 c1        1 PU5     -0.067000
     44 H1          7.8650   -5.5210    4.2780 ha        1 PU5      0.141000
@<TRIPOS>BOND
     1    1    2 1   
     2    1   24 1   
     3    1   25 1   
     4    1   26 1   
     5    2    3 1   
     6    2   27 1   
     7    2   28 1   
     8    3   23 1   
     9    3   29 1   
    10    3   30 1   
    11    4    5 1   
    12    4   31 1   
    13    5    6 1   
    14    5   14 1   
    15    6    7 1   
    16    6   10 1   
    17    7    8 1   
    18    7   32 1   
    19    8    9 1   
    20    9   11 1   
    21   10   11 1   
    22   10   13 1   
    23   11   12 1   
    24   12   35 1   
    25   12   36 1   
    26   13   14 1   
    27   14   33 1   
    28   15   16 1   
    29   15   18 1   
    30   15   44 1   
    31   16   17 1   
    32   16   43 1   
    33   17   20 1   
    34   17   37 1   
    35   18   19 1   
    36   18   38 1   
    37   18   39 1   
    38   19   20 1   
    39   20   21 1   
    40   21   22 1   
    41   22   40 1   
    42   22   41 1   
    43   22   42 1   
    44   34   43 1   
@<TRIPOS>SUBSTRUCTURE
     1 PU5         1 TEMP              0 ****  ****    0 ROOT
