@<TRIPOS>MOLECULE
PU6
   43    46     1     0     0
SMALL
bcc


@<TRIPOS>ATOM
      1 C18         0.4730   -0.0300   -0.3470 c3        1 PU6     -0.093100
      2 C17         1.9550    0.0320   -0.0760 c3        1 PU6     -0.079400
      3 C16         2.2420    0.0030    1.4100 c3        1 PU6     -0.103400
      4 C15         3.7530    0.0580    1.6440 c3        1 PU6      0.040300
      5 N2          4.1500    0.0350    3.0220 na        1 PU6     -0.248000
      6 C12         4.2760    1.1440    3.8680 ca        1 PU6      0.456800
      7 N4          4.1400    2.4830    3.6160 nb        1 PU6     -0.734000
      8 C14         4.3610    3.2420    4.7130 ca        1 PU6      0.684900
      9 N3          4.6870    2.8790    5.9840 nb        1 PU6     -0.797000
     10 C11         4.6220    0.6000    5.1750 ca        1 PU6     -0.229200
     11 C13         4.8350    1.5380    6.2430 ca        1 PU6      0.759200
     12 N5          5.2070    1.0950    7.4860 nv        1 PU6     -0.959500
     13 N1          4.6820   -0.7960    5.1140 nc        1 PU6     -0.548100
     14 C10         4.3870   -1.1120    3.8340 cd        1 PU6      0.401800
     15 C9          4.3220   -2.5030    3.2830 c3        1 PU6     -0.043400
     16 C1          5.5300   -2.8430    2.4770 ca        1 PU6     -0.094300
     17 C6          5.3650   -3.2090    1.1220 ca        1 PU6     -0.115000
     18 C5          6.5120   -3.5430    0.4350 ca        1 PU6      0.054100
     19 C2          6.7920   -2.8250    3.0750 ca        1 PU6     -0.113000
     20 O3          6.6440   -3.9380   -0.8930 os        1 PU6     -0.334900
     21 C3          7.9590   -3.1650    2.3690 ca        1 PU6     -0.109000
     22 C4          7.7930   -3.5220    1.0470 ca        1 PU6      0.059100
     23 O1          8.7540   -3.9030    0.1170 os        1 PU6     -0.331900
     24 C7          8.0540   -4.1710   -1.1210 c3        1 PU6      0.321200
     25 H181        0.2800   -0.0050   -1.4460 hc        1 PU6      0.036033
     26 H182       -0.0500    0.8380    0.1230 hc        1 PU6      0.036033
     27 H183        0.0350   -0.9700    0.0680 hc        1 PU6      0.036033
     28 H171        2.3800    0.9710   -0.5210 hc        1 PU6      0.042200
     29 H172        2.4660   -0.8330   -0.5760 hc        1 PU6      0.042200
     30 H161        1.8150   -0.9310    1.8600 hc        1 PU6      0.053700
     31 H162        1.7450    0.8750    1.9090 hc        1 PU6      0.053700
     32 H151        4.1590    1.0040    1.1810 h1        1 PU6      0.072200
     33 H152        4.2390   -0.8270    1.1350 h1        1 PU6      0.072200
     34 H14         4.2590    4.3390    4.5600 h5        1 PU6      0.050100
     35 H5N1        5.2730    1.7280    8.2440 hn        1 PU6      0.445800
     36 H5N2        5.1980    0.1220    7.6640 hn        1 PU6      0.445800
     37 H9C1        4.2360   -3.2290    4.1400 hc        1 PU6      0.077200
     38 H9C2        3.3900   -2.6050    2.6610 hc        1 PU6      0.077200
     39 H6          4.3770   -3.2320    0.6460 ha        1 PU6      0.153000
     40 H2          6.8790   -2.5310    4.1340 ha        1 PU6      0.155000
     41 H3          8.9460   -3.1450    2.8490 ha        1 PU6      0.159000
     42 H7C1        8.1990   -5.2470   -1.3860 h2        1 PU6      0.073700
     43 H7C2        8.4140   -3.4530   -1.8970 h2        1 PU6      0.073700
@<TRIPOS>BOND
     1    1    2 1   
     2    1   25 1   
     3    1   26 1   
     4    1   27 1   
     5    2    3 1   
     6    2   28 1   
     7    2   29 1   
     8    3    4 1   
     9    3   30 1   
    10    3   31 1   
    11    4    5 1   
    12    4   32 1   
    13    4   33 1   
    14    5    6 1   
    15    5   14 1   
    16    6    7 ar  
    17    6   10 ar  
    18    7    8 ar  
    19    8    9 ar  
    20    8   34 1   
    21    9   11 ar  
    22   10   11 ar  
    23   10   13 1   
    24   11   12 1   
    25   12   35 1   
    26   12   36 1   
    27   13   14 2   
    28   14   15 1   
    29   15   16 1   
    30   15   37 1   
    31   15   38 1   
    32   16   17 ar  
    33   16   19 ar  
    34   17   18 ar  
    35   17   39 1   
    36   18   20 1   
    37   18   22 ar  
    38   19   21 ar  
    39   19   40 1   
    40   20   24 1   
    41   21   22 ar  
    42   21   41 1   
    43   22   23 1   
    44   23   24 1   
    45   24   42 1   
    46   24   43 1   
@<TRIPOS>SUBSTRUCTURE
     1 PU6         1 TEMP              0 ****  ****    0 ROOT
