@<TRIPOS>MOLECULE
PU6
   43    46     1     0     0
SMALL
bcc


@<TRIPOS>ATOM
      1 C18         5.3200    0.2860    1.5540 c3        1 PU6     -0.093100
      2 C17         4.0900   -0.3880    1.0040 c3        1 PU6     -0.079400
      3 C16         2.8270    0.2430    1.5530 c3        1 PU6     -0.103400
      4 C15         1.6020   -0.4610    0.9660 c3        1 PU6      0.040300
      5 N2          0.3400    0.0530    1.4140 na        1 PU6     -0.248000
      6 C12        -0.3540   -0.3400    2.5660 ca        1 PU6      0.456800
      7 N4         -0.0800   -1.3130    3.4890 nb        1 PU6     -0.734000
      8 C14        -1.0190   -1.3870    4.4590 ca        1 PU6      0.684900
      9 N3         -2.1540   -0.6590    4.6430 nb        1 PU6     -0.797000
     10 C11        -1.5290    0.5210    2.6250 ca        1 PU6     -0.229200
     11 C13        -2.4410    0.3140    3.7160 ca        1 PU6      0.759200
     12 N5         -3.5880    1.0590    3.8060 nh        1 PU6     -0.959500
     13 N1         -1.5240    1.4140    1.5490 nc        1 PU6     -0.548100
     14 C10        -0.4040    1.1290    0.8500 cd        1 PU6      0.401800
     15 C9          0.0370    1.8330   -0.3960 c3        1 PU6     -0.043400
     16 C1         -0.2320    1.0260   -1.6200 ca        1 PU6     -0.094300
     17 C6          0.8510    0.6700   -2.4550 ca        1 PU6     -0.115000
     18 C5          0.5400   -0.0490   -3.5890 ca        1 PU6      0.054100
     19 C2         -1.5420    0.6620   -1.9380 ca        1 PU6     -0.113000
     20 O3          1.3970   -0.5260   -4.5760 os        1 PU6     -0.334900
     21 C3         -1.8550   -0.0740   -3.0950 ca        1 PU6     -0.109000
     22 C4         -0.7940   -0.4180   -3.9060 ca        1 PU6      0.059100
     23 O1         -0.8010   -1.1320   -5.0990 os        1 PU6     -0.331900
     24 C7          0.5730   -1.2160   -5.5450 c3        1 PU6      0.321200
     25 H181        6.2400   -0.1930    1.1410 hc        1 PU6      0.036033
     26 H182        5.3330    1.3690    1.2830 hc        1 PU6      0.036033
     27 H183        5.3490    0.2040    2.6680 hc        1 PU6      0.036033
     28 H171        4.0900   -0.3170   -0.1160 hc        1 PU6      0.042200
     29 H172        4.1080   -1.4790    1.2670 hc        1 PU6      0.042200
     30 H161        2.8180    0.1590    2.6710 hc        1 PU6      0.053700
     31 H162        2.8060    1.3340    1.2970 hc        1 PU6      0.053700
     32 H151        1.6260   -0.3680   -0.1600 h1        1 PU6      0.072200
     33 H152        1.6470   -1.5560    1.2350 h1        1 PU6      0.072200
     34 H14        -0.8390   -2.1630    5.2350 h5        1 PU6      0.050100
     35 H5N1       -4.1760    0.9790    4.5980 hn        1 PU6      0.445800
     36 H5N2       -3.7070    1.8210    3.1860 hn        1 PU6      0.445800
     37 H9C1       -0.5140    2.8120   -0.4730 hc        1 PU6      0.077200
     38 H9C2        1.1340    2.0700   -0.3110 hc        1 PU6      0.077200
     39 H6          1.8830    0.9570   -2.2160 ha        1 PU6      0.153000
     40 H2         -2.3600    0.9550   -1.2600 ha        1 PU6      0.155000
     41 H3         -2.8880   -0.3560   -3.3340 ha        1 PU6      0.159000
     42 H7C1        0.8750   -2.2920   -5.5690 h2        1 PU6      0.073700
     43 H7C2        0.6620   -0.6910   -6.5270 h2        1 PU6      0.073700
@<TRIPOS>BOND
     1    1    2 1   
     2    1   25 1   
     3    1   26 1   
     4    1   27 1   
     5    2    3 1   
     6    2   28 1   
     7    2   29 1   
     8    3    4 1   
     9    3   30 1   
    10    3   31 1   
    11    4    5 1   
    12    4   32 1   
    13    4   33 1   
    14    5    6 1   
    15    5   14 1   
    16    6    7 ar  
    17    6   10 ar  
    18    7    8 ar  
    19    8    9 ar  
    20    8   34 1   
    21    9   11 ar  
    22   10   11 ar  
    23   10   13 1   
    24   11   12 1   
    25   12   35 1   
    26   12   36 1   
    27   13   14 2   
    28   14   15 1   
    29   15   16 1   
    30   15   37 1   
    31   15   38 1   
    32   16   17 ar  
    33   16   19 ar  
    34   17   18 ar  
    35   17   39 1   
    36   18   20 1   
    37   18   22 ar  
    38   19   21 ar  
    39   19   40 1   
    40   20   24 1   
    41   21   22 ar  
    42   21   41 1   
    43   22   23 1   
    44   23   24 1   
    45   24   42 1   
    46   24   43 1   
@<TRIPOS>SUBSTRUCTURE
     1 PU6         1 TEMP              0 ****  ****    0 ROOT
