@<TRIPOS>MOLECULE
PU6
   43    46     1     0     0
SMALL
bcc


@<TRIPOS>ATOM
      1 C18         0.4850   -0.0230   -0.3630 c3        1 PU6     -0.093100
      2 C17         1.9650    0.0390   -0.0850 c3        1 PU6     -0.079400
      3 C16         2.2460    0.0060    1.4020 c3        1 PU6     -0.103400
      4 C15         3.7560    0.0600    1.6430 c3        1 PU6      0.040300
      5 N2          4.1460    0.0330    3.0230 na        1 PU6     -0.248000
      6 C12         4.2690    1.1400    3.8730 ca        1 PU6      0.456800
      7 N4          4.1340    2.4790    3.6250 nb        1 PU6     -0.734000
      8 C14         4.3490    3.2350    4.7250 ca        1 PU6      0.684900
      9 N3          4.6700    2.8680    5.9960 nb        1 PU6     -0.797000
     10 C11         4.6090    0.5910    5.1800 ca        1 PU6     -0.229200
     11 C13         4.8160    1.5260    6.2510 ca        1 PU6      0.759200
     12 N5          5.1830    1.0790    7.4950 nh        1 PU6     -0.959500
     13 N1          4.6680   -0.8050    5.1140 nc        1 PU6     -0.548100
     14 C10         4.3800   -1.1170    3.8320 cd        1 PU6      0.401800
     15 C9          4.3160   -2.5060    3.2770 c3        1 PU6     -0.043400
     16 C1          5.5280   -2.8440    2.4750 ca        1 PU6     -0.094300
     17 C6          5.3700   -3.2050    1.1190 ca        1 PU6     -0.115000
     18 C5          6.5200   -3.5380    0.4360 ca        1 PU6      0.054100
     19 C2          6.7870   -2.8280    3.0800 ca        1 PU6     -0.113000
     20 O3          6.6580   -3.9280   -0.8930 os        1 PU6     -0.334900
     21 C3          7.9580   -3.1660    2.3790 ca        1 PU6     -0.109000
     22 C4          7.7980   -3.5190    1.0540 ca        1 PU6      0.059100
     23 O1          8.7630   -3.8970    0.1280 os        1 PU6     -0.331900
     24 C7          8.0690   -4.1620   -1.1140 c3        1 PU6      0.321200
     25 H181        0.2980    0.0050   -1.4640 hc        1 PU6      0.036033
     26 H182        0.0450   -0.9640    0.0470 hc        1 PU6      0.036033
     27 H183       -0.0400    0.8440    0.1070 hc        1 PU6      0.036033
     28 H171        2.3930    0.9780   -0.5260 hc        1 PU6      0.042200
     29 H172        2.4790   -0.8250   -0.5850 hc        1 PU6      0.042200
     30 H161        1.8160   -0.9290    1.8480 hc        1 PU6      0.053700
     31 H162        1.7460    0.8770    1.9010 hc        1 PU6      0.053700
     32 H151        4.2440   -0.8230    1.1340 h1        1 PU6      0.072200
     33 H152        4.1640    1.0080    1.1850 h1        1 PU6      0.072200
     34 H14         4.2480    4.3320    4.5750 h5        1 PU6      0.050100
     35 H5N1        5.1720    0.1060    7.6700 hn        1 PU6      0.445800
     36 H5N2        5.2450    1.7100    8.2550 hn        1 PU6      0.445800
     37 H9C1        4.2270   -3.2340    4.1310 hc        1 PU6      0.077200
     38 H9C2        3.3880   -2.6050    2.6500 hc        1 PU6      0.077200
     39 H6          4.3840   -3.2270    0.6370 ha        1 PU6      0.153000
     40 H2          6.8700   -2.5370    4.1390 ha        1 PU6      0.155000
     41 H3          8.9430   -3.1480    2.8620 ha        1 PU6      0.159000
     42 H7C1        8.2150   -5.2370   -1.3820 h2        1 PU6      0.073700
     43 H7C2        8.4330   -3.4410   -1.8870 h2        1 PU6      0.073700
@<TRIPOS>BOND
     1    1    2 1   
     2    1   25 1   
     3    1   26 1   
     4    1   27 1   
     5    2    3 1   
     6    2   28 1   
     7    2   29 1   
     8    3    4 1   
     9    3   30 1   
    10    3   31 1   
    11    4    5 1   
    12    4   32 1   
    13    4   33 1   
    14    5    6 1   
    15    5   14 1   
    16    6    7 ar  
    17    6   10 ar  
    18    7    8 ar  
    19    8    9 ar  
    20    8   34 1   
    21    9   11 ar  
    22   10   11 ar  
    23   10   13 1   
    24   11   12 1   
    25   12   35 1   
    26   12   36 1   
    27   13   14 2   
    28   14   15 1   
    29   15   16 1   
    30   15   37 1   
    31   15   38 1   
    32   16   17 ar  
    33   16   19 ar  
    34   17   18 ar  
    35   17   39 1   
    36   18   20 1   
    37   18   22 ar  
    38   19   21 ar  
    39   19   40 1   
    40   20   24 1   
    41   21   22 ar  
    42   21   41 1   
    43   22   23 1   
    44   23   24 1   
    45   24   42 1   
    46   24   43 1   
@<TRIPOS>SUBSTRUCTURE
     1 PU6         1 TEMP              0 ****  ****    0 ROOT
