@<TRIPOS>MOLECULE
PU6
   44    47     1     0     0
SMALL
bcc


@<TRIPOS>ATOM
      1 C18         0.5070   -0.1080   -0.3900 c3        1 PU6     -0.096100
      2 C17         1.9850   -0.0260   -0.1070 c3        1 PU6     -0.079400
      3 C16         2.2540   -0.0220    1.3840 c3        1 PU6     -0.101400
      4 C15         3.7610    0.0560    1.6270 c3        1 PU6      0.023300
      5 N2          4.1460    0.0470    3.0180 na        1 PU6     -0.229000
      6 C12         4.2820    1.1760    3.8370 ca        1 PU6      0.450800
      7 N4          4.1600    2.5020    3.5890 nb        1 PU6     -0.615000
      8 C14         4.3890    3.2920    4.6710 ca        1 PU6      0.664900
      9 N3          4.7200    2.9240    5.9420 nb        1 PU6     -0.679000
     10 C11         4.6380    0.6340    5.1710 ca        1 PU6     -0.126200
     11 C13         4.8410    1.5940    6.1780 ca        1 PU6      0.505200
     12 N5          5.2000    1.1270    7.5290 n4        1 PU6     -0.813300
     13 N1          4.6930   -0.7550    5.1260 nc        1 PU6     -0.605100
     14 C10         4.3900   -1.0830    3.8400 cd        1 PU6      0.515800
     15 C9          4.3240   -2.4890    3.3150 c3        1 PU6     -0.057400
     16 C1          5.5250   -2.8260    2.5000 ca        1 PU6     -0.123300
     17 C6          5.3530   -3.1270    1.1290 ca        1 PU6     -0.115000
     18 C5          6.4910   -3.4680    0.4310 ca        1 PU6      0.066100
     19 C2          6.7810   -2.8860    3.1050 ca        1 PU6     -0.114000
     20 O3          6.6160   -3.8050   -0.9090 os        1 PU6     -0.325900
     21 C3          7.9410   -3.2350    2.3900 ca        1 PU6     -0.112000
     22 C4          7.7710   -3.5210    1.0510 ca        1 PU6      0.082100
     23 O1          8.7200   -3.8920    0.1120 os        1 PU6     -0.320900
     24 C7          8.0180   -4.0940   -1.1410 c3        1 PU6      0.320200
     25 H181        0.0720   -1.0440    0.0390 hc        1 PU6      0.044367
     26 H182        0.3280   -0.1100   -1.4920 hc        1 PU6      0.044367
     27 H183       -0.0310    0.7640    0.0530 hc        1 PU6      0.044367
     28 H171        2.5090   -0.8960   -0.5830 hc        1 PU6      0.048700
     29 H172        2.4050    0.9080   -0.5670 hc        1 PU6      0.048700
     30 H161        1.7380    0.8540    1.8570 hc        1 PU6      0.056700
     31 H162        1.8320   -0.9530    1.8460 hc        1 PU6      0.056700
     32 H151        4.1630    1.0030    1.1630 h1        1 PU6      0.091700
     33 H152        4.2690   -0.8270    1.1360 h1        1 PU6      0.091700
     34 H14         4.2960    4.3910    4.5030 h5        1 PU6      0.098100
     35 H5N1        4.4780    0.4690    7.8480 hn        1 PU6      0.476467
     36 H5N2        6.1020    0.6380    7.4760 hn        1 PU6      0.476467
     37 H9C1        4.2530   -3.1980    4.1880 hc        1 PU6      0.095700
     38 H9C2        3.3830   -2.6030    2.7080 hc        1 PU6      0.095700
     39 H6          4.3660   -3.1110    0.6490 ha        1 PU6      0.157000
     40 H2          6.8750   -2.6640    4.1800 ha        1 PU6      0.140000
     41 H3          8.9240   -3.2840    2.8760 ha        1 PU6      0.167000
     42 H7C1        8.1170   -5.1680   -1.4360 h2        1 PU6      0.087700
     43 H7C2        8.4120   -3.3650   -1.8910 h2        1 PU6      0.087700
     44 H53         5.2710    1.9120    8.1890 hn        1 PU6      0.476467
@<TRIPOS>BOND
     1    1    2 1   
     2    1   25 1   
     3    1   26 1   
     4    1   27 1   
     5    2    3 1   
     6    2   28 1   
     7    2   29 1   
     8    3    4 1   
     9    3   30 1   
    10    3   31 1   
    11    4    5 1   
    12    4   32 1   
    13    4   33 1   
    14    5    6 1   
    15    5   14 1   
    16    6    7 ar  
    17    6   10 ar  
    18    7    8 ar  
    19    8    9 ar  
    20    8   34 1   
    21    9   11 ar  
    22   10   11 ar  
    23   10   13 1   
    24   11   12 1   
    25   12   35 1   
    26   12   36 1   
    27   12   44 1   
    28   13   14 2   
    29   14   15 1   
    30   15   16 1   
    31   15   37 1   
    32   15   38 1   
    33   16   17 ar  
    34   16   19 ar  
    35   17   18 ar  
    36   17   39 1   
    37   18   20 1   
    38   18   22 ar  
    39   19   21 ar  
    40   19   40 1   
    41   20   24 1   
    42   21   22 ar  
    43   21   41 1   
    44   22   23 1   
    45   23   24 1   
    46   24   42 1   
    47   24   43 1   
@<TRIPOS>SUBSTRUCTURE
     1 PU6         1 TEMP              0 ****  ****    0 ROOT
