@<TRIPOS>MOLECULE
PU7
   49    51     1     0     0
SMALL
bcc


@<TRIPOS>ATOM
      1 C19        -0.1490    0.8460   -0.3550 c3        1 PU7      0.111700
      2 C5          0.5430    0.1950    2.2860 ca        1 PU7     -0.158000
      3 O20         1.1280    0.2680   -0.0950 os        1 PU7     -0.337900
      4 C6          1.4710    0.1400    1.2390 ca        1 PU7      0.108100
      5 C4          0.9640    0.0360    3.6030 ca        1 PU7     -0.149000
      6 C3          2.3220   -0.1740    3.8720 ca        1 PU7      0.105100
      7 O2          2.8550   -0.3550    5.1320 os        1 PU7     -0.326900
      8 C8          1.9590   -0.1790    6.2260 c3        1 PU7      0.110700
      9 C2          3.2590   -0.2250    2.8260 ca        1 PU7     -0.130000
     10 C1          2.8410   -0.0750    1.5050 ca        1 PU7     -0.107300
     11 C9          3.8370   -0.0880    0.3980 c3        1 PU7     -0.051400
     12 C10         4.1560   -1.4900   -0.0420 cc        1 PU7      0.525800
     13 N1          3.4460   -2.1580   -0.9920 nd        1 PU7     -0.590100
     14 C11         4.0620   -3.3980   -1.1080 ca        1 PU7     -0.124200
     15 C13         3.8290   -4.5400   -1.8940 ca        1 PU7      0.501200
     16 N5          2.6960   -4.5170   -2.8370 n4        1 PU7     -0.812300
     17 C12         5.2140   -3.4860   -0.1800 ca        1 PU7      0.447800
     18 N4          6.0030   -4.5840   -0.0890 nb        1 PU7     -0.616000
     19 C14         5.6410   -5.5970   -0.9190 ca        1 PU7      0.661900
     20 N3          4.6100   -5.6460   -1.8100 nb        1 PU7     -0.680000
     21 N2          5.2440   -2.2450    0.4730 na        1 PU7     -0.238000
     22 C15         6.1890   -1.8880    1.5040 c3        1 PU7      0.032300
     23 C16         5.9980   -2.6270    2.8290 c3        1 PU7     -0.107400
     24 C17         6.9840   -2.0900    3.8480 c3        1 PU7     -0.078400
     25 C18         6.8640   -2.8290    5.1560 c3        1 PU7     -0.096100
     26 H191       -0.9600    0.1250   -0.0870 h1        1 PU7      0.050700
     27 H192       -0.1330    1.0260   -1.4600 h1        1 PU7      0.050700
     28 H193       -0.2770    1.8060    0.2010 h1        1 PU7      0.050700
     29 H4          0.2260    0.0830    4.4180 ha        1 PU7      0.153000
     30 H8C1        1.1620   -0.9620    6.2070 h1        1 PU7      0.052033
     31 H8C2        1.5090    0.8430    6.2100 h1        1 PU7      0.052033
     32 H8C3        2.6180   -0.3080    7.1220 h1        1 PU7      0.052033
     33 H2          4.3230   -0.3730    3.0690 ha        1 PU7      0.149000
     34 H9C1        3.4200    0.4700   -0.4900 hc        1 PU7      0.098700
     35 H9C2        4.7780    0.4390    0.7160 hc        1 PU7      0.098700
     36 H5N1        1.8500   -4.2450   -2.3200 hn        1 PU7      0.475467
     37 H5N2        2.8890   -3.8130   -3.5590 hn        1 PU7      0.475467
     38 H14         6.2690   -6.5180   -0.8690 h5        1 PU7      0.096100
     39 H151        6.1060   -0.7770    1.6800 h1        1 PU7      0.081700
     40 H152        7.2230   -2.1100    1.1060 h1        1 PU7      0.081700
     41 H161        4.9520   -2.4910    3.2100 hc        1 PU7      0.065200
     42 H162        6.1670   -3.7260    2.6830 hc        1 PU7      0.065200
     43 H171        8.0290   -2.1910    3.4520 hc        1 PU7      0.046200
     44 H172        6.7920   -0.9970    4.0150 hc        1 PU7      0.046200
     45 H181        5.8350   -2.7220    5.5770 hc        1 PU7      0.044033
     46 H182        7.5930   -2.4180    5.8960 hc        1 PU7      0.044033
     47 H183        7.0770   -3.9170    5.0170 hc        1 PU7      0.044033
     48 H53         2.5580   -5.4360   -3.2760 hn        1 PU7      0.475467
     49 H5         -0.5240    0.3660    2.0790 ha        1 PU7      0.150000
@<TRIPOS>BOND
     1    1    3 1   
     2    1   26 1   
     3    1   27 1   
     4    1   28 1   
     5    2    4 ar  
     6    2    5 ar  
     7    2   49 1   
     8    3    4 1   
     9    4   10 ar  
    10    5    6 ar  
    11    5   29 1   
    12    6    7 1   
    13    6    9 ar  
    14    7    8 1   
    15    8   30 1   
    16    8   31 1   
    17    8   32 1   
    18    9   10 ar  
    19    9   33 1   
    20   10   11 1   
    21   11   12 1   
    22   11   34 1   
    23   11   35 1   
    24   12   13 2   
    25   12   21 1   
    26   13   14 1   
    27   14   15 ar  
    28   14   17 ar  
    29   15   16 1   
    30   15   20 ar  
    31   16   36 1   
    32   16   37 1   
    33   16   48 1   
    34   17   18 ar  
    35   17   21 1   
    36   18   19 ar  
    37   19   20 ar  
    38   19   38 1   
    39   21   22 1   
    40   22   23 1   
    41   22   39 1   
    42   22   40 1   
    43   23   24 1   
    44   23   41 1   
    45   23   42 1   
    46   24   25 1   
    47   24   43 1   
    48   24   44 1   
    49   25   45 1   
    50   25   46 1   
    51   25   47 1   
@<TRIPOS>SUBSTRUCTURE
     1 PU7         1 TEMP              0 ****  ****    0 ROOT
