@<TRIPOS>MOLECULE
PU7
   48    50     1     0     0
SMALL
bcc


@<TRIPOS>ATOM
      1 C19        -0.1060    0.6250   -0.4140 c3        1 PU7      0.116700
      2 C5          0.6440    0.4580    2.2850 ca        1 PU7     -0.167000
      3 O20         1.2760    0.6460   -0.0740 os        1 PU7     -0.323900
      4 C6          1.5790    0.3750    1.2480 ca        1 PU7      0.109100
      5 C4          1.0390    0.2330    3.6030 ca        1 PU7     -0.164000
      6 C3          2.3750   -0.0680    3.8750 ca        1 PU7      0.094100
      7 O2          2.8890   -0.2980    5.1400 os        1 PU7     -0.328900
      8 C8          1.9570   -0.2300    6.2130 c3        1 PU7      0.113700
      9 C2          3.3190   -0.1580    2.8360 ca        1 PU7     -0.127000
     10 C1          2.9280    0.0490    1.5160 ca        1 PU7     -0.075300
     11 C9          3.9270   -0.0400    0.4130 c3        1 PU7     -0.038400
     12 C10         4.1670   -1.4560   -0.0170 cc        1 PU7      0.412800
     13 N1          3.4220   -2.1040   -0.9390 nd        1 PU7     -0.538100
     14 C11         3.9970   -3.3720   -1.0650 ca        1 PU7     -0.227200
     15 C13         3.6730   -4.5120   -1.8760 ca        1 PU7      0.755200
     16 N5          2.5720   -4.4850   -2.6960 nh        1 PU7     -0.957500
     17 C12         5.1450   -3.4890   -0.1770 ca        1 PU7      0.451800
     18 N4          5.9230   -4.6120   -0.0880 nb        1 PU7     -0.733000
     19 C14         5.5070   -5.5980   -0.9150 ca        1 PU7      0.680900
     20 N3          4.4640   -5.6320   -1.7890 nb        1 PU7     -0.797000
     21 N2          5.2450   -2.2520    0.4750 na        1 PU7     -0.256000
     22 C15         6.1990   -1.9410    1.5010 c3        1 PU7      0.049300
     23 C16         5.9840   -2.6780    2.8250 c3        1 PU7     -0.108400
     24 C17         6.9830   -2.1860    3.8500 c3        1 PU7     -0.077400
     25 C18         6.8370   -2.9280    5.1530 c3        1 PU7     -0.093100
     26 H191       -0.0990    0.6840   -1.5320 h1        1 PU7      0.043700
     27 H192       -0.6250    1.5130    0.0220 h1        1 PU7      0.043700
     28 H193       -0.5900   -0.3210   -0.0720 h1        1 PU7      0.043700
     29 H4          0.2940    0.2980    4.4080 ha        1 PU7      0.139000
     30 H8C1        1.5100    0.7910    6.2830 h1        1 PU7      0.043700
     31 H8C2        1.1570   -1.0000    6.0910 h1        1 PU7      0.043700
     32 H8C3        2.5820   -0.4500    7.1150 h1        1 PU7      0.043700
     33 H2          4.3650   -0.3980    3.0800 ha        1 PU7      0.150000
     34 H9C1        3.5530    0.5370   -0.4810 hc        1 PU7      0.080700
     35 H9C2        4.8920    0.4370    0.7350 hc        1 PU7      0.080700
     36 H5N1        2.4130   -5.2220   -3.3370 hn        1 PU7      0.443300
     37 H5N2        2.1090   -3.6200   -2.8280 hn        1 PU7      0.443300
     38 H14         6.1090   -6.5320   -0.8810 h5        1 PU7      0.049100
     39 H151        7.2240   -2.2050    1.1070 h1        1 PU7      0.061700
     40 H152        6.1680   -0.8300    1.6880 h1        1 PU7      0.061700
     41 H161        6.1110   -3.7820    2.6670 hc        1 PU7      0.064200
     42 H162        4.9410   -2.5110    3.2030 hc        1 PU7      0.064200
     43 H171        6.8310   -1.0870    4.0240 hc        1 PU7      0.038700
     44 H172        8.0250   -2.3200    3.4540 hc        1 PU7      0.038700
     45 H181        7.0090   -4.0210    5.0050 hc        1 PU7      0.036367
     46 H182        5.8110   -2.7870    5.5730 hc        1 PU7      0.036367
     47 H183        7.5790   -2.5500    5.8980 hc        1 PU7      0.036367
     48 H5         -0.4070    0.7010    2.0740 ha        1 PU7      0.140000
@<TRIPOS>BOND
     1    1    3 1   
     2    1   26 1   
     3    1   27 1   
     4    1   28 1   
     5    2    4 ar  
     6    2    5 ar  
     7    2   48 1   
     8    3    4 1   
     9    4   10 ar  
    10    5    6 ar  
    11    5   29 1   
    12    6    7 1   
    13    6    9 ar  
    14    7    8 1   
    15    8   30 1   
    16    8   31 1   
    17    8   32 1   
    18    9   10 ar  
    19    9   33 1   
    20   10   11 1   
    21   11   12 1   
    22   11   34 1   
    23   11   35 1   
    24   12   13 2   
    25   12   21 1   
    26   13   14 1   
    27   14   15 ar  
    28   14   17 ar  
    29   15   16 1   
    30   15   20 ar  
    31   16   36 1   
    32   16   37 1   
    33   17   18 ar  
    34   17   21 1   
    35   18   19 ar  
    36   19   20 ar  
    37   19   38 1   
    38   21   22 1   
    39   22   23 1   
    40   22   39 1   
    41   22   40 1   
    42   23   24 1   
    43   23   41 1   
    44   23   42 1   
    45   24   25 1   
    46   24   43 1   
    47   24   44 1   
    48   25   45 1   
    49   25   46 1   
    50   25   47 1   
@<TRIPOS>SUBSTRUCTURE
     1 PU7         1 TEMP              0 ****  ****    0 ROOT
