@<TRIPOS>MOLECULE
PU7
   48    50     1     0     0
SMALL
bcc


@<TRIPOS>ATOM
      1 C19        -0.1070    0.6410   -0.4190 c3        1 PU7      0.116700
      2 C5          0.6430    0.4690    2.2800 ca        1 PU7     -0.167000
      3 O20         1.2750    0.6530   -0.0800 os        1 PU7     -0.323900
      4 C6          1.5770    0.3810    1.2430 ca        1 PU7      0.109100
      5 C4          1.0370    0.2420    3.5980 ca        1 PU7     -0.164000
      6 C3          2.3720   -0.0670    3.8700 ca        1 PU7      0.094100
      7 O2          2.8840   -0.2990    5.1350 os        1 PU7     -0.328900
      8 C8          1.9520   -0.2280    6.2070 c3        1 PU7      0.113700
      9 C2          3.3140   -0.1620    2.8300 ca        1 PU7     -0.127000
     10 C1          2.9250    0.0480    1.5100 ca        1 PU7     -0.075300
     11 C9          3.9220   -0.0470    0.4070 c3        1 PU7     -0.038400
     12 C10         4.1620   -1.4650   -0.0160 cc        1 PU7      0.412800
     13 N1          3.4140   -2.1180   -0.9320 nd        1 PU7     -0.538100
     14 C11         3.9900   -3.3870   -1.0530 ca        1 PU7     -0.227200
     15 C13         3.6640   -4.5310   -1.8570 ca        1 PU7      0.755200
     16 N5          2.5600   -4.5090   -2.6730 nv        1 PU7     -0.957500
     17 C12         5.1410   -3.4980   -0.1690 ca        1 PU7      0.451800
     18 N4          5.9200   -4.6210   -0.0770 nb        1 PU7     -0.733000
     19 C14         5.5020   -5.6110   -0.8970 ca        1 PU7      0.680900
     20 N3          4.4560   -5.6500   -1.7670 nb        1 PU7     -0.798000
     21 N2          5.2420   -2.2570    0.4770 na        1 PU7     -0.256000
     22 C15         6.2000   -1.9410    1.4970 c3        1 PU7      0.049300
     23 C16         5.9930   -2.6750    2.8240 c3        1 PU7     -0.108400
     24 C17         6.9940   -2.1750    3.8440 c3        1 PU7     -0.077400
     25 C18         6.8570   -2.9140    5.1500 c3        1 PU7     -0.093100
     26 H191       -0.5970   -0.3010   -0.0760 h1        1 PU7      0.043700
     27 H192       -0.1000    0.7000   -1.5370 h1        1 PU7      0.043700
     28 H193       -0.6210    1.5320    0.0170 h1        1 PU7      0.043700
     29 H4          0.2930    0.3120    4.4030 ha        1 PU7      0.139000
     30 H8C1        1.5100    0.7960    6.2790 h1        1 PU7      0.044033
     31 H8C2        1.1480   -0.9940    6.0840 h1        1 PU7      0.044033
     32 H8C3        2.5760   -0.4520    7.1090 h1        1 PU7      0.044033
     33 H2          4.3590   -0.4080    3.0740 ha        1 PU7      0.150000
     34 H9C1        3.5480    0.5260   -0.4890 hc        1 PU7      0.080700
     35 H9C2        4.8880    0.4310    0.7270 hc        1 PU7      0.080700
     36 H5N1        2.0950   -3.6460   -2.8070 hn        1 PU7      0.443300
     37 H5N2        2.3970   -5.2500   -3.3090 hn        1 PU7      0.443300
     38 H14         6.1050   -6.5440   -0.8600 h5        1 PU7      0.049100
     39 H151        6.1660   -0.8290    1.6820 h1        1 PU7      0.061700
     40 H152        7.2240   -2.2020    1.1000 h1        1 PU7      0.061700
     41 H161        6.1250   -3.7790    2.6690 hc        1 PU7      0.064200
     42 H162        4.9510   -2.5120    3.2060 hc        1 PU7      0.064200
     43 H171        6.8380   -1.0770    4.0150 hc        1 PU7      0.038700
     44 H172        8.0350   -2.3050    3.4450 hc        1 PU7      0.038700
     45 H181        7.6000   -2.5310    5.8900 hc        1 PU7      0.036367
     46 H182        5.8330   -2.7780    5.5730 hc        1 PU7      0.036367
     47 H183        7.0340   -4.0070    5.0040 hc        1 PU7      0.036367
     48 H5         -0.4070    0.7190    2.0690 ha        1 PU7      0.140000
@<TRIPOS>BOND
     1    1    3 1   
     2    1   26 1   
     3    1   27 1   
     4    1   28 1   
     5    2    4 ar  
     6    2    5 ar  
     7    2   48 1   
     8    3    4 1   
     9    4   10 ar  
    10    5    6 ar  
    11    5   29 1   
    12    6    7 1   
    13    6    9 ar  
    14    7    8 1   
    15    8   30 1   
    16    8   31 1   
    17    8   32 1   
    18    9   10 ar  
    19    9   33 1   
    20   10   11 1   
    21   11   12 1   
    22   11   34 1   
    23   11   35 1   
    24   12   13 2   
    25   12   21 1   
    26   13   14 1   
    27   14   15 ar  
    28   14   17 ar  
    29   15   16 1   
    30   15   20 ar  
    31   16   36 1   
    32   16   37 1   
    33   17   18 ar  
    34   17   21 1   
    35   18   19 ar  
    36   19   20 ar  
    37   19   38 1   
    38   21   22 1   
    39   22   23 1   
    40   22   39 1   
    41   22   40 1   
    42   23   24 1   
    43   23   41 1   
    44   23   42 1   
    45   24   25 1   
    46   24   43 1   
    47   24   44 1   
    48   25   45 1   
    49   25   46 1   
    50   25   47 1   
@<TRIPOS>SUBSTRUCTURE
     1 PU7         1 TEMP              0 ****  ****    0 ROOT
