@<TRIPOS>MOLECULE
PU7
   48    50     1     0     0
SMALL
bcc


@<TRIPOS>ATOM
      1 C19        -4.6920   -0.4190   -1.0740 c3        1 PU7      0.116700
      2 C5         -2.6860    0.3310   -2.8870 ca        1 PU7     -0.167000
      3 O20        -3.4180   -1.0470   -0.9990 os        1 PU7     -0.323900
      4 C6         -2.4260   -0.5020   -1.7950 ca        1 PU7      0.109100
      5 C4         -1.6370    0.7900   -3.6830 ca        1 PU7     -0.164000
      6 C3         -0.3290    0.4020   -3.3820 ca        1 PU7      0.094100
      7 O2          0.7900    0.7810   -4.1040 os        1 PU7     -0.328900
      8 C8          0.5550    1.6390   -5.2130 c3        1 PU7      0.113700
      9 C2         -0.0610   -0.4320   -2.2820 ca        1 PU7     -0.127000
     10 C1         -1.1020   -0.8800   -1.4730 ca        1 PU7     -0.075300
     11 C9         -0.8220   -1.7700   -0.3100 c3        1 PU7     -0.038400
     12 C10        -0.3840   -0.9970    0.8970 cc        1 PU7      0.412800
     13 N1         -1.2320   -0.4550    1.7980 nd        1 PU7     -0.538100
     14 C11        -0.4220    0.1410    2.7690 ca        1 PU7     -0.227200
     15 C13        -0.7170    0.8660    3.9730 ca        1 PU7      0.755200
     16 N5         -2.0190    1.1310    4.3170 nh        1 PU7     -0.957500
     17 C12         0.9820   -0.0570    2.4360 ca        1 PU7      0.451800
     18 N4          2.0160    0.4020    3.2080 nb        1 PU7     -0.733000
     19 C14         1.5890    1.0550    4.3110 ca        1 PU7      0.680900
     20 N3          0.3260    1.3140    4.7480 nb        1 PU7     -0.798000
     21 N2          0.9860   -0.7950    1.2440 na        1 PU7     -0.256000
     22 C15         2.1640   -1.1560    0.5080 c3        1 PU7      0.049300
     23 C16         2.8950    0.0150   -0.1520 c3        1 PU7     -0.108400
     24 C17         4.0490   -0.5080   -0.9810 c3        1 PU7     -0.077400
     25 C18         4.8270    0.6210   -1.6060 c3        1 PU7     -0.093100
     26 H191       -5.2650   -0.8920   -0.2370 h1        1 PU7      0.043700
     27 H192       -4.6070    0.6840   -0.9210 h1        1 PU7      0.043700
     28 H193       -5.1770   -0.6430   -2.0560 h1        1 PU7      0.043700
     29 H4         -1.8540    1.4470   -4.5360 ha        1 PU7      0.139000
     30 H8C1        1.5800    1.8130   -5.6290 h1        1 PU7      0.043700
     31 H8C2       -0.0970    1.1380   -5.9690 h1        1 PU7      0.043700
     32 H8C3        0.0980    2.6020   -4.8790 h1        1 PU7      0.043700
     33 H2          0.9800   -0.7200   -2.0680 ha        1 PU7      0.150000
     34 H9C1       -0.0410   -2.5270   -0.5910 hc        1 PU7      0.080700
     35 H9C2       -1.7560   -2.3400   -0.0390 hc        1 PU7      0.080700
     36 H5N1       -2.2290    1.5300    5.1980 hn        1 PU7      0.443300
     37 H5N2       -2.7380    0.6820    3.8060 hn        1 PU7      0.443300
     38 H14         2.3930    1.4450    4.9730 h5        1 PU7      0.049100
     39 H151        1.8710   -1.9030   -0.2840 h1        1 PU7      0.061700
     40 H152        2.8750   -1.6620    1.2260 h1        1 PU7      0.061700
     41 H161        3.2780    0.7140    0.6360 hc        1 PU7      0.064200
     42 H162        2.1940    0.5980   -0.8060 hc        1 PU7      0.064200
     43 H171        3.6560   -1.1850   -1.7870 hc        1 PU7      0.038700
     44 H172        4.7300   -1.1220   -0.3340 hc        1 PU7      0.038700
     45 H181        5.6720    0.2180   -2.2150 hc        1 PU7      0.036367
     46 H182        4.1700    1.2300   -2.2720 hc        1 PU7      0.036367
     47 H183        5.2480    1.2930   -0.8190 hc        1 PU7      0.036367
     48 H5         -3.7150    0.6320   -3.1300 ha        1 PU7      0.140000
@<TRIPOS>BOND
     1    1    3 1   
     2    1   26 1   
     3    1   27 1   
     4    1   28 1   
     5    2    4 ar  
     6    2    5 ar  
     7    2   48 1   
     8    3    4 1   
     9    4   10 ar  
    10    5    6 ar  
    11    5   29 1   
    12    6    7 1   
    13    6    9 ar  
    14    7    8 1   
    15    8   30 1   
    16    8   31 1   
    17    8   32 1   
    18    9   10 ar  
    19    9   33 1   
    20   10   11 1   
    21   11   12 1   
    22   11   34 1   
    23   11   35 1   
    24   12   13 2   
    25   12   21 1   
    26   13   14 1   
    27   14   15 ar  
    28   14   17 ar  
    29   15   16 1   
    30   15   20 ar  
    31   16   36 1   
    32   16   37 1   
    33   17   18 ar  
    34   17   21 1   
    35   18   19 ar  
    36   19   20 ar  
    37   19   38 1   
    38   21   22 1   
    39   22   23 1   
    40   22   39 1   
    41   22   40 1   
    42   23   24 1   
    43   23   41 1   
    44   23   42 1   
    45   24   25 1   
    46   24   43 1   
    47   24   44 1   
    48   25   45 1   
    49   25   46 1   
    50   25   47 1   
@<TRIPOS>SUBSTRUCTURE
     1 PU7         1 TEMP              0 ****  ****    0 ROOT
