@<TRIPOS>MOLECULE
PU8
   53    55     1     0     0
SMALL
bcc


@<TRIPOS>ATOM
      1 C19         0.1000   -0.2670   -0.3700 c3        1 PU8      0.114700
      2 O3          1.4430    0.1350   -0.0750 os        1 PU8     -0.329900
      3 C5          1.7550    0.1420    1.2710 ca        1 PU8      0.127100
      4 C6          2.0110    1.3730    1.9120 ca        1 PU8     -0.001600
      5 C4          1.9150   -1.0680    1.9690 ca        1 PU8      0.082100
      6 O1          1.5090   -2.2340    1.3550 os        1 PU8     -0.321900
      7 C7          2.5490   -3.1920    1.1380 c3        1 PU8      0.115700
      8 C3          2.3600   -1.0380    3.3130 ca        1 PU8      0.120100
      9 O2          2.5170   -2.2650    3.9180 os        1 PU8     -0.310900
     10 C8          2.7510   -2.2550    5.3240 c3        1 PU8      0.105700
     11 C2          2.6450    0.1830    3.9280 ca        1 PU8     -0.196000
     12 C1          2.4750    1.3870    3.2340 ca        1 PU8     -0.079300
     13 C9          2.7600    2.6650    3.9500 c3        1 PU8     -0.057400
     14 C10         4.1140    3.1990    3.5750 cc        1 PU8      0.517800
     15 N1          4.3300    4.0260    2.5170 nd        1 PU8     -0.585100
     16 C11         5.7000    4.2600    2.5070 ca        1 PU8     -0.126200
     17 C13         6.5630    4.9970    1.6770 ca        1 PU8      0.508200
     18 N5          5.9800    5.7150    0.5280 n4        1 PU8     -0.813300
     19 C12         6.3490    3.5450    3.6300 ca        1 PU8      0.448800
     20 N4          7.6830    3.6020    3.8660 nb        1 PU8     -0.617000
     21 C14         8.3710    4.3650    2.9760 ca        1 PU8      0.663900
     22 N3          7.8990    5.0600    1.9010 nb        1 PU8     -0.678000
     23 N2          5.3010    2.8930    4.2940 na        1 PU8     -0.237000
     24 C15         5.4690    2.0240    5.4340 c3        1 PU8      0.034300
     25 C16         5.9810    0.6230    5.0970 c3        1 PU8     -0.108400
     26 C17         6.0950   -0.1910    6.3700 c3        1 PU8     -0.079400
     27 C18         6.6620   -1.5580    6.0890 c3        1 PU8     -0.098100
     28 CL          1.7490    2.8300    1.0770 cl        1 PU8     -0.068400
     29 H191       -0.0960   -1.2950    0.0210 h1        1 PU8      0.056033
     30 H192        0.0700   -0.2480   -1.4880 h1        1 PU8      0.056033
     31 H193       -0.6210    0.4670    0.0620 h1        1 PU8      0.056033
     32 H7C1        2.9820   -3.5280    2.1110 h1        1 PU8      0.053033
     33 H7C2        3.3390   -2.7610    0.4780 h1        1 PU8      0.053033
     34 H7C3        2.0150   -4.0330    0.6270 h1        1 PU8      0.053033
     35 H8C1        2.7270   -3.3430    5.5930 h1        1 PU8      0.052700
     36 H8C2        3.7560   -1.8150    5.5480 h1        1 PU8      0.052700
     37 H8C3        1.9460   -1.6970    5.8590 h1        1 PU8      0.052700
     38 H2          2.9900    0.2070    4.9730 ha        1 PU8      0.142000
     39 H9C1        2.7000    2.5140    5.0620 hc        1 PU8      0.098200
     40 H9C2        1.9840    3.4390    3.6810 hc        1 PU8      0.098200
     41 H5N1        5.4480    5.0410   -0.0380 hn        1 PU8      0.477133
     42 H5N2        5.3390    6.4350    0.8850 hn        1 PU8      0.477133
     43 H14         9.4720    4.4330    3.1390 h5        1 PU8      0.097100
     44 H151        4.4720    1.9420    5.9550 h1        1 PU8      0.081700
     45 H152        6.1980    2.5240    6.1370 h1        1 PU8      0.081700
     46 H161        5.2800    0.1130    4.3850 hc        1 PU8      0.064200
     47 H162        6.9840    0.6890    4.6000 hc        1 PU8      0.064200
     48 H171        5.0810   -0.2920    6.8420 hc        1 PU8      0.045200
     49 H172        6.7520    0.3450    7.1050 hc        1 PU8      0.045200
     50 H181        6.0160   -2.1160    5.3690 hc        1 PU8      0.044700
     51 H182        6.7280   -2.1480    7.0360 hc        1 PU8      0.044700
     52 H183        7.6870   -1.4790    5.6530 hc        1 PU8      0.044700
     53 H53         6.7100    6.1550   -0.0470 hn        1 PU8      0.477133
@<TRIPOS>BOND
     1    1    2 1   
     2    1   29 1   
     3    1   30 1   
     4    1   31 1   
     5    2    3 1   
     6    3    4 ar  
     7    3    5 ar  
     8    4   12 ar  
     9    4   28 1   
    10    5    6 1   
    11    5    8 ar  
    12    6    7 1   
    13    7   32 1   
    14    7   33 1   
    15    7   34 1   
    16    8    9 1   
    17    8   11 ar  
    18    9   10 1   
    19   10   35 1   
    20   10   36 1   
    21   10   37 1   
    22   11   12 ar  
    23   11   38 1   
    24   12   13 1   
    25   13   14 1   
    26   13   39 1   
    27   13   40 1   
    28   14   15 2   
    29   14   23 1   
    30   15   16 1   
    31   16   17 ar  
    32   16   19 ar  
    33   17   18 1   
    34   17   22 ar  
    35   18   41 1   
    36   18   42 1   
    37   18   53 1   
    38   19   20 ar  
    39   19   23 1   
    40   20   21 ar  
    41   21   22 ar  
    42   21   43 1   
    43   23   24 1   
    44   24   25 1   
    45   24   44 1   
    46   24   45 1   
    47   25   26 1   
    48   25   46 1   
    49   25   47 1   
    50   26   27 1   
    51   26   48 1   
    52   26   49 1   
    53   27   50 1   
    54   27   51 1   
    55   27   52 1   
@<TRIPOS>SUBSTRUCTURE
     1 PU8         1 TEMP              0 ****  ****    0 ROOT
