@<TRIPOS>MOLECULE
PU8
   52    54     1     0     0
SMALL
bcc


@<TRIPOS>ATOM
      1 C19        -0.0480   -0.2960   -0.3090 c3        1 PU8      0.115700
      2 O3          1.3190    0.0590   -0.0850 os        1 PU8     -0.325900
      3 C5          1.6760    0.1010    1.2530 ca        1 PU8      0.120100
      4 C6          1.9530    1.3430    1.8610 ca        1 PU8     -0.000600
      5 C4          1.8500   -1.0960    1.9670 ca        1 PU8      0.061100
      6 O1          1.4330   -2.2820    1.3900 os        1 PU8     -0.327900
      7 C7          2.4990   -3.1820    1.0760 c3        1 PU8      0.116700
      8 C3          2.3370   -1.0460    3.2930 ca        1 PU8      0.113100
      9 O2          2.5090   -2.2680    3.9110 os        1 PU8     -0.316900
     10 C8          2.8900   -2.2300    5.2830 c3        1 PU8      0.106700
     11 C2          2.6320    0.1850    3.8810 ca        1 PU8     -0.197000
     12 C1          2.4430    1.3790    3.1750 ca        1 PU8     -0.047300
     13 C9          2.7390    2.6680    3.8680 c3        1 PU8     -0.044400
     14 C10         4.1010    3.1910    3.5290 cc        1 PU8      0.404800
     15 N1          4.3610    4.0190    2.4940 nd        1 PU8     -0.529100
     16 C11         5.7340    4.2700    2.5480 ca        1 PU8     -0.227200
     17 C13         6.6130    5.0640    1.7340 ca        1 PU8      0.759200
     18 N5          6.1100    5.7950    0.6870 nh        1 PU8     -0.953500
     19 C12         6.3270    3.5610    3.6730 ca        1 PU8      0.453800
     20 N4          7.6590    3.6120    3.9860 nb        1 PU8     -0.737000
     21 C14         8.3620    4.3910    3.1320 ca        1 PU8      0.684900
     22 N3          7.9500    5.1020    2.0470 nb        1 PU8     -0.797000
     23 N2          5.2650    2.8920    4.2990 na        1 PU8     -0.255000
     24 C15         5.4010    2.0130    5.4230 c3        1 PU8      0.051300
     25 C16         5.9750    0.6330    5.0960 c3        1 PU8     -0.109400
     26 C17         6.0980   -0.1840    6.3650 c3        1 PU8     -0.079400
     27 C18         6.7350   -1.5220    6.0930 c3        1 PU8     -0.095100
     28 CL          1.6960    2.7800    0.9980 cl        1 PU8     -0.052400
     29 H191       -0.1290   -0.3150   -1.4250 h1        1 PU8      0.048033
     30 H192       -0.7230    0.4810    0.1250 h1        1 PU8      0.048033
     31 H193       -0.2680   -1.3000    0.1280 h1        1 PU8      0.048033
     32 H7C1        3.0490   -3.4710    2.0040 h1        1 PU8      0.046700
     33 H7C2        3.1920   -2.7160    0.3350 h1        1 PU8      0.046700
     34 H7C3        1.9720   -4.0630    0.6320 h1        1 PU8      0.046700
     35 H8C1        3.9040   -1.7720    5.3980 h1        1 PU8      0.048367
     36 H8C2        2.1350   -1.6730    5.8890 h1        1 PU8      0.048367
     37 H8C3        2.9100   -3.3120    5.5730 h1        1 PU8      0.048367
     38 H2          3.0160    0.2300    4.9120 ha        1 PU8      0.142000
     39 H9C1        1.9770    3.4430    3.5700 hc        1 PU8      0.079200
     40 H9C2        2.6470    2.5340    4.9800 hc        1 PU8      0.079200
     41 H5N1        6.7240    6.2570    0.0640 hn        1 PU8      0.445300
     42 H5N2        5.1720    5.6360    0.4130 hn        1 PU8      0.445300
     43 H14         9.4510    4.4620    3.3420 h5        1 PU8      0.050100
     44 H151        4.3860    1.8870    5.8980 h1        1 PU8      0.061700
     45 H152        6.0810    2.5170    6.1710 h1        1 PU8      0.061700
     46 H161        5.3100    0.1000    4.3650 hc        1 PU8      0.062700
     47 H162        6.9830    0.7450    4.6180 hc        1 PU8      0.062700
     48 H171        6.7130    0.3780    7.1170 hc        1 PU8      0.038200
     49 H172        5.0800   -0.3330    6.8150 hc        1 PU8      0.038200
     50 H181        6.8010   -2.1180    7.0360 hc        1 PU8      0.037033
     51 H182        6.1360   -2.1030    5.3490 hc        1 PU8      0.037033
     52 H183        7.7660   -1.3910    5.6850 hc        1 PU8      0.037033
@<TRIPOS>BOND
     1    1    2 1   
     2    1   29 1   
     3    1   30 1   
     4    1   31 1   
     5    2    3 1   
     6    3    4 ar  
     7    3    5 ar  
     8    4   12 ar  
     9    4   28 1   
    10    5    6 1   
    11    5    8 ar  
    12    6    7 1   
    13    7   32 1   
    14    7   33 1   
    15    7   34 1   
    16    8    9 1   
    17    8   11 ar  
    18    9   10 1   
    19   10   35 1   
    20   10   36 1   
    21   10   37 1   
    22   11   12 ar  
    23   11   38 1   
    24   12   13 1   
    25   13   14 1   
    26   13   39 1   
    27   13   40 1   
    28   14   15 2   
    29   14   23 1   
    30   15   16 1   
    31   16   17 ar  
    32   16   19 ar  
    33   17   18 1   
    34   17   22 ar  
    35   18   41 1   
    36   18   42 1   
    37   19   20 ar  
    38   19   23 1   
    39   20   21 ar  
    40   21   22 ar  
    41   21   43 1   
    42   23   24 1   
    43   24   25 1   
    44   24   44 1   
    45   24   45 1   
    46   25   26 1   
    47   25   46 1   
    48   25   47 1   
    49   26   27 1   
    50   26   48 1   
    51   26   49 1   
    52   27   50 1   
    53   27   51 1   
    54   27   52 1   
@<TRIPOS>SUBSTRUCTURE
     1 PU8         1 TEMP              0 ****  ****    0 ROOT
