@<TRIPOS>MOLECULE
PU8
   52    54     1     0     0
SMALL
bcc


@<TRIPOS>ATOM
      1 C19         3.2510   -0.1290   -4.2370 c3        1 PU8      0.115700
      2 O3          2.7100   -0.6950   -3.0400 os        1 PU8     -0.325900
      3 C5          1.5450   -0.0830   -2.6060 ca        1 PU8      0.120100
      4 C6          1.5630    0.6970   -1.4310 ca        1 PU8     -0.000600
      5 C4          0.3380   -0.3200   -3.2850 ca        1 PU8      0.061100
      6 O1          0.3780   -0.9650   -4.5080 os        1 PU8     -0.327900
      7 C7         -0.2320   -2.2590   -4.5020 c3        1 PU8      0.116700
      8 C3         -0.8650    0.2050   -2.7610 ca        1 PU8      0.113100
      9 O2         -2.0080   -0.1000   -3.4710 os        1 PU8     -0.316900
     10 C8         -3.2110    0.5150   -3.0220 c3        1 PU8      0.106700
     11 C2         -0.8430    0.9560   -1.5850 ca        1 PU8     -0.197000
     12 C1          0.3620    1.2050   -0.9170 ca        1 PU8     -0.047300
     13 C9          0.3300    2.0480    0.3160 c3        1 PU8     -0.044400
     14 C10         0.3150    1.2200    1.5640 cc        1 PU8      0.404800
     15 N1          1.4230    0.8140    2.2190 nd        1 PU8     -0.529100
     16 C11         0.9640    0.0910    3.3240 ca        1 PU8     -0.227200
     17 C13         1.6420   -0.5900    4.3930 ca        1 PU8      0.759200
     18 N5          3.0110   -0.5640    4.4680 nh        1 PU8     -0.953500
     19 C12        -0.4910    0.0650    3.3330 ca        1 PU8      0.453800
     20 N4         -1.2330   -0.5670    4.2950 nb        1 PU8     -0.737000
     21 C14        -0.4630   -1.1690    5.2300 ca        1 PU8      0.684900
     22 N3          0.8910   -1.2330    5.3470 nb        1 PU8     -0.797000
     23 N2         -0.8890    0.8070    2.2120 na        1 PU8     -0.255000
     24 C15        -2.2470    0.9930    1.7930 c3        1 PU8      0.051300
     25 C16        -2.8830   -0.2230    1.1150 c3        1 PU8     -0.109400
     26 C17        -4.3200    0.0870    0.7530 c3        1 PU8     -0.079400
     27 C18        -5.0030   -1.1140    0.1520 c3        1 PU8     -0.095100
     28 CL          3.0360    1.0070   -0.6480 cl        1 PU8     -0.052400
     29 H191        4.1450   -0.7700   -4.4430 h1        1 PU8      0.048033
     30 H192        2.5090   -0.1950   -5.0690 h1        1 PU8      0.048033
     31 H193        3.5540    0.9300   -4.0590 h1        1 PU8      0.048033
     32 H7C1       -0.1050   -2.6090   -5.5570 h1        1 PU8      0.046700
     33 H7C2        0.3000   -2.9340   -3.7900 h1        1 PU8      0.046700
     34 H7C3       -1.3140   -2.1760   -4.2360 h1        1 PU8      0.046700
     35 H8C1       -3.9700    0.1720   -3.7700 h1        1 PU8      0.048367
     36 H8C2       -3.4770    0.1560   -1.9960 h1        1 PU8      0.048367
     37 H8C3       -3.1170    1.6280   -3.0370 h1        1 PU8      0.048367
     38 H2         -1.7780    1.3640   -1.1690 ha        1 PU8      0.142000
     39 H9C1       -0.5690    2.7230    0.2940 hc        1 PU8      0.079200
     40 H9C2        1.2370    2.7160    0.3430 hc        1 PU8      0.079200
     41 H5N1        3.4830   -1.1170    5.1400 hn        1 PU8      0.445300
     42 H5N2        3.5170   -0.2090    3.6940 hn        1 PU8      0.445300
     43 H14        -1.0200   -1.7010    6.0320 h5        1 PU8      0.050100
     44 H151       -2.8550    1.2530    2.7090 h1        1 PU8      0.061700
     45 H152       -2.2820    1.8700    1.0850 h1        1 PU8      0.061700
     46 H161       -2.8480   -1.1050    1.8070 hc        1 PU8      0.062700
     47 H162       -2.3090   -0.4940    0.1900 hc        1 PU8      0.062700
     48 H171       -4.3480    0.9420    0.0250 hc        1 PU8      0.038200
     49 H172       -4.8780    0.4160    1.6700 hc        1 PU8      0.038200
     50 H181       -6.0560   -0.8630   -0.1240 hc        1 PU8      0.037033
     51 H182       -4.4680   -1.4570   -0.7660 hc        1 PU8      0.037033
     52 H183       -5.0220   -1.9600    0.8810 hc        1 PU8      0.037033
@<TRIPOS>BOND
     1    1    2 1   
     2    1   29 1   
     3    1   30 1   
     4    1   31 1   
     5    2    3 1   
     6    3    4 ar  
     7    3    5 ar  
     8    4   12 ar  
     9    4   28 1   
    10    5    6 1   
    11    5    8 ar  
    12    6    7 1   
    13    7   32 1   
    14    7   33 1   
    15    7   34 1   
    16    8    9 1   
    17    8   11 ar  
    18    9   10 1   
    19   10   35 1   
    20   10   36 1   
    21   10   37 1   
    22   11   12 ar  
    23   11   38 1   
    24   12   13 1   
    25   13   14 1   
    26   13   39 1   
    27   13   40 1   
    28   14   15 2   
    29   14   23 1   
    30   15   16 1   
    31   16   17 ar  
    32   16   19 ar  
    33   17   18 1   
    34   17   22 ar  
    35   18   41 1   
    36   18   42 1   
    37   19   20 ar  
    38   19   23 1   
    39   20   21 ar  
    40   21   22 ar  
    41   21   43 1   
    42   23   24 1   
    43   24   25 1   
    44   24   44 1   
    45   24   45 1   
    46   25   26 1   
    47   25   46 1   
    48   25   47 1   
    49   26   27 1   
    50   26   48 1   
    51   26   49 1   
    52   27   50 1   
    53   27   51 1   
    54   27   52 1   
@<TRIPOS>SUBSTRUCTURE
     1 PU8         1 TEMP              0 ****  ****    0 ROOT
