@<TRIPOS>MOLECULE
PU8
   52    54     1     0     0
SMALL
bcc


@<TRIPOS>ATOM
      1 C19        -0.0460   -0.2900   -0.3100 c3        1 PU8      0.115700
      2 O3          1.3220    0.0610   -0.0840 os        1 PU8     -0.325900
      3 C5          1.6770    0.1040    1.2540 ca        1 PU8      0.120100
      4 C6          1.9560    1.3460    1.8610 ca        1 PU8     -0.000600
      5 C4          1.8470   -1.0930    1.9690 ca        1 PU8      0.061100
      6 O1          1.4280   -2.2780    1.3930 os        1 PU8     -0.327900
      7 C7          2.4920   -3.1810    1.0810 c3        1 PU8      0.116700
      8 C3          2.3330   -1.0420    3.2960 ca        1 PU8      0.113100
      9 O2          2.5000   -2.2640    3.9160 os        1 PU8     -0.316900
     10 C8          2.8790   -2.2260    5.2880 c3        1 PU8      0.106700
     11 C2          2.6300    0.1880    3.8840 ca        1 PU8     -0.197000
     12 C1          2.4450    1.3820    3.1750 ca        1 PU8     -0.047300
     13 C9          2.7430    2.6720    3.8680 c3        1 PU8     -0.044400
     14 C10         4.1060    3.1920    3.5280 cc        1 PU8      0.404800
     15 N1          4.3670    4.0200    2.4940 nd        1 PU8     -0.529100
     16 C11         5.7410    4.2690    2.5480 ca        1 PU8     -0.227200
     17 C13         6.6200    5.0620    1.7340 ca        1 PU8      0.759200
     18 N5          6.1190    5.7940    0.6880 nv        1 PU8     -0.953500
     19 C12         6.3330    3.5570    3.6720 ca        1 PU8      0.453800
     20 N4          7.6650    3.6060    3.9840 nb        1 PU8     -0.737000
     21 C14         8.3690    4.3830    3.1310 ca        1 PU8      0.684900
     22 N3          7.9580    5.0960    2.0470 nb        1 PU8     -0.797000
     23 N2          5.2700    2.8890    4.2970 na        1 PU8     -0.255000
     24 C15         5.4040    2.0100    5.4210 c3        1 PU8      0.051300
     25 C16         5.9740    0.6280    5.0920 c3        1 PU8     -0.109400
     26 C17         6.0980   -0.1890    6.3610 c3        1 PU8     -0.079400
     27 C18         6.7290   -1.5300    6.0870 c3        1 PU8     -0.095100
     28 Cl          1.7040    2.7830    0.9960 cl        1 PU8     -0.052400
     29 H191       -0.1260   -0.3100   -1.4260 h1        1 PU8      0.048033
     30 H192       -0.2690   -1.2930    0.1280 h1        1 PU8      0.048033
     31 H193       -0.7190    0.4890    0.1220 h1        1 PU8      0.048033
     32 H7C1        3.0400   -3.4710    2.0100 h1        1 PU8      0.046700
     33 H7C2        3.1870   -2.7180    0.3410 h1        1 PU8      0.046700
     34 H7C3        1.9630   -4.0610    0.6370 h1        1 PU8      0.046700
     35 H8C1        2.8950   -3.3070    5.5800 h1        1 PU8      0.048367
     36 H8C2        3.8940   -1.7700    5.4040 h1        1 PU8      0.048367
     37 H8C3        2.1240   -1.6660    5.8920 h1        1 PU8      0.048367
     38 H2          3.0120    0.2330    4.9150 ha        1 PU8      0.142000
     39 H9C1        1.9820    3.4470    3.5690 hc        1 PU8      0.079200
     40 H9C2        2.6500    2.5380    4.9800 hc        1 PU8      0.079200
     41 H5N1        5.1800    5.6380    0.4140 hn        1 PU8      0.445300
     42 H5N2        6.7330    6.2560    0.0650 hn        1 PU8      0.445300
     43 H14         9.4590    4.4520    3.3400 h5        1 PU8      0.050100
     44 H151        4.3890    1.8860    5.8970 h1        1 PU8      0.061700
     45 H152        6.0860    2.5110    6.1690 h1        1 PU8      0.061700
     46 H161        6.9810    0.7380    4.6110 hc        1 PU8      0.062700
     47 H162        5.3060    0.0970    4.3630 hc        1 PU8      0.062700
     48 H171        5.0810   -0.3350    6.8140 hc        1 PU8      0.038200
     49 H172        6.7180    0.3700    7.1110 hc        1 PU8      0.038200
     50 H181        7.7590   -1.4030    5.6750 hc        1 PU8      0.037033
     51 H182        6.7960   -2.1260    7.0290 hc        1 PU8      0.037033
     52 H183        6.1250   -2.1080    5.3450 hc        1 PU8      0.037033
@<TRIPOS>BOND
     1    1    2 1   
     2    1   29 1   
     3    1   30 1   
     4    1   31 1   
     5    2    3 1   
     6    3    4 ar  
     7    3    5 ar  
     8    4   12 ar  
     9    4   28 1   
    10    5    6 1   
    11    5    8 ar  
    12    6    7 1   
    13    7   32 1   
    14    7   33 1   
    15    7   34 1   
    16    8    9 1   
    17    8   11 ar  
    18    9   10 1   
    19   10   35 1   
    20   10   36 1   
    21   10   37 1   
    22   11   12 ar  
    23   11   38 1   
    24   12   13 1   
    25   13   14 1   
    26   13   39 1   
    27   13   40 1   
    28   14   15 2   
    29   14   23 1   
    30   15   16 1   
    31   16   17 ar  
    32   16   19 ar  
    33   17   18 1   
    34   17   22 ar  
    35   18   41 1   
    36   18   42 1   
    37   19   20 ar  
    38   19   23 1   
    39   20   21 ar  
    40   21   22 ar  
    41   21   43 1   
    42   23   24 1   
    43   24   25 1   
    44   24   44 1   
    45   24   45 1   
    46   25   26 1   
    47   25   46 1   
    48   25   47 1   
    49   26   27 1   
    50   26   48 1   
    51   26   49 1   
    52   27   50 1   
    53   27   51 1   
    54   27   52 1   
@<TRIPOS>SUBSTRUCTURE
     1 PU8         1 TEMP              0 ****  ****    0 ROOT
