@<TRIPOS>MOLECULE
PU9
   51    53     1     0     0
SMALL
bcc


@<TRIPOS>ATOM
      1 CL          1.7320    1.8790   -1.8790 cl        1 PU9     -0.076400
      2 C13         2.3140    0.6440   -0.8620 ca        1 PU9     -0.021600
      3 C15         3.2100    0.9690    0.1770 ca        1 PU9      0.123100
      4 O3          3.5120    2.2970    0.4290 os        1 PU9     -0.326900
      5 C20         4.8560    2.6600    0.1010 c3        1 PU9      0.115700
      6 C17         3.7200   -0.0360    1.0160 ca        1 PU9      0.058100
      7 O2          4.7030    0.2970    1.9290 os        1 PU9     -0.327900
      8 C19         4.2950    0.1770    3.2950 c3        1 PU9      0.116700
      9 C16         3.2970   -1.3730    0.8290 ca        1 PU9      0.120100
     10 O1          3.8170   -2.2940    1.7130 os        1 PU9     -0.318900
     11 C18         3.4960   -3.6590    1.4620 c3        1 PU9      0.109700
     12 C14         2.3890   -1.6820   -0.1850 ca        1 PU9     -0.188000
     13 C12         1.9000   -0.6840   -1.0360 ca        1 PU9     -0.048300
     14 C6          0.9090   -1.0740   -2.0830 c3        1 PU9     -0.053400
     15 C5          1.3880   -2.2240   -2.9140 cc        1 PU9      0.403800
     16 N3          0.9490   -3.4970   -2.8090 nd        1 PU9     -0.551100
     17 C2          1.6530   -4.2150   -3.7800 ca        1 PU9     -0.228200
     18 C3          1.6430   -5.5980   -4.1680 ca        1 PU9      0.751200
     19 N5          0.8610   -6.5010   -3.4870 nh        1 PU9     -0.950500
     20 C1          2.5580   -3.3280   -4.5010 ca        1 PU9      0.455800
     21 N1          3.3790   -3.7420   -5.5150 nb        1 PU9     -0.730000
     22 C4          3.2550   -5.0630   -5.7760 ca        1 PU9      0.683900
     23 N2          2.4590   -6.0030   -5.1960 nb        1 PU9     -0.793000
     24 N4          2.3880   -2.0660   -3.9170 na        1 PU9     -0.247000
     25 C7          2.9990   -0.8430   -4.3500 c3        1 PU9      0.039300
     26 C8          2.2560   -0.1230   -5.4790 c3        1 PU9     -0.098400
     27 C9          2.9960    1.1590   -5.8240 c3        1 PU9     -0.000300
     28 C10         2.3370    1.8940   -6.8620 c1        1 PU9     -0.143100
     29 C11         1.7980    2.5190   -7.7290 c1        1 PU9     -0.150500
     30 H201        5.5820    2.0350    0.6740 h1        1 PU9      0.048367
     31 H202        4.9150    3.7330    0.4110 h1        1 PU9      0.048367
     32 H203        5.0250    2.5550   -0.9980 h1        1 PU9      0.048367
     33 H191        4.0110   -0.8780    3.5250 h1        1 PU9      0.047033
     34 H192        3.4470    0.8700    3.5060 h1        1 PU9      0.047033
     35 H193        5.2100    0.4780    3.8650 h1        1 PU9      0.047033
     36 H181        3.8270   -3.9630    0.4400 h1        1 PU9      0.050700
     37 H182        2.4000   -3.8330    1.5900 h1        1 PU9      0.050700
     38 H183        4.0770   -4.2070    2.2470 h1        1 PU9      0.050700
     39 H14         2.0490   -2.7180   -0.3340 ha        1 PU9      0.162000
     40 H6C1       -0.0510   -1.3690   -1.5710 hc        1 PU9      0.088700
     41 H6C2        0.6720   -0.2120   -2.7650 hc        1 PU9      0.088700
     42 H5N1        0.1620   -6.1420   -2.8830 hn        1 PU9      0.441300
     43 H5N2        0.7560   -7.4210   -3.8390 hn        1 PU9      0.441300
     44 H4          3.8980   -5.4470   -6.5970 h5        1 PU9      0.052100
     45 H7C1        4.0460   -1.0810   -4.6960 h1        1 PU9      0.074200
     46 H7C2        3.0620   -0.1570   -3.4540 h1        1 PU9      0.074200
     47 H8C1        1.2080    0.1180   -5.1630 hc        1 PU9      0.062200
     48 H8C2        2.1970   -0.7830   -6.3830 hc        1 PU9      0.062200
     49 H9C1        3.0770    1.8060   -4.9040 hc        1 PU9      0.062200
     50 H9C2        4.0450    0.9110   -6.1510 hc        1 PU9      0.062200
     51 H11         1.3220    3.0720   -8.4970 ha        1 PU9      0.165500
@<TRIPOS>BOND
     1    1    2 1   
     2    2    3 ar  
     3    2   13 ar  
     4    3    4 1   
     5    3    6 ar  
     6    4    5 1   
     7    5   30 1   
     8    5   31 1   
     9    5   32 1   
    10    6    7 1   
    11    6    9 ar  
    12    7    8 1   
    13    8   33 1   
    14    8   34 1   
    15    8   35 1   
    16    9   10 1   
    17    9   12 ar  
    18   10   11 1   
    19   11   36 1   
    20   11   37 1   
    21   11   38 1   
    22   12   13 ar  
    23   12   39 1   
    24   13   14 1   
    25   14   15 1   
    26   14   40 1   
    27   14   41 1   
    28   15   16 2   
    29   15   24 1   
    30   16   17 1   
    31   17   18 ar  
    32   17   20 ar  
    33   18   19 1   
    34   18   23 ar  
    35   19   42 1   
    36   19   43 1   
    37   20   21 ar  
    38   20   24 1   
    39   21   22 ar  
    40   22   23 ar  
    41   22   44 1   
    42   24   25 1   
    43   25   26 1   
    44   25   45 1   
    45   25   46 1   
    46   26   27 1   
    47   26   47 1   
    48   26   48 1   
    49   27   28 1   
    50   27   49 1   
    51   27   50 1   
    52   28   29 3   
    53   29   51 1   
@<TRIPOS>SUBSTRUCTURE
     1 PU9         1 TEMP              0 ****  ****    0 ROOT
