@<TRIPOS>MOLECULE
PU9
   52    54     1     0     0
SMALL
bcc


@<TRIPOS>ATOM
      1 CL         -0.0290   -0.0020   -0.2510 cl        1 PU9     -0.067400
      2 C13         1.6670   -0.0220   -0.1380 ca        1 PU9     -0.000600
      3 C15         2.2820   -0.0220    1.1320 ca        1 PU9      0.126100
      4 O3          1.5000   -0.1690    2.2610 os        1 PU9     -0.330900
      5 C20         1.4410    0.9940    3.0960 c3        1 PU9      0.114700
      6 C17         3.6830    0.0270    1.2400 ca        1 PU9      0.082100
      7 O2          4.2350    0.1790    2.4950 os        1 PU9     -0.322900
      8 C19         5.0840   -0.8950    2.9130 c3        1 PU9      0.115700
      9 C16         4.4680    0.0510    0.0620 ca        1 PU9      0.121100
     10 O1          5.8320    0.0760    0.2530 os        1 PU9     -0.311900
     11 C18         6.6300    0.3560   -0.8940 c3        1 PU9      0.109700
     12 C14         3.8520    0.0100   -1.1900 ca        1 PU9     -0.193000
     13 C12         2.4560   -0.0320   -1.2950 ca        1 PU9     -0.078300
     14 C6          1.8470   -0.0530   -2.6580 c3        1 PU9     -0.058400
     15 C5          1.4580   -1.4520   -3.0440 cc        1 PU9      0.516800
     16 N3          0.3400   -2.0820   -2.5980 nd        1 PU9     -0.582100
     17 C2          0.3830   -3.3520   -3.1650 ca        1 PU9     -0.127200
     18 C3         -0.4430   -4.4870   -3.0860 ca        1 PU9      0.509200
     19 N5         -1.6470   -4.4150   -2.2370 n4        1 PU9     -0.813300
     20 C1          1.5880   -3.4940   -4.0130 ca        1 PU9      0.451800
     21 N1          1.8820   -4.6320   -4.6880 nb        1 PU9     -0.619000
     22 C4          0.9750   -5.6300   -4.5140 ca        1 PU9      0.665900
     23 N2         -0.1610   -5.6310   -3.7580 nb        1 PU9     -0.678000
     24 N4          2.2540   -2.2670   -3.8960 na        1 PU9     -0.239000
     25 C7          3.4610   -1.8990   -4.5930 c3        1 PU9      0.029300
     26 C8          3.2330   -1.1320   -5.8970 c3        1 PU9     -0.101400
     27 C9          4.5790   -0.8340   -6.5410 c3        1 PU9      0.009700
     28 C10         4.4290   -0.0690   -7.7420 c1        1 PU9     -0.176100
     29 C11         4.3280    0.5680   -8.7490 c1        1 PU9     -0.105500
     30 H201        0.9530    1.8340    2.5460 h1        1 PU9      0.055700
     31 H202        0.8090    0.6570    3.9560 h1        1 PU9      0.055700
     32 H203        2.4640    1.2840    3.4380 h1        1 PU9      0.055700
     33 H191        4.5070   -1.8500    2.9500 h1        1 PU9      0.053033
     34 H192        5.4040   -0.5800    3.9390 h1        1 PU9      0.053033
     35 H193        5.9630   -0.9880    2.2320 h1        1 PU9      0.053033
     36 H181        6.3080    1.3080   -1.3810 h1        1 PU9      0.052033
     37 H182        6.5850   -0.4950   -1.6150 h1        1 PU9      0.052033
     38 H183        7.6610    0.4580   -0.4670 h1        1 PU9      0.052033
     39 H14         4.4630    0.0320   -2.1040 ha        1 PU9      0.140000
     40 H6C1        0.9210    0.5920   -2.6810 hc        1 PU9      0.098200
     41 H6C2        2.5640    0.3690   -3.4140 hc        1 PU9      0.098200
     42 H5N1       -2.2950   -3.7330   -2.6470 hn        1 PU9      0.477467
     43 H5N2       -2.1080   -5.3310   -2.1650 hn        1 PU9      0.477467
     44 H4          1.1840   -6.5800   -5.0580 h5        1 PU9      0.098100
     45 H7C1        4.0350   -2.8460   -4.8160 h1        1 PU9      0.085200
     46 H7C2        4.0790   -1.2680   -3.8890 h1        1 PU9      0.085200
     47 H8C1        2.6880   -0.1740   -5.6960 hc        1 PU9      0.065200
     48 H8C2        2.6070   -1.7380   -6.6020 hc        1 PU9      0.065200
     49 H9C1        5.2280   -0.2660   -5.8160 hc        1 PU9      0.063700
     50 H9C2        5.1070   -1.8010   -6.7760 hc        1 PU9      0.063700
     51 H11         4.2420    1.1330   -9.6440 ha        1 PU9      0.175500
     52 H53        -1.3650   -4.0920   -1.3020 hn        1 PU9      0.477467
@<TRIPOS>BOND
     1    1    2 1   
     2    2    3 ar  
     3    2   13 ar  
     4    3    4 1   
     5    3    6 ar  
     6    4    5 1   
     7    5   30 1   
     8    5   31 1   
     9    5   32 1   
    10    6    7 1   
    11    6    9 ar  
    12    7    8 1   
    13    8   33 1   
    14    8   34 1   
    15    8   35 1   
    16    9   10 1   
    17    9   12 ar  
    18   10   11 1   
    19   11   36 1   
    20   11   37 1   
    21   11   38 1   
    22   12   13 ar  
    23   12   39 1   
    24   13   14 1   
    25   14   15 1   
    26   14   40 1   
    27   14   41 1   
    28   15   16 2   
    29   15   24 1   
    30   16   17 1   
    31   17   18 ar  
    32   17   20 ar  
    33   18   19 1   
    34   18   23 ar  
    35   19   42 1   
    36   19   43 1   
    37   19   52 1   
    38   20   21 ar  
    39   20   24 1   
    40   21   22 ar  
    41   22   23 ar  
    42   22   44 1   
    43   24   25 1   
    44   25   26 1   
    45   25   45 1   
    46   25   46 1   
    47   26   27 1   
    48   26   47 1   
    49   26   48 1   
    50   27   28 1   
    51   27   49 1   
    52   27   50 1   
    53   28   29 3   
    54   29   51 1   
@<TRIPOS>SUBSTRUCTURE
     1 PU9         1 TEMP              0 ****  ****    0 ROOT
