@<TRIPOS>MOLECULE
PU9
   51    54     1     0     0
SMALL
bcc


@<TRIPOS>ATOM
      1 Cl          0.0000    0.0000    0.0000 cl        1 PU9      0.092000
      2 C13         1.7350    0.0000    0.0000 ca        1 PU9     -0.185000
      3 C15         2.4280    0.0000    1.2020 ca        1 PU9      0.095000
      4 O3          1.7490   -0.0010    2.3800 os        1 PU9     -0.232000
      5 C20         1.6010    1.3660    2.7720 c3        1 PU9      0.001000
      6 C17         3.8170   -0.0060    1.2000 ca        1 PU9     -0.009000
      7 O2          4.5010   -0.0060    2.3780 os        1 PU9     -0.153000
      8 C19         4.6890   -1.3740    2.7450 c3        1 PU9      0.034000
      9 C16         4.5080   -0.0000   -0.0050 ca        1 PU9      0.068000
     10 O1          5.8670   -0.0020   -0.0120 os        1 PU9     -0.133000
     11 C18         6.2740   -0.0020   -1.3830 c3        1 PU9     -0.010000
     12 C14         3.8080   -0.0010   -1.2030 ca        1 PU9     -0.242000
     13 C12         2.4260   -0.0000   -1.1980 ca        1 PU9      0.025000
     14 C6          1.6700   -0.0000   -2.5010 c3        1 PU9     -0.288000
     15 C5          1.4180   -1.4200   -2.9350 c3        1 PU9     -0.089000
     16 N3          0.3700   -2.1230   -2.6160 n2        1 PU9     -0.075000
     17 C2          0.4660   -3.3530   -3.1750 c2        1 PU9     -0.198000
     18 C3         -0.3420   -4.5020   -3.1770 c2        1 PU9      0.041000
     19 N5         -1.5430   -4.5260   -2.4910 nv        1 PU9      0.056000
     20 C1          1.6740   -3.3900   -3.8900 c2        1 PU9     -0.144000
     21 N1          2.0080   -4.5010   -4.5390 n2        1 PU9     -0.124000
     22 C4          1.2190   -5.5540   -4.5130 c2        1 PU9      0.003000
     23 N2          0.0740   -5.5680   -3.8560 n2        1 PU9     -0.178000
     24 N4          2.2490   -2.1550   -3.7250 nh        1 PU9      0.339000
     25 C7          3.5240   -1.7100   -4.2930 c3        1 PU9     -0.106000
     26 C8          3.2790   -1.0780   -5.6640 c3        1 PU9     -0.220000
     27 C9          4.6100   -0.6140   -6.2570 c3        1 PU9      0.048000
     28 C10         4.3740   -0.0050   -7.5760 c1        1 PU9     -0.178000
     29 C11         4.1950    0.4650   -8.6380 c1        1 PU9     -0.156000
     30 H201        2.5930    1.6830    2.4750 h1        1 PU9      0.067333
     31 H202        1.5200    1.3660    3.8520 h1        1 PU9      0.067333
     32 H203        0.6460    1.3530    2.2610 h1        1 PU9      0.067333
     33 H191        5.7200   -1.3740    3.0770 h1        1 PU9      0.031333
     34 H192        4.7920   -2.1700    2.0170 h1        1 PU9      0.031333
     35 H193        4.1420   -1.8310    3.5610 h1        1 PU9      0.031333
     36 H181        6.1120    0.9390   -1.8930 h1        1 PU9      0.048000
     37 H182        5.5240   -0.6000   -1.8860 h1        1 PU9      0.048000
     38 H183        7.2870   -0.3130   -1.6060 h1        1 PU9      0.048000
     39 H14         4.4980   -0.0740   -2.0350 ha        1 PU9      0.165000
     40 H6C1        0.7000   -0.4820   -2.5300 DU        1 PU9      0.158000
     41 H6C2        1.3260    1.0240   -2.5830 hc        1 PU9      0.187000
     42 H5N1       -1.1880   -4.4770   -1.5570 hn        1 PU9      0.074500
     43 H5N2       -2.2640   -5.1150   -2.8600 hn        1 PU9      0.074500
     44 H4          1.5940   -6.3760   -5.1120 h5        1 PU9      0.136000
     45 H7C1        4.0060   -0.8660   -3.8150 h1        1 PU9      0.072000
     46 H7C2        4.4040   -2.2860   -4.0340 h1        1 PU9      0.072000
     47 H8C1        3.4250   -1.5250   -6.6400 hc        1 PU9      0.115000
     48 H8C2        2.3580   -0.5590   -5.4260 hc        1 PU9      0.115000
     49 H9C1        5.3780   -1.2560   -5.8440 hc        1 PU9      0.053500
     50 H9C2        4.8380    0.2030   -5.5830 hc        1 PU9      0.053500
     51 H11         3.8630    0.9670   -9.5390 ha        1 PU9      0.199000
@<TRIPOS>BOND
     1    1    2 1   
     2    2    3 1   
     3    2   13 1   
     4    3    4 1   
     5    3    6 1   
     6    4    5 1   
     7    5   30 1   
     8    5   31 1   
     9    5   32 1   
    10    6    7 1   
    11    6    9 1   
    12    7    8 1   
    13    8   33 1   
    14    8   34 1   
    15    8   35 1   
    16    9   10 1   
    17    9   12 1   
    18   10   11 1   
    19   11   36 1   
    20   11   37 1   
    21   11   38 1   
    22   12   13 1   
    23   12   39 1   
    24   13   14 1   
    25   14   15 1   
    26   14   40 1   
    27   14   41 1   
    28   15   16 1   
    29   15   24 1   
    30   15   40 1   
    31   16   17 1   
    32   17   18 1   
    33   17   20 1   
    34   18   19 1   
    35   18   23 1   
    36   19   42 1   
    37   19   43 1   
    38   20   21 1   
    39   20   24 1   
    40   21   22 1   
    41   22   23 1   
    42   22   44 1   
    43   24   25 1   
    44   25   26 1   
    45   25   45 1   
    46   25   46 1   
    47   26   27 1   
    48   26   47 1   
    49   26   48 1   
    50   27   28 1   
    51   27   49 1   
    52   27   50 1   
    53   28   29 1   
    54   29   51 1   
@<TRIPOS>SUBSTRUCTURE
     1 PU9         1 TEMP              0 ****  ****    0 ROOT
