@<TRIPOS>MOLECULE
PU9
   51    53     1     0     0
SMALL
bcc


@<TRIPOS>ATOM
      1 CL          0.9630   -2.9030   -1.0970 cl        1 PU9     -0.076400
      2 C13         0.5150   -1.3690   -1.6850 ca        1 PU9     -0.021600
      3 C15         1.0500   -0.9120   -2.9070 ca        1 PU9      0.123100
      4 O3          1.8370   -1.7600   -3.6670 os        1 PU9     -0.326900
      5 C20         3.2150   -1.3800   -3.7250 c3        1 PU9      0.115700
      6 C17         0.7090    0.3580   -3.4010 ca        1 PU9      0.058100
      7 O2          1.3620    0.8290   -4.5260 os        1 PU9     -0.327900
      8 C19         0.5140    0.9920   -5.6660 c3        1 PU9      0.116700
      9 C16        -0.2020    1.1610   -2.6770 ca        1 PU9      0.120100
     10 O1         -0.5090    2.3780   -3.2450 os        1 PU9     -0.318900
     11 C18        -1.3310    3.2470   -2.4680 c3        1 PU9      0.109700
     12 C14        -0.7480    0.6900   -1.4810 ca        1 PU9     -0.188000
     13 C12        -0.3910   -0.5660   -0.9770 ca        1 PU9     -0.048300
     14 C6         -1.0320   -1.0230    0.2920 c3        1 PU9     -0.053400
     15 C5         -0.9020   -0.0110    1.3870 cc        1 PU9      0.403800
     16 N3         -1.8950    0.7950    1.8240 nd        1 PU9     -0.551100
     17 C2         -1.3320    1.5550    2.8540 ca        1 PU9     -0.228200
     18 C3         -1.8610    2.5810    3.7100 ca        1 PU9      0.751200
     19 N5         -3.1520    3.0220    3.5420 nh        1 PU9     -0.950500
     20 C1          0.0650    1.1850    3.0420 ca        1 PU9      0.455800
     21 N1          0.8800    1.7550    3.9830 nb        1 PU9     -0.730000
     22 C4          0.2450    2.6950    4.7190 ca        1 PU9      0.683900
     23 N2         -1.0410    3.1380    4.6600 nb        1 PU9     -0.793000
     24 N4          0.3250    0.2000    2.0810 na        1 PU9     -0.247000
     25 C7          1.5440   -0.5420    1.9350 c3        1 PU9      0.039300
     26 C8          1.6540   -1.7730    2.8380 c3        1 PU9     -0.098400
     27 C9          2.9760   -2.4720    2.5670 c3        1 PU9     -0.000300
     28 C10         3.1330   -3.6500    3.3670 c1        1 PU9     -0.143100
     29 C11         3.2770   -4.6360    4.0290 c1        1 PU9     -0.150500
     30 H201        3.6650   -2.1450   -4.4060 h1        1 PU9      0.048367
     31 H202        3.3200   -0.3520   -4.1490 h1        1 PU9      0.048367
     32 H203        3.6710   -1.4360   -2.7080 h1        1 PU9      0.048367
     33 H191        1.2100    1.3770   -6.4520 h1        1 PU9      0.047033
     34 H192        0.0780    0.0090   -5.9660 h1        1 PU9      0.047033
     35 H193       -0.2920    1.7330   -5.4490 h1        1 PU9      0.047033
     36 H181       -1.3780    4.1770   -3.0890 h1        1 PU9      0.050700
     37 H182       -2.3490    2.8070   -2.3370 h1        1 PU9      0.050700
     38 H183       -0.8610    3.4560   -1.4770 h1        1 PU9      0.050700
     39 H14        -1.4640    1.3040   -0.9130 ha        1 PU9      0.163000
     40 H6C1       -2.1250   -1.2070    0.0920 hc        1 PU9      0.088700
     41 H6C2       -0.5900   -1.9940    0.6480 hc        1 PU9      0.088700
     42 H5N1       -3.5530    3.6300    4.2140 hn        1 PU9      0.441300
     43 H5N2       -3.7560    2.4770    2.9770 hn        1 PU9      0.441300
     44 H4          0.8650    3.1850    5.5020 h5        1 PU9      0.052100
     45 H7C1        1.6170   -0.8670    0.8560 h1        1 PU9      0.074200
     46 H7C2        2.4020    0.1550    2.1610 h1        1 PU9      0.074200
     47 H8C1        1.5990   -1.4680    3.9150 hc        1 PU9      0.062200
     48 H8C2        0.8050   -2.4780    2.6390 hc        1 PU9      0.062200
     49 H9C1        3.8260   -1.7630    2.7780 hc        1 PU9      0.062200
     50 H9C2        3.0380   -2.7530    1.4770 hc        1 PU9      0.062200
     51 H11         3.4060   -5.5100    4.6160 ha        1 PU9      0.165500
@<TRIPOS>BOND
     1    1    2 1   
     2    2    3 ar  
     3    2   13 ar  
     4    3    4 1   
     5    3    6 ar  
     6    4    5 1   
     7    5   30 1   
     8    5   31 1   
     9    5   32 1   
    10    6    7 1   
    11    6    9 ar  
    12    7    8 1   
    13    8   33 1   
    14    8   34 1   
    15    8   35 1   
    16    9   10 1   
    17    9   12 ar  
    18   10   11 1   
    19   11   36 1   
    20   11   37 1   
    21   11   38 1   
    22   12   13 ar  
    23   12   39 1   
    24   13   14 1   
    25   14   15 1   
    26   14   40 1   
    27   14   41 1   
    28   15   16 2   
    29   15   24 1   
    30   16   17 1   
    31   17   18 ar  
    32   17   20 ar  
    33   18   19 1   
    34   18   23 ar  
    35   19   42 1   
    36   19   43 1   
    37   20   21 ar  
    38   20   24 1   
    39   21   22 ar  
    40   22   23 ar  
    41   22   44 1   
    42   24   25 1   
    43   25   26 1   
    44   25   45 1   
    45   25   46 1   
    46   26   27 1   
    47   26   47 1   
    48   26   48 1   
    49   27   28 1   
    50   27   49 1   
    51   27   50 1   
    52   28   29 3   
    53   29   51 1   
@<TRIPOS>SUBSTRUCTURE
     1 PU9         1 TEMP              0 ****  ****    0 ROOT
