@<TRIPOS>MOLECULE
PUB
   83    82     1     0     0
SMALL
bcc


@<TRIPOS>ATOM
      1 CHC         0.0380   -0.8790   -0.3310 c3        1 PUB     -0.108000
      2 NC          0.4110   -0.5060   -2.7880 n2        1 PUB     -0.234000
      3 C1C        -0.3000   -0.1690   -3.8680 c2        1 PUB      0.086000
      4 C2C        -1.7860    0.0940   -3.5060 c3        1 PUB     -0.064000
      5 C3C        -1.7610   -0.1640   -2.0110 c2        1 PUB     -0.230000
      6 C4C        -0.4700   -0.5040   -1.6750 c2        1 PUB     -0.037000
      7 CMC        -2.9430   -0.1130   -1.1540 c3        1 PUB     -0.139000
      8 CAC        -2.2250    1.4350   -3.9520 c2        1 PUB     -0.118000
      9 CBC        -2.7160    2.4000   -3.1780 c2        1 PUB     -0.247000
     10 CGC        -5.6220    3.9630   -5.1810 c1        1 PUB      0.415000
     11 O1C        -6.5110    3.2510   -5.5260 o         1 PUB     -0.207000
     12 O2C        -4.7500    4.6920   -4.8320 o         1 PUB     -0.207000
     13 ND          0.1370    1.4110    0.7140 n         1 PUB     -0.370000
     14 C1D         0.8980    0.2440    0.2670 c3        1 PUB     -0.010000
     15 C2D         1.6380   -0.2310    1.5200 c2        1 PUB      0.172000
     16 C3D         1.2270    0.5270    2.6080 c2        1 PUB     -0.294000
     17 C4D         0.2160    1.5300    2.1110 c2        1 PUB      0.301000
     18 CMD         2.6640   -1.2550    1.4800 c3        1 PUB     -0.270000
     19 CBD         5.1720    0.4050    3.3220 c3        1 PUB     -0.290000
     20 OD         -0.4360    2.3520    2.7770 o         1 PUB     -0.379000
     21 NA          4.2200   -1.3120   -1.7980 n         1 PUB     -0.426000
     22 C1A         5.4190   -0.8430   -1.2430 c2        1 PUB      0.365000
     23 C2A         6.6270   -0.8600   -2.0170 c2        1 PUB     -0.469000
     24 C3A         6.6650   -0.8340   -3.4300 c2        1 PUB      0.146000
     25 C4A         5.6790   -0.4590   -4.2460 c1        1 PUB     -0.359000
     26 CAA         7.9540   -1.2210   -4.1140 c3        1 PUB     -0.119000
     27 CAD         1.6730    0.3630    3.9150 c1        1 PUB     -0.103000
     28 NB          2.4690   -0.8640   -4.9110 n3        1 PUB     -0.273000
     29 C1B         3.7150   -0.8330   -5.7060 c3        1 PUB      0.041000
     30 C2B         3.2610   -0.3040   -7.0660 c2        1 PUB     -0.082000
     31 C3B         1.9130   -0.0360   -7.0320 c2        1 PUB     -0.135000
     32 C4B         1.4300   -0.3080   -5.6380 c2        1 PUB      0.201000
     33 CHB         0.1480   -0.0510   -5.2070 c2        1 PUB     -0.329000
     34 CGB         1.2630    0.8600  -10.4550 c2        1 PUB      0.382000
     35 O1B         2.4360    0.5420  -10.7760 o         1 PUB     -0.543500
     36 O2B         0.2680    0.8930  -11.2190 o         1 PUB     -0.543500
     37 HHC1        0.6760   -1.8020   -0.4140 hc        1 PUB      0.101500
     38 HHC2        1.6580    0.5760   -0.5040 h1        1 PUB      0.165000
     39 HMC1       -3.1120   -1.1010   -0.6520 hc        1 PUB      0.067667
     40 HMC2       -2.8210    0.6590   -0.3500 hc        1 PUB      0.067667
     41 HMC3       -3.8560    0.1410   -1.7470 hc        1 PUB      0.067667
     42 HAC1       -2.4180   -0.6880   -4.0130 hc        1 PUB      0.126000
     43 HAC2       -2.1020    1.5940   -5.0400 ha        1 PUB      0.131000
     44 HBC1       -2.8290    2.2960   -2.0910 ha        1 PUB      0.108000
     45 HBC2       -3.0210    3.3730   -3.5880 ha        1 PUB      0.108000
     46 HND        -0.6520    1.7020    0.1920 hn        1 PUB      0.234000
     47 H1D1       -0.8280   -1.1130    0.3430 hc        1 PUB      0.101500
     48 HMD1        2.8910   -1.6360    2.5080 hc        1 PUB      0.151333
     49 HMD2        3.6280   -0.8080    1.0620 hc        1 PUB      0.151333
     50 HMD3        2.3880   -2.1010    0.8020 hc        1 PUB      0.151333
     51 HBD1        4.0910    0.2280    3.5330 hc        1 PUB      0.072500
     52 HBD2        1.3380    1.1090    4.6510 ha        1 PUB      0.048000
     53 HBD3        5.4130    1.4760    3.4940 hc        1 PUB      0.072500
     54 HNA         3.3810   -0.9770   -1.3900 hn        1 PUB      0.184000
     55 H4A1        4.1930   -1.4260   -2.7830 hn        1 PUB      0.184000
     56 HMA1        7.6860   -0.8060   -0.1530 hc        1 PUB      0.032667
     57 HMA2        8.5000   -1.7710   -1.4530 hc        1 PUB      0.032667
     58 HMA3        8.5260    0.0340   -1.5170 hc        1 PUB      0.032667
     59 HBA1        8.8180   -0.7530   -3.5710 hc        1 PUB      0.070500
     60 HBA2        9.1120   -2.9820   -4.6190 hc        1 PUB      0.063000
     61 HBA3        7.3170   -3.1890   -4.7650 hc        1 PUB      0.063000
     62 HAA1        7.9680   -0.8170   -5.1620 hc        1 PUB      0.070500
     63 HAA2        8.0880   -3.1470   -3.1280 hc        1 PUB      0.063000
     64 HAD1        5.3930    0.1380    2.2620 hc        1 PUB      0.072500
     65 HAD2        5.7890   -0.2240    4.0010 hc        1 PUB      0.072500
     66 HNB         2.5360   -0.7210   -3.9300 hn        1 PUB      0.243000
     67 HHB1       -0.5870    0.2550   -5.9670 ha        1 PUB      0.155000
     68 HAB1        2.0400   -1.4630   -9.5390 ha        1 PUB      0.000500
     69 HAB2        2.1150   -2.1380   -9.5460 ha        1 PUB      0.000500
     70 HBB1        1.8240    2.1270   -8.7680 hc        1 PUB      0.088000
     71 HBB2        0.0250    1.8490   -8.9830 hc        1 PUB      0.088000
     72 CMB         4.1770   -0.2370   -8.2010 c3        1 PUB     -0.196000
     73 CHA         4.7990    0.0010   -5.0820 c2        1 PUB     -0.145000
     74 CMA         7.8890   -0.8510   -1.2520 c3        1 PUB     -0.082000
     75 HHA1        4.0660   -1.9010   -5.8090 h1        1 PUB      0.112000
     76 CBA         8.1290   -2.7190   -4.1590 c3        1 PUB     -0.199000
     77 HHA2        4.7790    1.0630   -5.3820 ha        1 PUB      0.103000
     78 HMB1        3.7150    0.3220   -9.0610 hc        1 PUB      0.103667
     79 HMB2        5.1300    0.2620   -7.8940 hc        1 PUB      0.103667
     80 HMB3        4.4220   -1.2710   -8.5590 hc        1 PUB      0.103667
     81 CAB         0.9840    0.2760   -8.0420 c1        1 PUB     -0.058000
     82 OA          5.3590   -0.5100   -0.0160 o         1 PUB     -0.539000
     83 CBB         1.0350    1.3550   -8.9680 c3        1 PUB     -0.271000
@<TRIPOS>BOND
     1    1    6 1   
     2    1   14 1   
     3    1   37 1   
     4    1   47 1   
     5    2    3 1   
     6    2    6 1   
     7    3    4 1   
     8    3   33 1   
     9    4    5 1   
    10    4    8 1   
    11    4   42 1   
    12    5    6 1   
    13    5    7 1   
    14    7   39 1   
    15    7   40 1   
    16    7   41 1   
    17    8    9 1   
    18    8   43 1   
    19    9   44 1   
    20    9   45 1   
    21   10   11 1   
    22   10   12 1   
    23   13   14 1   
    24   13   17 1   
    25   13   46 1   
    26   14   15 1   
    27   14   38 1   
    28   15   16 1   
    29   15   18 1   
    30   16   17 1   
    31   16   27 1   
    32   17   20 1   
    33   18   48 1   
    34   18   49 1   
    35   18   50 1   
    36   19   51 1   
    37   19   53 1   
    38   19   64 1   
    39   19   65 1   
    40   21   22 1   
    41   21   54 1   
    42   21   55 1   
    43   22   23 1   
    44   22   82 1   
    45   23   24 1   
    46   23   74 1   
    47   24   25 1   
    48   24   26 1   
    49   25   73 1   
    50   26   59 1   
    51   26   62 1   
    52   26   76 1   
    53   27   52 1   
    54   28   29 1   
    55   28   32 1   
    56   28   66 1   
    57   29   30 1   
    58   29   73 1   
    59   29   75 1   
    60   30   31 1   
    61   30   72 1   
    62   31   32 1   
    63   31   81 1   
    64   32   33 1   
    65   33   67 1   
    66   34   35 1   
    67   34   36 1   
    68   34   83 1   
    69   56   74 1   
    70   57   74 1   
    71   58   74 1   
    72   60   76 1   
    73   61   76 1   
    74   63   76 1   
    75   68   69 1   
    76   70   83 1   
    77   71   83 1   
    78   72   78 1   
    79   72   79 1   
    80   72   80 1   
    81   73   77 1   
    82   81   83 1   
@<TRIPOS>SUBSTRUCTURE
     1 PUB         1 TEMP              0 ****  ****    0 ROOT
