@<TRIPOS>MOLECULE
PUB
   83    86     1     0     0
SMALL
bcc


@<TRIPOS>ATOM
      1 CHC        -3.8870    0.2940   -0.5180 c3        1 PUB     -0.109700
      2 NC         -1.6020    0.1790    0.5240 nc        1 PUB     -0.630300
      3 C1C        -1.0870    0.3370    1.8560 cc        1 PUB      0.013600
      4 C2C        -2.2360    0.6040    2.7750 cc        1 PUB     -0.023200
      5 C3C        -3.3680    0.6160    1.9880 cd        1 PUB     -0.263800
      6 C4C        -2.9160    0.3430    0.6010 cd        1 PUB      0.412600
      7 CMC        -4.7570    0.8540    2.3770 c3        1 PUB     -0.055900
      8 CAC        -2.1600    0.8490    4.2240 c3        1 PUB     -0.034200
      9 CBC        -2.9890   -0.1230    5.0450 c3        1 PUB     -0.190400
     10 CGC        -4.0500    0.5670    5.9200 c         1 PUB      0.904600
     11 O1C        -4.5270    1.6830    5.5520 o         1 PUB     -0.853300
     12 O2C        -4.4250   -0.0360    6.9660 o         1 PUB     -0.853300
     13 ND         -2.6990   -1.3640   -2.0110 n         1 PUB     -0.544900
     14 C1D        -3.2650   -0.0200   -1.8780 c3        1 PUB      0.114900
     15 C2D        -4.3190    0.0530   -2.9920 c2        1 PUB     -0.090400
     16 C3D        -4.3880   -1.1420   -3.6270 ce        1 PUB     -0.187400
     17 C4D        -3.4110   -2.0910   -2.9730 c         1 PUB      0.683700
     18 CMD        -5.0480    1.2970   -3.2430 c3        1 PUB     -0.053900
     19 CBD        -4.4320   -1.9520   -5.9660 c3        1 PUB     -0.093100
     20 OD         -3.2220   -3.2860   -3.2520 o         1 PUB     -0.642500
     21 NA          2.0620    1.6350   -2.9930 n         1 PUB     -0.554900
     22 C1A         1.8350    1.7660   -4.3670 c         1 PUB      0.686700
     23 C2A         2.9370    1.0180   -5.0780 ce        1 PUB     -0.190400
     24 C3A         3.7140    0.4050   -4.1510 c2        1 PUB     -0.088400
     25 C4A         3.1790    0.7210   -2.7490 c3        1 PUB      0.109900
     26 CAA         4.9030   -0.4370   -4.3590 c3        1 PUB     -0.034200
     27 CAD        -5.2400   -1.5740   -4.7460 c3        1 PUB     -0.012200
     28 NB          1.2520   -0.1470   -0.0410 na        1 PUB     -0.149100
     29 C1B         2.5270   -0.2780   -0.5670 cc        1 PUB     -0.148600
     30 C2B         3.4680   -0.1060    0.4770 cd        1 PUB     -0.128300
     31 C3B         2.7280    0.1150    1.6850 cd        1 PUB     -0.048300
     32 C4B         1.3460    0.0850    1.3400 cd        1 PUB     -0.135100
     33 CHB         0.2240    0.2830    2.2070 cf        1 PUB      0.050800
     34 CGB         5.5340   -0.5200    3.9580 c         1 PUB      0.904600
     35 O1B         6.1780    0.3600    3.3090 o         1 PUB     -0.854300
     36 O2B         6.0330   -1.1720    4.9190 o         1 PUB     -0.854300
     37 HHC1       -4.6810   -0.4590   -0.2620 hc        1 PUB      0.065700
     38 HHC2       -4.3870    1.2990   -0.5880 hc        1 PUB      0.065700
     39 HMC1       -5.2180    1.6370    1.7250 hc        1 PUB      0.053367
     40 HMC2       -5.3590   -0.0840    2.2700 hc        1 PUB      0.053367
     41 HMC3       -4.8100    1.1920    3.4520 hc        1 PUB      0.053367
     42 HAC1       -1.0920    0.8190    4.5660 hc        1 PUB      0.060200
     43 HAC2       -2.5500    1.8920    4.4200 hc        1 PUB      0.060200
     44 HBC1       -3.5370   -0.8350    4.3760 hc        1 PUB      0.033200
     45 HBC2       -2.3200   -0.7270    5.7070 hc        1 PUB      0.033200
     46 HND        -2.2600   -1.7940   -1.2340 hn        1 PUB      0.338500
     47 H1D1       -2.4440    0.7260   -2.0920 h1        1 PUB      0.092700
     48 HMD1       -5.5760    1.2700   -4.2290 hc        1 PUB      0.051033
     49 HMD2       -5.8110    1.4640   -2.4380 hc        1 PUB      0.051033
     50 HMD3       -4.3440    2.1670   -3.2380 hc        1 PUB      0.051033
     51 HBD1       -5.1080   -2.3250   -6.7720 hc        1 PUB      0.038033
     52 HBD2       -3.8660   -1.0710   -6.3550 hc        1 PUB      0.038033
     53 HBD3       -3.7010   -2.7570   -5.7050 hc        1 PUB      0.038033
     54 HNA         1.3600    1.7620   -2.3090 hn        1 PUB      0.336500
     55 H4A1        3.9690    1.2770   -2.1600 h1        1 PUB      0.098700
     56 HMA1        2.3970    1.8400   -6.9650 hc        1 PUB      0.045033
     57 HMA2        4.0920    1.1800   -6.8670 hc        1 PUB      0.045033
     58 HMA3        2.6790    0.0470   -6.9570 hc        1 PUB      0.045033
     59 HBA1        6.9460   -0.6940   -3.6990 hc        1 PUB      0.044367
     60 HBA2        6.3430    1.0140   -3.6200 hc        1 PUB      0.044367
     61 HBA3        5.7950   -0.1960   -2.3880 hc        1 PUB      0.044367
     62 HAA1        5.2220   -0.3700   -5.4360 hc        1 PUB      0.048700
     63 HAA2        4.6210   -1.5090   -4.1630 hc        1 PUB      0.048700
     64 HAD1       -5.8400   -2.4670   -4.4130 hc        1 PUB      0.043700
     65 HAD2       -5.9670   -0.7600   -5.0110 hc        1 PUB      0.043700
     66 HNB         0.4100   -0.2760   -0.5410 hn        1 PUB      0.312700
     67 HHB1        0.4890    0.4160    3.2740 ha        1 PUB      0.159000
     68 HAB1        4.0600    1.2120    2.9110 hc        1 PUB      0.056200
     69 HAB2        2.5440    0.6600    3.7420 hc        1 PUB      0.056200
     70 HBB1        3.5520   -1.2810    4.4220 hc        1 PUB      0.032700
     71 HBB2        4.1560   -1.6510    2.7600 hc        1 PUB      0.032700
     72 CMB         4.9250   -0.1350    0.3370 c3        1 PUB     -0.056800
     73 CHA         2.8150   -0.5610   -1.9880 c3        1 PUB     -0.014100
     74 CMA         3.0340    1.0240   -6.5380 c3        1 PUB     -0.034900
     75 HHA1        1.9580   -1.0820   -2.4900 hc        1 PUB      0.060700
     76 CBA         6.0600   -0.0550   -3.4660 c3        1 PUB     -0.099100
     77 HHA2        3.7080   -1.2440   -2.0310 hc        1 PUB      0.060700
     78 HMB1        5.2590   -1.1020   -0.1170 hc        1 PUB      0.054367
     79 HMB2        5.2710    0.6960   -0.3290 hc        1 PUB      0.054367
     80 HMB3        5.4210   -0.0150    1.3440 hc        1 PUB      0.054367
     81 CAB         3.3330    0.3520    3.0070 c3        1 PUB     -0.021100
     82 OA          0.9180    2.4220   -4.8850 o         1 PUB     -0.642500
     83 CBB         4.0910   -0.8510    3.5410 c3        1 PUB     -0.191400
@<TRIPOS>BOND
     1    1    6 1   
     2    1   14 1   
     3    1   37 1   
     4    1   38 1   
     5    2    3 1   
     6    2    6 2   
     7    3    4 1   
     8    3   33 2   
     9    4    5 2   
    10    4    8 1   
    11    5    6 1   
    12    5    7 1   
    13    7   39 1   
    14    7   40 1   
    15    7   41 1   
    16    8    9 1   
    17    8   42 1   
    18    8   43 1   
    19    9   10 1   
    20    9   44 1   
    21    9   45 1   
    22   10   11 1   
    23   10   12 1   
    24   13   14 1   
    25   13   17 1   
    26   13   46 1   
    27   14   15 1   
    28   14   47 1   
    29   15   16 2   
    30   15   18 1   
    31   16   17 1   
    32   16   27 1   
    33   17   20 2   
    34   18   48 1   
    35   18   49 1   
    36   18   50 1   
    37   19   27 1   
    38   19   51 1   
    39   19   52 1   
    40   19   53 1   
    41   21   22 1   
    42   21   25 1   
    43   21   54 1   
    44   22   23 1   
    45   22   82 2   
    46   23   24 2   
    47   23   74 1   
    48   24   25 1   
    49   24   26 1   
    50   25   55 1   
    51   25   73 1   
    52   26   62 1   
    53   26   63 1   
    54   26   76 1   
    55   27   64 1   
    56   27   65 1   
    57   28   29 1   
    58   28   32 1   
    59   28   66 1   
    60   29   30 2   
    61   29   73 1   
    62   30   31 1   
    63   30   72 1   
    64   31   32 2   
    65   31   81 1   
    66   32   33 1   
    67   33   67 1   
    68   34   35 1   
    69   34   36 1   
    70   34   83 1   
    71   56   74 1   
    72   57   74 1   
    73   58   74 1   
    74   59   76 1   
    75   60   76 1   
    76   61   76 1   
    77   68   81 1   
    78   69   81 1   
    79   70   83 1   
    80   71   83 1   
    81   72   78 1   
    82   72   79 1   
    83   72   80 1   
    84   73   75 1   
    85   73   77 1   
    86   81   83 1   
@<TRIPOS>SUBSTRUCTURE
     1 PUB         1 TEMP              0 ****  ****    0 ROOT
