@<TRIPOS>MOLECULE
PUC
   58    59     1     0     0
SMALL
bcc


@<TRIPOS>ATOM
      1 C1          1.7560    2.1420    0.0380 c         1 PUC      0.908600
      2 O1          2.4310    1.1340   -0.3190 o         1 PUC     -0.851300
      3 C2          0.6370    1.9460    1.0780 c3        1 PUC     -0.196400
      4 O2          1.9300    3.3070   -0.4220 o         1 PUC     -0.851300
      5 C3          1.0880    1.0480    2.2040 c3        1 PUC     -0.064400
      6 O3          0.9290   -3.7440    8.5460 oh        1 PUC     -0.603800
      7 C4         -0.0530    0.7160    3.1460 c3        1 PUC     -0.061200
      8 C5          0.3790   -0.1400    4.2760 c2        1 PUC     -0.122200
      9 O5         -4.5070   -0.4410    7.9550 os        1 PUC     -0.429600
     10 C6         -0.3610   -0.4460    5.3460 c2        1 PUC     -0.227200
     11 C7         -1.7540    0.0050    5.5830 c3        1 PUC     -0.034200
     12 C8         -1.9370    0.5420    6.9870 c3        1 PUC     -0.053700
     13 C9         -3.2190    1.3930    7.1670 c3        1 PUC     -0.101700
     14 C10        -3.3200    1.4290    8.7160 c3        1 PUC     -0.117400
     15 C11        -3.3960   -0.1180    8.8250 c3        1 PUC      0.132100
     16 C12        -2.1070   -0.5650    8.0710 c3        1 PUC     -0.071500
     17 C13        -0.9450   -0.6400    8.9860 c2        1 PUC     -0.141200
     18 C14        -0.1670   -1.7050    9.1860 c2        1 PUC     -0.208200
     19 C15        -0.3090   -3.0350    8.5180 c3        1 PUC      0.171300
     20 C16        -1.3410   -3.9240    9.2130 c3        1 PUC     -0.067400
     21 C17        -0.9960   -4.1900   10.6610 c3        1 PUC     -0.077400
     22 C18        -2.0240   -5.0890   11.3120 c3        1 PUC     -0.079400
     23 C19        -1.6850   -5.3520   12.7640 c3        1 PUC     -0.079400
     24 C20        -2.7040   -6.2500   13.4170 c3        1 PUC     -0.092100
     25 C21        -4.4400    0.4990    6.8530 c3        1 PUC      0.118400
     26 H12         0.3230    2.9430    1.4760 hc        1 PUC      0.019700
     27 H22        -0.2410    1.4920    0.5540 hc        1 PUC      0.019700
     28 H13         1.9120    1.5510    2.7750 hc        1 PUC      0.046700
     29 H23         1.5160    0.1080    1.7650 hc        1 PUC      0.046700
     30 H14        -0.4970    1.6710    3.5390 hc        1 PUC      0.040200
     31 H24        -0.8660    0.1900    2.5750 hc        1 PUC      0.040200
     32 H15         1.4030   -0.5450    4.1890 ha        1 PUC      0.123000
     33 H16         0.0480   -1.0900    6.1430 ha        1 PUC      0.104000
     34 H17        -2.4450   -0.8650    5.4050 hc        1 PUC      0.049200
     35 H27        -2.0380    0.8080    4.8500 hc        1 PUC      0.049200
     36 H18        -1.0520    1.1850    7.2420 hc        1 PUC      0.062700
     37 H19        -3.2060    2.3630    6.6400 hc        1 PUC      0.084700
     38 H110       -4.2420    1.9300    9.0820 hc        1 PUC      0.058200
     39 H210       -2.4250    1.8630    9.2070 hc        1 PUC      0.058200
     40 H111       -3.5840   -0.5830    9.8090 h1        1 PUC      0.089700
     41 H112       -2.3030   -1.5550    7.5800 hc        1 PUC      0.075700
     42 H113       -0.7340    0.2980    9.5310 ha        1 PUC      0.117000
     43 H114        0.6750   -1.6510    9.8990 ha        1 PUC      0.128000
     44 H115       -0.6170   -2.8940    7.4400 h1        1 PUC      0.047700
     45 H116       -2.3390   -3.4190    9.1380 hc        1 PUC      0.050200
     46 H216       -1.3980   -4.8970    8.6570 hc        1 PUC      0.050200
     47 H117        0.0190   -4.6660   10.7150 hc        1 PUC      0.047700
     48 H217       -0.9360   -3.2170   11.2170 hc        1 PUC      0.047700
     49 H118       -3.0380   -4.6140   11.2440 hc        1 PUC      0.037700
     50 H218       -2.0780   -6.0630   10.7570 hc        1 PUC      0.037700
     51 H119       -0.6690   -5.8240   12.8290 hc        1 PUC      0.037700
     52 H219       -1.6310   -4.3770   13.3170 hc        1 PUC      0.037700
     53 H120       -3.7190   -5.7850   13.3820 hc        1 PUC      0.030033
     54 H220       -2.4350   -6.4300   14.4860 hc        1 PUC      0.030033
     55 H320       -2.7530   -7.2360   12.8950 hc        1 PUC      0.030033
     56 H121       -5.3960    1.0780    6.8530 h1        1 PUC      0.050700
     57 H221       -4.3350   -0.0870    5.9100 h1        1 PUC      0.050700
     58 H2O3        1.5640   -3.2050    8.0600 ho        1 PUC      0.403000
@<TRIPOS>BOND
     1    1    2 1   
     2    1    3 1   
     3    1    4 1   
     4    3    5 1   
     5    3   26 1   
     6    3   27 1   
     7    5    7 1   
     8    5   28 1   
     9    5   29 1   
    10    6   19 1   
    11    6   58 1   
    12    7    8 1   
    13    7   30 1   
    14    7   31 1   
    15    8   10 2   
    16    8   32 1   
    17    9   15 1   
    18    9   25 1   
    19   10   11 1   
    20   10   33 1   
    21   11   12 1   
    22   11   34 1   
    23   11   35 1   
    24   12   13 1   
    25   12   16 1   
    26   12   36 1   
    27   13   14 1   
    28   13   25 1   
    29   13   37 1   
    30   14   15 1   
    31   14   38 1   
    32   14   39 1   
    33   15   16 1   
    34   15   40 1   
    35   16   17 1   
    36   16   41 1   
    37   17   18 2   
    38   17   42 1   
    39   18   19 1   
    40   18   43 1   
    41   19   20 1   
    42   19   44 1   
    43   20   21 1   
    44   20   45 1   
    45   20   46 1   
    46   21   22 1   
    47   21   47 1   
    48   21   48 1   
    49   22   23 1   
    50   22   49 1   
    51   22   50 1   
    52   23   24 1   
    53   23   51 1   
    54   23   52 1   
    55   24   53 1   
    56   24   54 1   
    57   24   55 1   
    58   25   56 1   
    59   25   57 1   
@<TRIPOS>SUBSTRUCTURE
     1 PUC         1 TEMP              0 ****  ****    0 ROOT
