@<TRIPOS>MOLECULE
PUC
   58    59     1     0     0
SMALL
bcc


@<TRIPOS>ATOM
      1 C1          1.9130    2.2140    0.1420 c         1 PUC      0.908600
      2 O1          2.6370    1.2280   -0.1790 o         1 PUC     -0.851300
      3 C2          0.7640    1.9870    1.1420 c3        1 PUC     -0.196400
      4 O2          2.0630    3.3800   -0.3230 o         1 PUC     -0.851300
      5 C3          1.2040    1.1160    2.2920 c3        1 PUC     -0.064400
      6 O3          0.9710   -3.6490    8.6390 oh        1 PUC     -0.603800
      7 C4          0.0420    0.7510    3.1950 c3        1 PUC     -0.061200
      8 C5          0.4610   -0.0800    4.3480 c2        1 PUC     -0.122200
      9 O5         -4.5570   -0.5490    7.8270 os        1 PUC     -0.429600
     10 C6         -0.3090   -0.4050    5.3920 c2        1 PUC     -0.227200
     11 C7         -1.7250   -0.0050    5.5700 c3        1 PUC     -0.034200
     12 C8         -1.9860    0.5250    6.9640 c3        1 PUC     -0.053700
     13 C9         -3.3040    1.3290    7.0890 c3        1 PUC     -0.101700
     14 C10        -3.4710    1.3610    8.6330 c3        1 PUC     -0.117400
     15 C11        -3.4950   -0.1870    8.7410 c3        1 PUC      0.132100
     16 C12        -2.1610   -0.5870    8.0420 c3        1 PUC     -0.071500
     17 C13        -1.0360   -0.6200    9.0040 c2        1 PUC     -0.141200
     18 C14        -0.2270   -1.6560    9.2360 c2        1 PUC     -0.208200
     19 C15        -0.2910   -2.9890    8.5620 c3        1 PUC      0.171300
     20 C16        -1.3150   -3.9180    9.2130 c3        1 PUC     -0.067400
     21 C17        -1.0200   -4.1740   10.6740 c3        1 PUC     -0.077400
     22 C18        -2.0380   -5.1140   11.2820 c3        1 PUC     -0.079400
     23 C19        -1.7480   -5.3670   12.7460 c3        1 PUC     -0.079400
     24 C20        -2.7560   -6.3060   13.3560 c3        1 PUC     -0.092100
     25 C21        -4.4780    0.3920    6.7260 c3        1 PUC      0.118400
     26 H12        -0.0770    1.4960    0.5890 hc        1 PUC      0.019700
     27 H22         0.4000    2.9750    1.5170 hc        1 PUC      0.019700
     28 H13         1.6820    0.1880    1.8790 hc        1 PUC      0.046700
     29 H23         1.9880    1.6530    2.8890 hc        1 PUC      0.046700
     30 H14        -0.7300    0.1910    2.5990 hc        1 PUC      0.040200
     31 H24        -0.4510    1.6930    3.5620 hc        1 PUC      0.040200
     32 H15         1.5020   -0.4460    4.3050 ha        1 PUC      0.123000
     33 H16         0.0930   -1.0270    6.2090 ha        1 PUC      0.104000
     34 H17        -2.3770   -0.8990    5.3650 hc        1 PUC      0.049200
     35 H27        -2.0080    0.7880    4.8240 hc        1 PUC      0.049200
     36 H18        -1.1360    1.2000    7.2550 hc        1 PUC      0.062700
     37 H19        -3.3040    2.2990    6.5620 hc        1 PUC      0.084700
     38 H110       -4.4250    1.8290    8.9590 hc        1 PUC      0.058200
     39 H210       -2.6130    1.8270    9.1610 hc        1 PUC      0.058200
     40 H111       -3.7070   -0.6580    9.7170 h1        1 PUC      0.089700
     41 H112       -2.3010   -1.5830    7.5450 hc        1 PUC      0.075700
     42 H113       -0.8830    0.3240    9.5580 ha        1 PUC      0.117000
     43 H114        0.5820   -1.5710    9.9830 ha        1 PUC      0.128000
     44 H115       -0.5600   -2.8570    7.4720 h1        1 PUC      0.047700
     45 H116       -1.3120   -4.8910    8.6550 hc        1 PUC      0.050200
     46 H216       -2.3280   -3.4520    9.0980 hc        1 PUC      0.050200
     47 H117       -1.0200   -3.2010   11.2330 hc        1 PUC      0.047700
     48 H217        0.0100   -4.6110   10.7690 hc        1 PUC      0.047700
     49 H118       -3.0660   -4.6790   11.1730 hc        1 PUC      0.037700
     50 H218       -2.0310   -6.0880   10.7240 hc        1 PUC      0.037700
     51 H119       -0.7180   -5.8000   12.8520 hc        1 PUC      0.037700
     52 H219       -1.7550   -4.3930   13.3020 hc        1 PUC      0.037700
     53 H120       -2.5250   -6.4780   14.4350 hc        1 PUC      0.030033
     54 H220       -3.7870   -5.8810   13.2800 hc        1 PUC      0.030033
     55 H320       -2.7460   -7.2920   12.8310 hc        1 PUC      0.030033
     56 H121       -4.3130   -0.1900    5.7900 h1        1 PUC      0.050700
     57 H221       -5.4530    0.9360    6.6860 h1        1 PUC      0.050700
     58 H2O3        1.6040   -3.0860    8.1790 ho        1 PUC      0.403000
@<TRIPOS>BOND
     1    1    2 1   
     2    1    3 1   
     3    1    4 1   
     4    3    5 1   
     5    3   26 1   
     6    3   27 1   
     7    5    7 1   
     8    5   28 1   
     9    5   29 1   
    10    6   19 1   
    11    6   58 1   
    12    7    8 1   
    13    7   30 1   
    14    7   31 1   
    15    8   10 2   
    16    8   32 1   
    17    9   15 1   
    18    9   25 1   
    19   10   11 1   
    20   10   33 1   
    21   11   12 1   
    22   11   34 1   
    23   11   35 1   
    24   12   13 1   
    25   12   16 1   
    26   12   36 1   
    27   13   14 1   
    28   13   25 1   
    29   13   37 1   
    30   14   15 1   
    31   14   38 1   
    32   14   39 1   
    33   15   16 1   
    34   15   40 1   
    35   16   17 1   
    36   16   41 1   
    37   17   18 2   
    38   17   42 1   
    39   18   19 1   
    40   18   43 1   
    41   19   20 1   
    42   19   44 1   
    43   20   21 1   
    44   20   45 1   
    45   20   46 1   
    46   21   22 1   
    47   21   47 1   
    48   21   48 1   
    49   22   23 1   
    50   22   49 1   
    51   22   50 1   
    52   23   24 1   
    53   23   51 1   
    54   23   52 1   
    55   24   53 1   
    56   24   54 1   
    57   24   55 1   
    58   25   56 1   
    59   25   57 1   
@<TRIPOS>SUBSTRUCTURE
     1 PUC         1 TEMP              0 ****  ****    0 ROOT
