@<TRIPOS>MOLECULE
PUC
   58    59     1     0     0
SMALL
bcc


@<TRIPOS>ATOM
      1 C1         -6.6730    3.4670    0.5490 c         1 PUC      0.908600
      2 O1         -6.1920    4.4470   -0.0900 o         1 PUC     -0.851300
      3 C2         -5.9520    2.1090    0.4630 c3        1 PUC     -0.196400
      4 O2         -7.7270    3.5280    1.2460 o         1 PUC     -0.851300
      5 C3         -4.4570    2.2730    0.5780 c3        1 PUC     -0.064400
      6 O3          4.2270   -1.1080    1.2400 oh        1 PUC     -0.598800
      7 C4         -3.7280    0.9690    0.3200 c3        1 PUC     -0.060200
      8 C5         -2.2580    1.1060    0.4420 c2        1 PUC     -0.128200
      9 O5         -0.3310   -4.1420   -1.9130 os        1 PUC     -0.428600
     10 C6         -1.3810    0.1170    0.2390 c2        1 PUC     -0.227200
     11 C7         -1.7560   -1.2630   -0.1550 c3        1 PUC     -0.034200
     12 C8         -0.7340   -2.2830    0.2990 c3        1 PUC     -0.053700
     13 C9         -1.2400   -3.7450    0.2460 c3        1 PUC     -0.101700
     14 C10         0.1050   -4.5140    0.3570 c3        1 PUC     -0.118400
     15 C11         0.6810   -3.8470   -0.9210 c3        1 PUC      0.130100
     16 C12         0.5460   -2.3320   -0.5910 c3        1 PUC     -0.068500
     17 C13         1.7420   -1.8180    0.1150 c2        1 PUC     -0.141200
     18 C14         2.2720   -0.6130   -0.1110 c2        1 PUC     -0.215200
     19 C15         3.4650   -0.0830    0.6180 c3        1 PUC      0.169300
     20 C16         4.3360    0.7530   -0.3200 c3        1 PUC     -0.106400
     21 C17         5.4620    1.4260    0.4340 c3        1 PUC     -0.080400
     22 C18         6.3860    2.1700   -0.5050 c3        1 PUC     -0.078400
     23 C19         7.5030    2.8560    0.2520 c3        1 PUC     -0.080400
     24 C20         8.4300    3.5940   -0.6790 c3        1 PUC     -0.092100
     25 C21        -1.6030   -4.0790   -1.2190 c3        1 PUC      0.118400
     26 H12        -6.3350    1.4350    1.2710 hc        1 PUC      0.019200
     27 H22        -6.2130    1.6470   -0.5220 hc        1 PUC      0.019200
     28 H13        -4.1240    3.0550   -0.1560 hc        1 PUC      0.046700
     29 H23        -4.2000    2.6500    1.6020 hc        1 PUC      0.046700
     30 H14        -4.0910    0.1890    1.0450 hc        1 PUC      0.039200
     31 H24        -3.9830    0.5950   -0.7100 hc        1 PUC      0.039200
     32 H15        -1.8970    2.1120    0.7180 ha        1 PUC      0.123000
     33 H16        -0.2970    0.2940    0.3450 ha        1 PUC      0.111000
     34 H17        -2.7550   -1.5320    0.2850 hc        1 PUC      0.049700
     35 H27        -1.8700   -1.2960   -1.2740 hc        1 PUC      0.049700
     36 H18        -0.4430   -2.0520    1.3590 hc        1 PUC      0.061700
     37 H19        -2.0230   -3.9900    0.9840 hc        1 PUC      0.081700
     38 H110        0.6770   -4.2720    1.2760 hc        1 PUC      0.058200
     39 H210       -0.0110   -5.6140    0.2530 hc        1 PUC      0.058200
     40 H111        1.6550   -4.1870   -1.3150 h1        1 PUC      0.087700
     41 H112        0.3680   -1.7640   -1.5420 hc        1 PUC      0.078700
     42 H113        2.1790   -2.4940    0.8710 ha        1 PUC      0.126000
     43 H114        1.8320    0.0830   -0.8450 ha        1 PUC      0.136000
     44 H115        3.1190    0.5520    1.4870 h1        1 PUC      0.085700
     45 H116        4.7580    0.0920   -1.1210 hc        1 PUC      0.046200
     46 H216        3.6970    1.5260   -0.8200 hc        1 PUC      0.046200
     47 H117        5.0340    2.1400    1.1870 hc        1 PUC      0.047700
     48 H217        6.0380    0.6500    1.0060 hc        1 PUC      0.047700
     49 H118        6.8220    1.4540   -1.2500 hc        1 PUC      0.038200
     50 H218        5.8010    2.9330   -1.0830 hc        1 PUC      0.038200
     51 H119        7.0650    3.5730    0.9950 hc        1 PUC      0.039200
     52 H219        8.0830    2.0920    0.8340 hc        1 PUC      0.039200
     53 H120        9.2450    4.0930   -0.1010 hc        1 PUC      0.031033
     54 H220        8.8960    2.8920   -1.4110 hc        1 PUC      0.031033
     55 H320        7.8740    4.3760   -1.2500 hc        1 PUC      0.031033
     56 H121       -2.2250   -3.3000   -1.7170 h1        1 PUC      0.051200
     57 H221       -2.0800   -5.0850   -1.3150 h1        1 PUC      0.051200
     58 H2O3        4.5210   -1.7060    0.5420 ho        1 PUC      0.395000
@<TRIPOS>BOND
     1    1    2 1   
     2    1    3 1   
     3    1    4 1   
     4    3    5 1   
     5    3   26 1   
     6    3   27 1   
     7    5    7 1   
     8    5   28 1   
     9    5   29 1   
    10    6   19 1   
    11    6   58 1   
    12    7    8 1   
    13    7   30 1   
    14    7   31 1   
    15    8   10 2   
    16    8   32 1   
    17    9   15 1   
    18    9   25 1   
    19   10   11 1   
    20   10   33 1   
    21   11   12 1   
    22   11   34 1   
    23   11   35 1   
    24   12   13 1   
    25   12   16 1   
    26   12   36 1   
    27   13   14 1   
    28   13   25 1   
    29   13   37 1   
    30   14   15 1   
    31   14   38 1   
    32   14   39 1   
    33   15   16 1   
    34   15   40 1   
    35   16   17 1   
    36   16   41 1   
    37   17   18 2   
    38   17   42 1   
    39   18   19 1   
    40   18   43 1   
    41   19   20 1   
    42   19   44 1   
    43   20   21 1   
    44   20   45 1   
    45   20   46 1   
    46   21   22 1   
    47   21   47 1   
    48   21   48 1   
    49   22   23 1   
    50   22   49 1   
    51   22   50 1   
    52   23   24 1   
    53   23   51 1   
    54   23   52 1   
    55   24   53 1   
    56   24   54 1   
    57   24   55 1   
    58   25   56 1   
    59   25   57 1   
@<TRIPOS>SUBSTRUCTURE
     1 PUC         1 TEMP              0 ****  ****    0 ROOT
