@<TRIPOS>MOLECULE
PUG
   35    36     1     0     0
SMALL
bcc


@<TRIPOS>ATOM
      1 O1         -2.9760    3.1600   -0.5520 o         1 PUG     -0.625500
      2 C2         -2.9450    1.9210   -0.4070 c         1 PUG      0.815500
      3 N3         -4.0190    1.1120   -0.8110 n         1 PUG     -0.584500
      4 C4         -4.0420   -0.2940   -0.7020 c         1 PUG      0.758700
      5 O2         -5.0200   -0.9290   -1.1260 o         1 PUG     -0.608500
      6 N1         -1.8040    1.3290    0.1950 n         1 PUG     -0.446100
      7 C8         -1.7730   -0.0440    0.3230 cc        1 PUG      0.186200
      8 C9         -2.8500   -0.8590   -0.0960 cd        1 PUG     -0.265600
      9 N5         -2.5740   -2.2090    0.2380 n         1 PUG     -0.362100
     10 N7         -0.7730   -0.8710    0.8650 n         1 PUG     -0.374000
     11 C6         -1.2300   -2.2380    0.7150 c         1 PUG      0.771500
     12 O4         -0.5710   -3.2320    1.0580 o         1 PUG     -0.615500
     13 C10         0.5270   -0.5050    1.3330 c3        1 PUG      0.074000
     14 C11         1.4230    0.2220    0.3070 c3        1 PUG      0.090100
     15 O19         1.1150    1.6040    0.2900 oh        1 PUG     -0.612800
     16 C12         2.9120   -0.0010    0.6450 c3        1 PUG      0.088100
     17 O21         3.3180    0.9660    1.5960 oh        1 PUG     -0.604800
     18 C13         3.7530    0.0460   -0.6430 c3        1 PUG      0.101100
     19 O23         3.4650   -1.0620   -1.4700 oh        1 PUG     -0.577800
     20 C14         5.2510    0.1100   -0.3230 c3        1 PUG      0.093400
     21 O26         5.5480    1.4740   -0.0690 oh        1 PUG     -0.609800
     22 H3         -4.8050    1.5790   -1.2120 hn        1 PUG      0.359500
     23 H1         -0.9950    1.8960    0.3490 hn        1 PUG      0.379500
     24 H5         -2.9160   -2.9440   -0.3370 hn        1 PUG      0.346500
     25 H101        1.0310   -1.4610    1.6630 h1        1 PUG      0.083700
     26 H102        0.4100    0.1660    2.2340 h1        1 PUG      0.083700
     27 H11         1.2230   -0.1300   -0.7450 h1        1 PUG      0.108700
     28 H19         1.4450    1.9910    1.1150 ho        1 PUG      0.421000
     29 H12         3.0510   -0.9960    1.1540 h1        1 PUG      0.074700
     30 H21         3.7510    1.6950    1.1270 ho        1 PUG      0.434000
     31 H13         3.4560    0.9460   -1.2580 h1        1 PUG      0.111700
     32 H23         3.7420   -1.8590   -0.9990 ho        1 PUG      0.404000
     33 H141        5.8410   -0.2580   -1.2040 h1        1 PUG      0.042700
     34 H142        5.4910   -0.5130    0.5790 h1        1 PUG      0.042700
     35 H26         6.4780    1.5160    0.1820 ho        1 PUG      0.417000
@<TRIPOS>BOND
     1    1    2 2   
     2    2    3 1   
     3    2    6 1   
     4    3    4 1   
     5    3   22 1   
     6    4    5 2   
     7    4    8 1   
     8    6    7 1   
     9    6   23 1   
    10    7    8 2   
    11    7   10 1   
    12    8    9 1   
    13    9   11 1   
    14    9   24 1   
    15   10   11 1   
    16   10   13 1   
    17   11   12 2   
    18   13   14 1   
    19   13   25 1   
    20   13   26 1   
    21   14   15 1   
    22   14   16 1   
    23   14   27 1   
    24   15   28 1   
    25   16   17 1   
    26   16   18 1   
    27   16   29 1   
    28   17   30 1   
    29   18   19 1   
    30   18   20 1   
    31   18   31 1   
    32   19   32 1   
    33   20   21 1   
    34   20   33 1   
    35   20   34 1   
    36   21   35 1   
@<TRIPOS>SUBSTRUCTURE
     1 PUG         1 TEMP              0 ****  ****    0 ROOT
