@<TRIPOS>MOLECULE
PUG
   35    36     1     0     0
SMALL
bcc


@<TRIPOS>ATOM
      1 O1          0.1340   -0.7700    0.2330 o         1 PUG     -0.628500
      2 C2          1.3460   -0.4770    0.1740 c         1 PUG      0.814500
      3 N3          2.1150   -0.3290    1.3400 ns        1 PUG     -0.585500
      4 C4          3.4960   -0.0370    1.3520 c         1 PUG      0.758700
      5 O2          4.1000    0.0330    2.4340 o         1 PUG     -0.611500
      6 N1          1.9460   -0.2780   -1.0950 ns        1 PUG     -0.440100
      7 C8          3.2970   -0.0020   -1.1400 cc        1 PUG      0.190200
      8 C9          4.0750    0.1320    0.0330 cd        1 PUG     -0.271600
      9 N5          5.3970    0.5020   -0.3230 ns        1 PUG     -0.361100
     10 N7          4.1260    0.2140   -2.2550 n         1 PUG     -0.370000
     11 C6          5.4660    0.4220   -1.7470 c         1 PUG      0.768500
     12 O4          6.4610    0.6090   -2.4650 o         1 PUG     -0.615500
     13 C10         3.7840    0.0770   -3.6350 c3        1 PUG      0.105000
     14 C11         3.5050   -1.3650   -4.1100 c3        1 PUG      0.141100
     15 O19         2.2270   -1.7130   -3.6080 oh        1 PUG     -0.621800
     16 C12         3.5580   -1.4090   -5.6500 c3        1 PUG      0.113100
     17 O21         2.8230   -0.2980   -6.1350 oh        1 PUG     -0.586800
     18 C13         2.9630   -2.7170   -6.2030 c3        1 PUG      0.102100
     19 O23         3.2720   -3.7520   -5.2820 oh        1 PUG     -0.613800
     20 C14         3.5490   -3.0320   -7.5840 c3        1 PUG      0.091400
     21 O26         2.9230   -4.2320   -8.0050 oh        1 PUG     -0.608800
     22 H3          1.6400   -0.4530    2.2090 hn        1 PUG      0.358500
     23 H1          1.4310   -0.5200   -1.9180 hn        1 PUG      0.382500
     24 H5          6.1630    0.1920    0.2290 hn        1 PUG      0.343500
     25 H101        4.6450    0.4860   -4.2380 h1        1 PUG      0.095200
     26 H102        2.8610    0.6920   -3.8450 h1        1 PUG      0.095200
     27 H11         4.2760   -2.0930   -3.7280 h1        1 PUG      0.069700
     28 H19         2.0820   -2.6470   -3.8100 ho        1 PUG      0.432000
     29 H12         4.6360   -1.3180   -5.9680 h1        1 PUG      0.052700
     30 H21         2.8530   -0.3350   -7.0990 ho        1 PUG      0.405000
     31 H13         1.8430   -2.6150   -6.2820 h1        1 PUG      0.071700
     32 H23         3.0140   -4.5840   -5.7030 ho        1 PUG      0.434000
     33 H141        3.3190   -2.2010   -8.3010 h1        1 PUG      0.037700
     34 H142        4.6590   -3.1750   -7.5160 h1        1 PUG      0.037700
     35 H26         3.3330   -4.4850   -8.8410 ho        1 PUG      0.416000
@<TRIPOS>BOND
     1    1    2 2   
     2    2    3 1   
     3    2    6 1   
     4    3    4 1   
     5    3   22 1   
     6    4    5 2   
     7    4    8 1   
     8    6    7 1   
     9    6   23 1   
    10    7    8 2   
    11    7   10 1   
    12    8    9 1   
    13    9   11 1   
    14    9   24 1   
    15   10   11 1   
    16   10   13 1   
    17   11   12 2   
    18   13   14 1   
    19   13   25 1   
    20   13   26 1   
    21   14   15 1   
    22   14   16 1   
    23   14   27 1   
    24   15   28 1   
    25   16   17 1   
    26   16   18 1   
    27   16   29 1   
    28   17   30 1   
    29   18   19 1   
    30   18   20 1   
    31   18   31 1   
    32   19   32 1   
    33   20   21 1   
    34   20   33 1   
    35   20   34 1   
    36   21   35 1   
@<TRIPOS>SUBSTRUCTURE
     1 PUG         1 TEMP              0 ****  ****    0 ROOT
