@<TRIPOS>MOLECULE
PUG
   35    36     1     0     0
SMALL
bcc


@<TRIPOS>ATOM
      1 O1          0.1320   -0.7530    0.2290 o         1 PUG     -0.628500
      2 C2          1.3440   -0.4620    0.1710 c         1 PUG      0.814500
      3 N3          2.1130   -0.3110    1.3360 n         1 PUG     -0.585500
      4 C4          3.4940   -0.0210    1.3480 c         1 PUG      0.758700
      5 O2          4.0980    0.0510    2.4310 o         1 PUG     -0.611500
      6 N1          1.9460   -0.2680   -1.0990 n         1 PUG     -0.440100
      7 C8          3.2960    0.0060   -1.1440 cc        1 PUG      0.190200
      8 C9          4.0740    0.1420    0.0290 cd        1 PUG     -0.271600
      9 N5          5.3970    0.5100   -0.3280 n         1 PUG     -0.361100
     10 N7          4.1270    0.2170   -2.2590 n         1 PUG     -0.370000
     11 C6          5.4660    0.4250   -1.7510 c         1 PUG      0.768500
     12 O4          6.4630    0.6080   -2.4690 o         1 PUG     -0.615500
     13 C10         3.7850    0.0750   -3.6390 c3        1 PUG      0.105000
     14 C11         3.5050   -1.3680   -4.1090 c3        1 PUG      0.141100
     15 O19         2.2260   -1.7110   -3.6070 oh        1 PUG     -0.621800
     16 C12         3.5600   -1.4170   -5.6490 c3        1 PUG      0.113100
     17 O21         2.8270   -0.3060   -6.1390 oh        1 PUG     -0.586800
     18 C13         2.9630   -2.7260   -6.1980 c3        1 PUG      0.102100
     19 O23         3.2690   -3.7580   -5.2730 oh        1 PUG     -0.613800
     20 C14         3.5500   -3.0470   -7.5770 c3        1 PUG      0.091400
     21 O26         2.9230   -4.2480   -7.9950 oh        1 PUG     -0.608800
     22 H3          1.6370   -0.4320    2.2050 hn        1 PUG      0.358500
     23 H1          1.4310   -0.5120   -1.9210 hn        1 PUG      0.382500
     24 H5          6.1620    0.2010    0.2270 hn        1 PUG      0.343500
     25 H101        2.8630    0.6920   -3.8520 h1        1 PUG      0.095200
     26 H102        4.6480    0.4810   -4.2430 h1        1 PUG      0.095200
     27 H11         4.2740   -2.0950   -3.7240 h1        1 PUG      0.069700
     28 H19         2.0790   -2.6460   -3.8070 ho        1 PUG      0.432000
     29 H12         4.6380   -1.3290   -5.9660 h1        1 PUG      0.052700
     30 H21         2.8590   -0.3470   -7.1030 ho        1 PUG      0.405000
     31 H13         1.8430   -2.6230   -6.2790 h1        1 PUG      0.071700
     32 H23         3.0100   -4.5910   -5.6910 ho        1 PUG      0.434000
     33 H141        3.3220   -2.2180   -8.2980 h1        1 PUG      0.037700
     34 H142        4.6610   -3.1920   -7.5070 h1        1 PUG      0.037700
     35 H26         3.3340   -4.5050   -8.8290 ho        1 PUG      0.416000
@<TRIPOS>BOND
     1    1    2 2   
     2    2    3 1   
     3    2    6 1   
     4    3    4 1   
     5    3   22 1   
     6    4    5 2   
     7    4    8 1   
     8    6    7 1   
     9    6   23 1   
    10    7    8 2   
    11    7   10 1   
    12    8    9 1   
    13    9   11 1   
    14    9   24 1   
    15   10   11 1   
    16   10   13 1   
    17   11   12 2   
    18   13   14 1   
    19   13   25 1   
    20   13   26 1   
    21   14   15 1   
    22   14   16 1   
    23   14   27 1   
    24   15   28 1   
    25   16   17 1   
    26   16   18 1   
    27   16   29 1   
    28   17   30 1   
    29   18   19 1   
    30   18   20 1   
    31   18   31 1   
    32   19   32 1   
    33   20   21 1   
    34   20   33 1   
    35   20   34 1   
    36   21   35 1   
@<TRIPOS>SUBSTRUCTURE
     1 PUG         1 TEMP              0 ****  ****    0 ROOT
