@<TRIPOS>MOLECULE
PUG
   35    29     1     0     0
SMALL
bcc


@<TRIPOS>ATOM
      1 O1         -3.3390    3.0520    3.4060 o         1 PUG     -0.342000
      2 C2         -2.3080    2.4190    3.4140 c1        1 PUG      0.400500
      3 N3         -1.6670    2.1830    4.5860 n2        1 PUG     -0.327500
      4 C4         -0.5130    1.4820    4.5950 c1        1 PUG      0.400500
      5 O2          0.0700    1.2720    5.6540 o         1 PUG     -0.342000
      6 N1         -1.7880    1.9490    2.2420 n2        1 PUG     -0.327500
      7 C8         -0.6250    1.2420    2.2470 c1        1 PUG     -0.037500
      8 C9          0.0150    1.0060    3.4090 c1        1 PUG     -0.037500
      9 N5          1.1370    0.2850    3.1320 n1        1 PUG     -0.231500
     10 N7          0.0980    0.6690    1.2450 n1        1 PUG     -0.231500
     11 C6          1.1840    0.0800    1.7980 c2        1 PUG      0.359000
     12 O4          2.0620   -0.4900    1.2000 o         1 PUG     -0.334000
     13 C10        -0.1540    0.8170   -0.1770 c2        1 PUG     -0.048000
     14 C11        -0.1800   -0.5540   -0.8310 c3        1 PUG      0.023000
     15 O19        -1.4810   -1.0820   -0.7580 oh        1 PUG     -0.340000
     16 C12         0.2270   -0.4300   -2.2670 c3        1 PUG     -0.002000
     17 O21        -0.9080   -0.0740   -3.0520 oh        1 PUG     -0.340000
     18 C13         0.7810   -1.7530   -2.7540 c3        1 PUG      0.002000
     19 O23         1.9210   -2.0900   -2.0020 oh        1 PUG     -0.327000
     20 C14         1.1530   -1.6330   -4.1960 c3        1 PUG     -0.062000
     21 O26         1.8100   -2.7960   -4.6090 oh        1 PUG     -0.332000
     22 H3         -2.0500    2.4350    5.3700 hn        1 PUG      0.284500
     23 H1         -2.2440    2.0730    1.4550 hn        1 PUG      0.284500
     24 H5          1.7500   -0.0090    3.7400 DU        1 PUG      0.258000
     25 H101        0.5540    1.3550   -0.5780 ha        1 PUG      0.119000
     26 H102       -1.0260    1.2660   -0.3130 ha        1 PUG      0.119000
     27 H11         0.4400   -1.1490   -0.3670 h1        1 PUG      0.161000
     28 H19        -1.4450   -1.9350   -0.4510 ho        1 PUG      0.223000
     29 H12         0.9070    0.2570   -2.3530 h1        1 PUG      0.109000
     30 H21        -0.7330    0.6580   -3.5060 ho        1 PUG      0.215000
     31 H13         0.0980   -2.4550   -2.6480 h1        1 PUG      0.112000
     32 H23         2.1160   -2.9630   -2.1290 ho        1 PUG      0.230000
     33 H141        0.3450   -1.5090   -4.7310 h1        1 PUG      0.073500
     34 H142        1.7440   -0.8660   -4.3160 h1        1 PUG      0.073500
     35 H26         2.0490   -2.7130   -5.4540 ho        1 PUG      0.213000
@<TRIPOS>BOND
     1    1    2 1   
     2    2    6 1   
     3    3    4 1   
     4    3   22 1   
     5    4    5 1   
     6    6   23 1   
     7    7    8 1   
     8    9   11 1   
     9   10   11 1   
    10   11   12 1   
    11   13   14 1   
    12   13   25 1   
    13   13   26 1   
    14   14   15 1   
    15   14   16 1   
    16   14   27 1   
    17   15   28 1   
    18   16   17 1   
    19   16   18 1   
    20   16   29 1   
    21   17   30 1   
    22   18   19 1   
    23   18   20 1   
    24   18   31 1   
    25   19   32 1   
    26   20   21 1   
    27   20   33 1   
    28   20   34 1   
    29   21   35 1   
@<TRIPOS>SUBSTRUCTURE
     1 PUG         1 TEMP              0 ****  ****    0 ROOT
