@<TRIPOS>MOLECULE
PUK
   43    44     1     0     0
SMALL
bcc


@<TRIPOS>ATOM
      1 N           1.5840    1.4000   -0.3680 n3        1 PUK     -0.906800
      2 C1          1.5860    0.0100    0.0540 c3        1 PUK      0.160500
      3 C2          0.2490   -0.4990    0.6630 c3        1 PUK      0.110800
      4 C3          2.6830   -0.2730    1.0980 c3        1 PUK     -0.037100
      5 C4          4.0510   -0.1760    0.5240 ca        1 PUK     -0.050300
      6 C5          4.7080    1.0590    0.4500 ca        1 PUK     -0.120000
      7 C6          4.7050   -1.3250    0.0600 ca        1 PUK     -0.120000
      8 C7          5.9970    1.1410   -0.0730 ca        1 PUK     -0.139000
      9 C8          5.9940   -1.2400   -0.4620 ca        1 PUK     -0.139000
     10 C9          6.6440   -0.0090   -0.5270 ca        1 PUK     -0.147000
     11 N2         -0.8830   -0.2570   -0.2040 n3        1 PUK     -0.800200
     12 C10        -2.0600   -1.0490    0.1390 c3        1 PUK      0.052500
     13 C          -1.8460   -2.5900   -0.0820 c         1 PUK      0.929600
     14 O          -1.0930   -3.1850    0.7390 o         1 PUK     -0.833300
     15 C12        -3.2920   -0.6100   -0.6660 c3        1 PUK     -0.041100
     16 C13        -3.7120    0.7840   -0.3640 ca        1 PUK     -0.050300
     17 C14        -3.2720    1.8510   -1.1580 ca        1 PUK     -0.137500
     18 C15        -4.5590    1.0520    0.7210 ca        1 PUK     -0.137500
     19 C16        -3.6710    3.1560   -0.8760 ca        1 PUK     -0.138000
     20 C17        -4.9570    2.3570    1.0020 ca        1 PUK     -0.138000
     21 C18        -4.5150    3.4130    0.2040 ca        1 PUK     -0.157000
     22 OXT        -2.4730   -3.1480   -1.0200 o         1 PUK     -0.833300
     23 H           1.0360    1.4950   -1.2010 hn        1 PUK      0.339300
     24 H1          1.8100   -0.6160   -0.8610 h1        1 PUK      0.074700
     25 H3          0.3380   -1.6160    0.8240 h1        1 PUK      0.056200
     26 H4          0.1220   -0.0180    1.6780 h1        1 PUK      0.056200
     27 H5          2.5820    0.4390    1.9590 hc        1 PUK      0.050700
     28 H6          2.5140   -1.3100    1.4970 hc        1 PUK      0.050700
     29 H7          4.1890    1.9680    0.7890 ha        1 PUK      0.137500
     30 H8          4.1910   -2.2970    0.1040 ha        1 PUK      0.137500
     31 H9          6.5030    2.1150   -0.1320 ha        1 PUK      0.118500
     32 H10         6.4970   -2.1480   -0.8250 ha        1 PUK      0.118500
     33 H11         7.6610    0.0570   -0.9390 ha        1 PUK      0.115000
     34 H12        -1.1310    0.7180   -0.1720 hn        1 PUK      0.316800
     35 H13        -2.3100   -0.9260    1.2390 h1        1 PUK      0.002700
     36 H14        -3.0740   -0.7330   -1.7600 hc        1 PUK      0.071700
     37 H15        -4.1180   -1.3280   -0.4160 hc        1 PUK      0.071700
     38 H16        -2.6040    1.6480   -2.0090 ha        1 PUK      0.136500
     39 H17        -4.9030    0.2200    1.3520 ha        1 PUK      0.136500
     40 H18        -3.3190    3.9850   -1.5060 ha        1 PUK      0.115000
     41 H19        -5.6210    2.5560    1.8550 ha        1 PUK      0.115000
     42 H20        -4.8300    4.4420    0.4260 ha        1 PUK      0.113000
     43 H2          1.1730    1.9730    0.3440 hn        1 PUK      0.339300
@<TRIPOS>BOND
     1    1    2 1   
     2    1   23 1   
     3    1   43 1   
     4    2    3 1   
     5    2    4 1   
     6    2   24 1   
     7    3   11 1   
     8    3   25 1   
     9    3   26 1   
    10    4    5 1   
    11    4   27 1   
    12    4   28 1   
    13    5    6 ar  
    14    5    7 ar  
    15    6    8 ar  
    16    6   29 1   
    17    7    9 ar  
    18    7   30 1   
    19    8   10 ar  
    20    8   31 1   
    21    9   10 ar  
    22    9   32 1   
    23   10   33 1   
    24   11   12 1   
    25   11   34 1   
    26   12   13 1   
    27   12   15 1   
    28   12   35 1   
    29   13   14 1   
    30   13   22 1   
    31   15   16 1   
    32   15   36 1   
    33   15   37 1   
    34   16   17 ar  
    35   16   18 ar  
    36   17   19 ar  
    37   17   38 1   
    38   18   20 ar  
    39   18   39 1   
    40   19   21 ar  
    41   19   40 1   
    42   20   21 ar  
    43   20   41 1   
    44   21   42 1   
@<TRIPOS>SUBSTRUCTURE
     1 PUK         1 TEMP              0 ****  ****    0 ROOT
