@<TRIPOS>MOLECULE
PUN
   50    49     1     0     0
SMALL
bcc


@<TRIPOS>ATOM
      1 C           0.2570    0.2970    0.2090 c3        1 PUN     -0.066700
      2 C1          1.7080    0.6970    0.3990 c3        1 PUN     -0.090600
      3 C2         -0.4840    0.4240    1.5260 c3        1 PUN     -0.090600
      4 C3         -0.4120    1.1470   -0.8650 c3        1 PUN     -0.074400
      5 C4         -0.6060    0.4780   -2.2430 c3        1 PUN     -0.040000
      6 C5          0.7270   -0.0620   -2.7360 c3        1 PUN     -0.087600
      7 C6         -1.6000   -0.6600   -2.0990 c3        1 PUN     -0.087600
      8 C7         -1.1170    1.6080   -3.1560 c3        1 PUN     -0.068400
      9 C8         -1.7220    1.3750   -4.5570 c3        1 PUN     -0.033000
     10 C9         -0.9300    0.3500   -5.3490 c3        1 PUN     -0.089600
     11 C10        -3.1650    0.9220   -4.4310 c3        1 PUN     -0.089600
     12 C11        -1.6240    2.7520   -5.2510 c3        1 PUN     -0.065400
     13 C12        -2.4850    3.1450   -6.4560 c3        1 PUN     -0.047000
     14 C13        -3.9350    3.3990   -6.0670 c3        1 PUN     -0.087433
     15 C14        -1.9090    4.4700   -6.9740 c3        1 PUN     -0.087433
     16 C15        -2.4320    2.1450   -7.5970 c3        1 PUN     -0.087433
     17 H           0.2310   -0.7870   -0.0950 hc        1 PUN      0.049700
     18 H1          2.2580    0.6460   -0.5720 hc        1 PUN      0.032700
     19 H1A         2.2050    0.0130    1.1280 hc        1 PUN      0.032700
     20 H1B         1.7790    1.7410    0.7900 hc        1 PUN      0.032700
     21 H2         -0.5150    1.4890    1.8590 hc        1 PUN      0.032700
     22 H2A         0.0270   -0.1780    2.3160 hc        1 PUN      0.032700
     23 H2B        -1.5320    0.0550    1.4210 hc        1 PUN      0.032700
     24 H3         -1.4260    1.4640   -0.5000 hc        1 PUN      0.039700
     25 H3A         0.1910    2.0840   -1.0120 hc        1 PUN      0.039700
     26 H5          1.1900   -0.7270   -1.9660 hc        1 PUN      0.034867
     27 H5A         0.6000   -0.6680   -3.6640 hc        1 PUN      0.034867
     28 H5B         1.4330    0.7760   -2.9480 hc        1 PUN      0.034867
     29 H6         -1.2470   -1.3940   -1.3340 hc        1 PUN      0.034867
     30 H6A        -2.5940   -0.2680   -1.7730 hc        1 PUN      0.034867
     31 H6B        -1.7210   -1.2080   -3.0630 hc        1 PUN      0.034867
     32 H7         -1.9020    2.1680   -2.5750 hc        1 PUN      0.035700
     33 H7A        -0.2410    2.3040   -3.2860 hc        1 PUN      0.035700
     34 H9          0.1550    0.6150   -5.3490 hc        1 PUN      0.035367
     35 H9A        -1.2800    0.3070   -6.4080 hc        1 PUN      0.035367
     36 H9B        -1.0580   -0.6690   -4.9110 hc        1 PUN      0.035367
     37 H10        -3.5850    0.6770   -5.4360 hc        1 PUN      0.035367
     38 H10A       -3.7840    1.7260   -3.9650 hc        1 PUN      0.035367
     39 H10B       -3.2470    0.0050   -3.8010 hc        1 PUN      0.035367
     40 H11        -0.5490    2.8680   -5.5630 hc        1 PUN      0.036200
     41 H11A       -1.8270    3.5370   -4.4690 hc        1 PUN      0.036200
     42 H13        -3.9920    3.9370   -5.0910 hc        1 PUN      0.033700
     43 H13A       -4.5080    2.4460   -5.9850 hc        1 PUN      0.033700
     44 H13B       -4.4340    4.0280   -6.8460 hc        1 PUN      0.033700
     45 H14        -0.8500    4.3340   -7.2990 hc        1 PUN      0.033700
     46 H14A       -2.5020    4.8330   -7.8470 hc        1 PUN      0.033700
     47 H14B       -1.9420    5.2450   -6.1730 hc        1 PUN      0.033700
     48 H15        -2.9540    2.5650   -8.4930 hc        1 PUN      0.033700
     49 H15A       -1.3730    1.9280   -7.8760 hc        1 PUN      0.033700
     50 H15B       -2.9390    1.1900   -7.3210 hc        1 PUN      0.033700
@<TRIPOS>BOND
     1    1    2 1   
     2    1    3 1   
     3    1    4 1   
     4    1   17 1   
     5    2   18 1   
     6    2   19 1   
     7    2   20 1   
     8    3   21 1   
     9    3   22 1   
    10    3   23 1   
    11    4    5 1   
    12    4   24 1   
    13    4   25 1   
    14    5    6 1   
    15    5    7 1   
    16    5    8 1   
    17    6   26 1   
    18    6   27 1   
    19    6   28 1   
    20    7   29 1   
    21    7   30 1   
    22    7   31 1   
    23    8    9 1   
    24    8   32 1   
    25    8   33 1   
    26    9   10 1   
    27    9   11 1   
    28    9   12 1   
    29   10   34 1   
    30   10   35 1   
    31   10   36 1   
    32   11   37 1   
    33   11   38 1   
    34   11   39 1   
    35   12   13 1   
    36   12   40 1   
    37   12   41 1   
    38   13   14 1   
    39   13   15 1   
    40   13   16 1   
    41   14   42 1   
    42   14   43 1   
    43   14   44 1   
    44   15   45 1   
    45   15   46 1   
    46   15   47 1   
    47   16   48 1   
    48   16   49 1   
    49   16   50 1   
@<TRIPOS>SUBSTRUCTURE
     1 PUN         1 TEMP              0 ****  ****    0 ROOT
