@<TRIPOS>MOLECULE
PUP
   52    54     1     0     0
SMALL
bcc


@<TRIPOS>ATOM
      1 N01        -1.1560    0.9420   -0.1780 n         1 PUP     -0.344000
      2 N           0.2250    1.4640    1.7480 ns        1 PUP     -0.601500
      3 C01        -4.5250    0.7790   -2.5830 c3        1 PUP      0.154400
      4 C02        -3.0910    0.5980   -3.0800 c3        1 PUP      0.091100
      5 C03        -2.6770   -0.9040   -3.0300 c3        1 PUP      0.180100
      6 C04        -1.7740   -0.9650   -1.7570 c3        1 PUP      0.106100
      7 C05        -1.2640    0.5000   -1.5850 c3        1 PUP      0.270500
      8 C06         0.1240    1.1930    0.3650 c         1 PUP      0.807500
      9 C07        -0.8940    1.5720    2.5910 c         1 PUP      0.722700
     10 C08        -2.1850    1.4010    1.9520 cc        1 PUP     -0.396200
     11 C09        -2.2700    1.1050    0.6160 cd        1 PUP      0.115600
     12 C10        -7.3500    6.2490   -0.4690 c3        1 PUP      0.154400
     13 C11        -5.9380    6.3830   -1.0470 c3        1 PUP      0.074100
     14 C12        -4.9720    5.2440   -0.6280 c3        1 PUP      0.163100
     15 C13        -3.6550    5.9740   -0.2540 c3        1 PUP      0.113100
     16 C          -4.0390    7.4570   -0.1500 c3        1 PUP      0.118400
     17 O01        -4.9940    2.0930   -2.7710 os        1 PUP     -0.574200
     18 O02        -2.1720    1.3630   -2.2730 os        1 PUP     -0.438600
     19 O03        -1.9990   -1.2550   -4.1590 os        1 PUP     -0.548200
     20 O04        -0.6760   -1.8230   -1.8340 oh        1 PUP     -0.659800
     21 O05         1.1830    1.2010   -0.3060 o         1 PUP     -0.669500
     22 O06        -0.6930    1.8090    3.8060 o         1 PUP     -0.719500
     23 O07        -1.4470   -3.6170   -3.8850 o         1 PUP     -0.916833
     24 O08        -3.8340   -2.9780   -4.4910 o         1 PUP     -0.916833
     25 O09        -1.9770   -2.7570   -6.2410 o         1 PUP     -0.916833
     26 O10        -5.0610    2.2790   -0.2200 o         1 PUP     -0.854000
     27 O11        -6.9720    3.2870   -1.6540 o         1 PUP     -0.854000
     28 O12        -8.2880    5.9110   -1.4640 oh        1 PUP     -0.652800
     29 O13        -5.3940    7.6260   -0.5640 os        1 PUP     -0.452600
     30 O14        -4.7470    4.3440   -1.6540 os        1 PUP     -0.550200
     31 O          -2.6210    5.8550   -1.2080 oh        1 PUP     -0.625800
     32 P01        -2.3690   -2.8430   -4.7980 p5        1 PUP      1.313900
     33 P          -5.5580    2.8830   -1.4740 p5        1 PUP      1.455800
     34 H1          1.1380    1.6000    2.1130 hn        1 PUP      0.318500
     35 H2         -4.6000    0.4940   -1.4970 h1        1 PUP      0.048200
     36 H3         -5.1750    0.0980   -3.2060 h1        1 PUP      0.048200
     37 H4         -2.9790    1.0120   -4.1170 h1        1 PUP      0.087700
     38 H5         -3.5800   -1.5680   -2.8850 h1        1 PUP      0.086700
     39 H6         -2.3960   -1.2660   -0.8680 h1        1 PUP      0.013700
     40 H7         -0.2440    0.6280   -2.0530 h2        1 PUP      0.107700
     41 H8         -3.0830    1.5440    2.5600 ha        1 PUP      0.168000
     42 H9         -3.2590    1.0100    0.1030 h4        1 PUP      0.240000
     43 H10        -7.6910    7.2420   -0.0690 h1        1 PUP      0.029700
     44 H11        -7.3690    5.4890    0.3560 h1        1 PUP      0.029700
     45 H13        -5.3670    4.7060    0.2820 h1        1 PUP      0.054700
     46 H14        -3.2600    5.5890    0.7240 h1        1 PUP      0.047700
     47 H16        -3.4000    8.0910   -0.8170 h1        1 PUP      0.029200
     48 H17        -0.7780   -2.3700   -2.6650 ho        1 PUP      0.506000
     49 H21        -8.0760    5.0100   -1.7710 ho        1 PUP      0.473000
     50 H22        -2.8100    5.0810   -1.7630 ho        1 PUP      0.454000
     51 H12        -5.9850    6.4490   -2.1680 h1        1 PUP      0.078700
     52 H15        -3.9760    7.8260    0.9060 h1        1 PUP      0.029200
@<TRIPOS>BOND
     1    1    7 1   
     2    1    8 1   
     3    1   11 1   
     4    2    8 1   
     5    2    9 1   
     6    2   34 1   
     7    3    4 1   
     8    3   17 1   
     9    3   35 1   
    10    3   36 1   
    11    4    5 1   
    12    4   18 1   
    13    4   37 1   
    14    5    6 1   
    15    5   19 1   
    16    5   38 1   
    17    6    7 1   
    18    6   20 1   
    19    6   39 1   
    20    7   18 1   
    21    7   40 1   
    22    8   21 2   
    23    9   10 1   
    24    9   22 2   
    25   10   11 2   
    26   10   41 1   
    27   11   42 1   
    28   12   13 1   
    29   12   28 1   
    30   12   43 1   
    31   12   44 1   
    32   13   14 1   
    33   13   29 1   
    34   13   51 1   
    35   14   15 1   
    36   14   30 1   
    37   14   45 1   
    38   15   16 1   
    39   15   31 1   
    40   15   46 1   
    41   16   29 1   
    42   16   47 1   
    43   16   52 1   
    44   17   33 1   
    45   19   32 1   
    46   20   48 1   
    47   23   32 1   
    48   24   32 1   
    49   25   32 1   
    50   26   33 1   
    51   27   33 1   
    52   28   49 1   
    53   30   33 1   
    54   31   50 1   
@<TRIPOS>SUBSTRUCTURE
     1 PUP         1 TEMP              0 ****  ****    0 ROOT
