@<TRIPOS>MOLECULE
PUR
   31    33     1     0     0
SMALL
bcc


@<TRIPOS>ATOM
      1 N1         -0.4370    0.6120    0.6290 nb        1 PUR     -0.645000
      2 C2          0.8980    0.8980    0.4760 ca        1 PUR      0.682900
      3 N3          1.9070    0.6970    1.3600 nb        1 PUR     -0.634000
      4 C4          1.4940    0.1350    2.5280 ca        1 PUR      0.445800
      5 C5          0.1030   -0.2110    2.7970 ca        1 PUR     -0.325800
      6 C6         -0.8430    0.0610    1.7760 ca        1 PUR      0.504200
      7 N7          0.0600   -0.7690    4.0840 na        1 PUR     -0.196200
      8 C8          1.3360   -0.7760    4.5880 cc        1 PUR      0.348700
      9 N9          2.2260   -0.2340    3.6890 na        1 PUR     -0.220000
     10 C1'         3.6900   -0.1750    3.8330 c3        1 PUR      0.204800
     11 C2'         4.2830    1.2710    3.7450 c3        1 PUR      0.096100
     12 O2'         5.2940    1.3090    2.7780 oh        1 PUR     -0.554800
     13 C3'         4.8140    1.5610    5.1720 c3        1 PUR      0.089100
     14 O3'         6.2200    1.6920    5.1450 oh        1 PUR     -0.580800
     15 C4'         4.4950    0.3050    6.0010 c3        1 PUR      0.080100
     16 O4'         4.0480   -0.7210    5.0900 os        1 PUR     -0.397600
     17 C5'         3.4190    0.5600    7.0580 c3        1 PUR      0.109400
     18 O5'         2.6630   -0.6090    7.3030 oh        1 PUR     -0.619800
     19 H2          1.1910    1.3550   -0.4990 h5        1 PUR      0.101100
     20 H6         -1.9210   -0.1650    1.8870 h4        1 PUR      0.069100
     21 HN7        -0.7540   -1.1050    4.5490 hn        1 PUR      0.362700
     22 H8          1.6370   -1.1530    5.5980 h5        1 PUR      0.169800
     23 H1'         4.1250   -0.8560    3.0370 h2        1 PUR      0.142700
     24 H2'         3.5290    2.0310    3.4060 h1        1 PUR      0.115700
     25 HO2'        6.0710    0.8350    3.1210 ho        1 PUR      0.434000
     26 H3'         4.3330    2.4790    5.6010 h1        1 PUR      0.080700
     27 HO3'        6.4230    2.5610    4.7700 ho        1 PUR      0.437000
     28 H4'         5.4280   -0.1240    6.4660 h1        1 PUR      0.127700
     29 H5'1        3.9040    0.9280    8.0010 h1        1 PUR      0.071200
     30 H5'2        2.6630    1.3140    6.7090 h1        1 PUR      0.071200
     31 HO5'        3.2540   -1.2670    7.6920 ho        1 PUR      0.431000
@<TRIPOS>BOND
     1    1    2 ar  
     2    1    6 ar  
     3    2    3 ar  
     4    2   19 1   
     5    3    4 ar  
     6    4    5 ar  
     7    4    9 1   
     8    5    6 ar  
     9    5    7 1   
    10    6   20 1   
    11    7    8 2   
    12    7   21 1   
    13    8    9 1   
    14    8   22 1   
    15    9   10 1   
    16   10   11 1   
    17   10   16 1   
    18   10   23 1   
    19   11   12 1   
    20   11   13 1   
    21   11   24 1   
    22   12   25 1   
    23   13   14 1   
    24   13   15 1   
    25   13   26 1   
    26   14   27 1   
    27   15   16 1   
    28   15   17 1   
    29   15   28 1   
    30   17   18 1   
    31   17   29 1   
    32   17   30 1   
    33   18   31 1   
@<TRIPOS>SUBSTRUCTURE
     1 PUR         1 TEMP              0 ****  ****    0 ROOT
