@<TRIPOS>MOLECULE
PUR
   31    33     1     0     0
SMALL
bcc


@<TRIPOS>ATOM
      1 N1         -4.3460   -0.0190   -0.6440 nb        1 PUR     -0.645000
      2 C2         -3.5840   -1.1270   -0.3600 ca        1 PUR      0.682900
      3 N3         -2.2710   -1.1770   -0.0230 nb        1 PUR     -0.634000
      4 C4         -1.6810    0.0470    0.0280 ca        1 PUR      0.445800
      5 C5         -2.3960    1.2870   -0.2540 ca        1 PUR     -0.325800
      6 C6         -3.7680    1.1830   -0.5950 ca        1 PUR      0.504200
      7 N7         -1.4750    2.3360   -0.0960 na        1 PUR     -0.196200
      8 C8         -0.2680    1.7920    0.2630 cc        1 PUR      0.348700
      9 N9         -0.3460    0.4210    0.3400 na        1 PUR     -0.220000
     10 C1'         0.7130   -0.4920    0.8010 c3        1 PUR      0.204800
     11 C2'         1.1120   -1.5880   -0.2430 c3        1 PUR      0.096100
     12 O2'         1.0320   -2.8550    0.3460 oh        1 PUR     -0.554800
     13 C3'         2.5580   -1.2170   -0.6630 c3        1 PUR      0.089100
     14 O3'         3.4540   -2.2260   -0.2440 oh        1 PUR     -0.580800
     15 C4'         2.9110    0.0540    0.1290 c3        1 PUR      0.080100
     16 O4'         1.8710    0.2660    1.1050 os        1 PUR     -0.397600
     17 C5'         3.0350    1.2860   -0.7680 c3        1 PUR      0.109400
     18 O5'         2.6650    2.4590   -0.0720 oh        1 PUR     -0.619800
     19 H2         -4.1110   -2.1090   -0.4110 h5        1 PUR      0.101100
     20 H6         -4.3940    2.0670   -0.8260 h4        1 PUR      0.069100
     21 HN7        -1.6670    3.3050   -0.2200 hn        1 PUR      0.362700
     22 H8          0.6730    2.3650    0.4570 h5        1 PUR      0.169800
     23 H1'         0.3500   -0.9510    1.7720 h2        1 PUR      0.142700
     24 H2'         0.4110   -1.6310   -1.1200 h1        1 PUR      0.115700
     25 HO2'        1.7680   -2.9520    0.9740 ho        1 PUR      0.434000
     26 H3'         2.6270   -1.0530   -1.7700 h1        1 PUR      0.080700
     27 HO3'        3.3500   -2.9750   -0.8480 ho        1 PUR      0.437000
     28 H4'         3.8430   -0.0960    0.7460 h1        1 PUR      0.127700
     29 H5'1        2.3240    1.2410   -1.6370 h1        1 PUR      0.071200
     30 H5'2        4.0870    1.3620   -1.1520 h1        1 PUR      0.071200
     31 HO5'        3.3060    2.5950    0.6390 ho        1 PUR      0.431000
@<TRIPOS>BOND
     1    1    2 ar  
     2    1    6 ar  
     3    2    3 ar  
     4    2   19 1   
     5    3    4 ar  
     6    4    5 ar  
     7    4    9 1   
     8    5    6 ar  
     9    5    7 1   
    10    6   20 1   
    11    7    8 2   
    12    7   21 1   
    13    8    9 1   
    14    8   22 1   
    15    9   10 1   
    16   10   11 1   
    17   10   16 1   
    18   10   23 1   
    19   11   12 1   
    20   11   13 1   
    21   11   24 1   
    22   12   25 1   
    23   13   14 1   
    24   13   15 1   
    25   13   26 1   
    26   14   27 1   
    27   15   16 1   
    28   15   17 1   
    29   15   28 1   
    30   17   18 1   
    31   17   29 1   
    32   17   30 1   
    33   18   31 1   
@<TRIPOS>SUBSTRUCTURE
     1 PUR         1 TEMP              0 ****  ****    0 ROOT
