@<TRIPOS>MOLECULE
PUR
   31    33     1     0     0
SMALL
bcc


@<TRIPOS>ATOM
      1 N1         -0.3920    0.5080    0.5860 nb        1 PUR     -0.645000
      2 C2          0.9470    0.7820    0.4400 ca        1 PUR      0.682900
      3 N3          1.9430    0.6050    1.3410 nb        1 PUR     -0.634000
      4 C4          1.5140    0.0860    2.5230 ca        1 PUR      0.445800
      5 C5          0.1170   -0.2430    2.7870 ca        1 PUR     -0.325800
      6 C6         -0.8150   -0.0000    1.7460 ca        1 PUR      0.504200
      7 N7          0.0560   -0.7560    4.0920 na        1 PUR     -0.196200
      8 C8          1.3270   -0.7530    4.6110 cc        1 PUR      0.348700
      9 N9          2.2290   -0.2470    3.7040 na        1 PUR     -0.220000
     10 C1'         3.6920   -0.1920    3.8640 c3        1 PUR      0.204800
     11 C2'         4.2950    1.2470    3.7330 c3        1 PUR      0.096100
     12 O2'         5.3180    1.2460    2.7780 oh        1 PUR     -0.554800
     13 C3'         4.8100    1.5840    5.1560 c3        1 PUR      0.089100
     14 O3'         6.2180    1.7060    5.1410 oh        1 PUR     -0.580800
     15 C4'         4.4740    0.3600    6.0240 c3        1 PUR      0.080100
     16 O4'         4.0320   -0.6950    5.1440 os        1 PUR     -0.397600
     17 C5'         3.3880    0.6560    7.0580 c3        1 PUR      0.109400
     18 O5'         2.6220   -0.4990    7.3340 oh        1 PUR     -0.619800
     19 H2          1.2540    1.2030   -0.5480 h5        1 PUR      0.101100
     20 H6         -1.8960   -0.2170    1.8520 h4        1 PUR      0.069100
     21 HN7        -0.7650   -1.0710    4.5590 hn        1 PUR      0.362700
     22 H8          1.6130   -1.0960    5.6370 h5        1 PUR      0.169800
     23 H1'         4.1320   -0.9020    3.0980 h2        1 PUR      0.142700
     24 H2'         3.5500    2.0000    3.3600 h1        1 PUR      0.115700
     25 HO2'        6.0870    0.7800    3.1470 ho        1 PUR      0.434000
     26 H3'         4.3300    2.5190    5.5470 h1        1 PUR      0.080700
     27 HO3'        6.4310    2.5600    4.7390 ho        1 PUR      0.437000
     28 H4'         5.3990   -0.0590    6.5140 h1        1 PUR      0.127700
     29 H5'1        2.6410    1.4020    6.6740 h1        1 PUR      0.071200
     30 H5'2        3.8640    1.0550    7.9930 h1        1 PUR      0.071200
     31 HO5'        3.2040   -1.1460    7.7540 ho        1 PUR      0.431000
@<TRIPOS>BOND
     1    1    2 ar  
     2    1    6 ar  
     3    2    3 ar  
     4    2   19 1   
     5    3    4 ar  
     6    4    5 ar  
     7    4    9 1   
     8    5    6 ar  
     9    5    7 1   
    10    6   20 1   
    11    7    8 2   
    12    7   21 1   
    13    8    9 1   
    14    8   22 1   
    15    9   10 1   
    16   10   11 1   
    17   10   16 1   
    18   10   23 1   
    19   11   12 1   
    20   11   13 1   
    21   11   24 1   
    22   12   25 1   
    23   13   14 1   
    24   13   15 1   
    25   13   26 1   
    26   14   27 1   
    27   15   16 1   
    28   15   17 1   
    29   15   28 1   
    30   17   18 1   
    31   17   29 1   
    32   17   30 1   
    33   18   31 1   
@<TRIPOS>SUBSTRUCTURE
     1 PUR         1 TEMP              0 ****  ****    0 ROOT
