@<TRIPOS>MOLECULE
PUS
   42    42     1     0     0
SMALL
bcc


@<TRIPOS>ATOM
      1 N           0.0000    0.0000    0.0000 n2        1 PUS     -0.259900
      2 CA          1.4660    0.0000    0.0000 c3        1 PUS     -0.367500
      3 CB          1.9750    1.2490   -0.7220 c3        1 PUS      0.240400
      4 OG          1.5970    2.4130    0.0170 os        1 PUS     -0.325100
      5 ND          2.0230    3.6300   -0.5690 ny        1 PUS      0.559700
      6 CE          1.7320    4.8030    0.0280 c         1 PUS     -0.408900
      7 NZ2         2.1370    5.9610   -0.5300 nz        1 PUS      0.327600
      8 OZ1         1.1040    4.8160    1.0680 o         1 PUS     -0.682100
      9 C           1.9680    0.0000    1.4210 c         1 PUS      1.006600
     10 O           3.2880    0.0000    1.6650 o         1 PUS     -0.854300
     11 OT          1.1830   -0.0000    2.3390 o         1 PUS     -0.854300
     12 C2         -4.2310   -0.0640   -0.0370 ca        1 PUS      0.328600
     13 C3         -2.9310   -0.0670   -0.5140 ca        1 PUS     -0.041200
     14 C4         -2.1000   -1.0920   -0.2090 ca        1 PUS     -0.031900
     15 C5         -2.5430   -2.1130    0.5640 ca        1 PUS     -0.124600
     16 C6         -3.8440   -2.1070    1.0400 ca        1 PUS      0.425200
     17 C4A        -0.6470   -0.9700   -0.5600 ce        1 PUS      0.244800
     18 C5A        -1.5540   -3.1410    1.1110 c3        1 PUS      0.342700
     19 N1         -4.6710   -1.0830    0.7340 nb        1 PUS     -0.555000
     20 O4P        -2.0250   -3.6380    2.3300 os        1 PUS     -0.490200
     21 P          -1.7080   -5.2100    2.7130 p5        1 PUS      0.926900
     22 H1          0.3830    0.0180    0.0110 h1        1 PUS      0.214700
     23 H2          2.9200    1.0290   -1.2030 h1        1 PUS     -0.007300
     24 H3          1.2530    1.5550   -1.4690 h1        1 PUS     -0.007300
     25 H4          1.7690    3.6410   -1.5360 hn        1 PUS      0.111300
     26 H5          2.0310    6.7050    0.1320 hn        1 PUS      0.138800
     27 H6          3.1000    5.8850   -0.7940 hn        1 PUS      0.138800
     28 H8         -4.1960   -2.9180    1.6660 h4        1 PUS      0.020100
     29 H9         -4.7490    2.0170   -0.0960 hc        1 PUS      0.010367
     30 H10        -5.3270    1.0820   -1.4820 hc        1 PUS      0.010367
     31 H11        -6.1300    0.9280    0.0860 hc        1 PUS      0.010367
     32 H12        -1.7300   -0.9730   -0.5630 h4        1 PUS     -0.005200
     33 H13        -0.5900   -2.6710    1.2600 h1        1 PUS      0.019700
     34 H14        -1.4530   -3.9560    0.4040 h1        1 PUS      0.019700
     35 H15        -2.7430    0.8540   -2.2030 ho        1 PUS      0.399000
     36 O3         -2.4750    0.9930   -1.3100 oh        1 PUS     -0.490100
     37 HD2         3.0220    3.6880   -0.5280 hn        1 PUS      0.111300
     38 HZ23        1.5540    6.1770   -1.3140 hn        1 PUS      0.138800
     39 C2A        -5.1780    1.0730   -0.4090 c3        1 PUS     -0.024400
     40 O1P        -2.0330   -5.4500    4.1670 o         1 PUS     -0.406167
     41 O2P        -0.2470   -5.5040    2.4680 o         1 PUS     -0.406167
     42 O3P        -2.5550   -6.1180    1.8520 o         1 PUS     -0.406167
@<TRIPOS>BOND
     1    1    2 1   
     2    1   17 2   
     3    2    3 1   
     4    2    9 1   
     5    2   22 1   
     6    3    4 1   
     7    3   23 1   
     8    3   24 1   
     9    4    5 1   
    10    5    6 1   
    11    5   25 1   
    12    5   37 1   
    13    6    7 1   
    14    6    8 2   
    15    7   26 1   
    16    7   27 1   
    17    7   38 1   
    18    9   10 1   
    19    9   11 1   
    20   12   13 ar  
    21   12   19 ar  
    22   12   39 1   
    23   13   14 ar  
    24   13   36 1   
    25   14   15 ar  
    26   14   17 1   
    27   15   16 ar  
    28   15   18 1   
    29   16   19 ar  
    30   16   28 1   
    31   17   32 1   
    32   18   20 1   
    33   18   33 1   
    34   18   34 1   
    35   20   21 1   
    36   21   40 1   
    37   21   41 1   
    38   21   42 1   
    39   29   39 1   
    40   30   39 1   
    41   31   39 1   
    42   35   36 1   
@<TRIPOS>SUBSTRUCTURE
     1 PUS         1 TEMP              0 ****  ****    0 ROOT
