@<TRIPOS>MOLECULE
PUT
   20    19     1     0     0
SMALL
bcc


@<TRIPOS>ATOM
      1 N2         -0.0460    0.0010   -0.0350 nz        1 PUT     -0.837600
      2 C4          1.4440    0.0000    0.0310 c3        1 PUT      0.100800
      3 C3          1.9840    0.0000    1.4600 c3        1 PUT     -0.107400
      4 C2          3.5030   -0.0010    1.4230 c3        1 PUT     -0.107400
      5 C1          4.0440   -0.0000    2.8510 c3        1 PUT      0.100800
      6 N1          5.5330   -0.0010    2.9170 nz        1 PUT     -0.837600
      7 HN21       -0.4290   -0.8330    0.4270 hn        1 PUT      0.475467
      8 HN22       -0.3480    0.0010   -1.0190 hn        1 PUT      0.475467
      9 H41         1.8090    0.9170   -0.5200 hx        1 PUT      0.123700
     10 H42         1.8080   -0.9170   -0.5200 hx        1 PUT      0.123700
     11 H31         1.6200   -0.9080    2.0130 hc        1 PUT      0.085700
     12 H32         1.6210    0.9080    2.0130 hc        1 PUT      0.085700
     13 H21         3.8660   -0.9090    0.8690 hc        1 PUT      0.085700
     14 H22         3.8670    0.9070    0.8690 hc        1 PUT      0.085700
     15 H11         3.6780   -0.9170    3.4030 hx        1 PUT      0.123700
     16 H12         3.6790    0.9170    3.4020 hx        1 PUT      0.123700
     17 HN11        5.8350   -0.0010    3.9010 hn        1 PUT      0.475467
     18 HN12        5.9170    0.8330    2.4550 hn        1 PUT      0.475467
     19 H23        -0.4290    0.8350    0.4270 hn        1 PUT      0.475467
     20 H13         5.9160   -0.8350    2.4560 hn        1 PUT      0.475467
@<TRIPOS>BOND
     1    1    2 1   
     2    1    7 1   
     3    1    8 1   
     4    1   19 1   
     5    2    3 1   
     6    2    9 1   
     7    2   10 1   
     8    3    4 1   
     9    3   11 1   
    10    3   12 1   
    11    4    5 1   
    12    4   13 1   
    13    4   14 1   
    14    5    6 1   
    15    5   15 1   
    16    5   16 1   
    17    6   17 1   
    18    6   18 1   
    19    6   20 1   
@<TRIPOS>SUBSTRUCTURE
     1 PUT         1 TEMP              0 ****  ****    0 ROOT
