@<TRIPOS>MOLECULE
PUT
   18    17     1     0     0
SMALL
bcc


@<TRIPOS>ATOM
      1 N2         -0.1850   -0.0420    3.1110 n3        1 PUT     -0.916800
      2 C4          0.5210    0.0000    1.8520 c3        1 PUT      0.159800
      3 C3         -0.4070    0.0060    0.6380 c3        1 PUT     -0.082400
      4 C2          0.4070    0.0060   -0.6380 c3        1 PUT     -0.082400
      5 C1         -0.5210    0.0010   -1.8520 c3        1 PUT      0.159800
      6 N1          0.1850   -0.0420   -3.1110 n3        1 PUT     -0.916800
      7 HN21       -0.8790    0.6760    3.1600 hn        1 PUT      0.348300
      8 HN22        0.4550    0.0660    3.8720 hn        1 PUT      0.348300
      9 H41         1.2070    0.8970    1.7710 h1        1 PUT      0.024700
     10 H42         1.1750   -0.9180    1.8040 h1        1 PUT      0.024700
     11 H31        -1.0730   -0.8960    0.6630 hc        1 PUT      0.047200
     12 H32        -1.0690    0.9120    0.6650 hc        1 PUT      0.047200
     13 H21         1.0690    0.9120   -0.6650 hc        1 PUT      0.047200
     14 H22         1.0730   -0.8960   -0.6640 hc        1 PUT      0.047200
     15 H11        -1.1750   -0.9170   -1.8040 h1        1 PUT      0.024700
     16 H12        -1.2070    0.8970   -1.7710 h1        1 PUT      0.024700
     17 HN11       -0.4550    0.0660   -3.8720 hn        1 PUT      0.348300
     18 HN12        0.8790    0.6760   -3.1600 hn        1 PUT      0.348300
@<TRIPOS>BOND
     1    1    2 1   
     2    1    7 1   
     3    1    8 1   
     4    2    3 1   
     5    2    9 1   
     6    2   10 1   
     7    3    4 1   
     8    3   11 1   
     9    3   12 1   
    10    4    5 1   
    11    4   13 1   
    12    4   14 1   
    13    5    6 1   
    14    5   15 1   
    15    5   16 1   
    16    6   17 1   
    17    6   18 1   
@<TRIPOS>SUBSTRUCTURE
     1 PUT         1 TEMP              0 ****  ****    0 ROOT
