@<TRIPOS>MOLECULE
PUW
   26    25     1     0     0
SMALL
bcc


@<TRIPOS>ATOM
      1 O3P        -2.4600    1.6390    4.5680 o         1 PUW     -0.883500
      2 P          -1.0190    2.0770    4.5720 p5        1 PUW      1.157700
      3 O1P        -0.5010    2.0960    5.9960 o         1 PUW     -0.883500
      4 O2P        -0.9120    3.4620    3.9790 o         1 PUW     -0.883500
      5 C1P        -0.0260    0.9110    3.5790 c3        1 PUW     -0.334600
      6 C1         -0.5310    0.9160    2.1250 c         1 PUW      0.708100
      7 O1         -1.5290    1.5630    1.8250 o         1 PUW     -0.785100
      8 NE          0.1880    0.1890    1.1120 n         1 PUW     -0.562900
      9 CD         -0.3560    0.0800   -0.2290 c3        1 PUW      0.080000
     10 CG          0.6730   -0.6250   -1.1470 c3        1 PUW     -0.085400
     11 CB          0.0590   -0.8380   -2.5420 c3        1 PUW     -0.114400
     12 CA          1.0920   -1.5090   -3.4590 c3        1 PUW      0.136800
     13 N           0.5290   -1.6980   -4.7540 n3        1 PUW     -0.909800
     14 H1P1       -0.1120    0.0150    3.9490 hc        1 PUW      0.061200
     15 H1P2        0.9090    1.1820    3.6000 hc        1 PUW      0.061200
     16 HE          0.9960   -0.1720    1.3020 hn        1 PUW      0.296500
     17 HD1C       -0.5470    0.9790   -0.5800 h1        1 PUW      0.025700
     18 HD2C       -1.1800   -0.4400   -0.2040 h1        1 PUW      0.025700
     19 HG1C        0.9140   -1.4960   -0.7600 hc        1 PUW      0.034200
     20 HG2C        1.4760   -0.0680   -1.2250 hc        1 PUW      0.034200
     21 HB1C       -0.1990    0.0240   -2.9180 hc        1 PUW      0.033700
     22 HB2C       -0.7320   -1.4110   -2.4670 hc        1 PUW      0.033700
     23 HA1C        1.3460   -2.3760   -3.0840 h1        1 PUW      0.046200
     24 HA2C        1.8870   -0.9380   -3.5280 h1        1 PUW      0.046200
     25 HN1         0.1230   -2.5170   -4.7930 hn        1 PUW      0.330300
     26 HN2        -0.0880   -1.0440   -4.9180 hn        1 PUW      0.330300
@<TRIPOS>BOND
     1    1    2 1   
     2    2    3 1   
     3    2    4 1   
     4    2    5 1   
     5    5    6 1   
     6    5   14 1   
     7    5   15 1   
     8    6    7 2   
     9    6    8 1   
    10    8    9 1   
    11    8   16 1   
    12    9   10 1   
    13    9   17 1   
    14    9   18 1   
    15   10   11 1   
    16   10   19 1   
    17   10   20 1   
    18   11   12 1   
    19   11   21 1   
    20   11   22 1   
    21   12   13 1   
    22   12   23 1   
    23   12   24 1   
    24   13   25 1   
    25   13   26 1   
@<TRIPOS>SUBSTRUCTURE
     1 PUW         1 TEMP              0 ****  ****    0 ROOT
