@<TRIPOS>MOLECULE
PUW
   26    25     1     0     0
SMALL
bcc


@<TRIPOS>ATOM
      1 O3P        -1.5980    1.3670    0.6240 o         1 PUW     -0.910833
      2 P          -2.8230    0.5460    0.3280 p5        1 PUW      1.185700
      3 O1P        -3.3710   -0.2840    1.4420 o         1 PUW     -0.910833
      4 O2P        -3.8230    1.1550   -0.6050 o         1 PUW     -0.910833
      5 C1P        -1.9620   -0.8190   -0.9900 c3        1 PUW     -0.347600
      6 C1         -0.5980   -1.2910   -0.8000 c         1 PUW      0.714100
      7 O1         -0.2510   -2.5010   -0.7000 o         1 PUW     -0.761100
      8 NE          0.4050   -0.2820   -0.7300 n         1 PUW     -0.568900
      9 CD          1.6600   -0.6220   -0.1220 c3        1 PUW      0.088000
     10 CG          2.7940    0.3280   -0.5300 c3        1 PUW     -0.085400
     11 CB          4.0770   -0.0680    0.1670 c3        1 PUW     -0.114400
     12 CA          5.2320    0.8380   -0.2560 c3        1 PUW      0.136800
     13 N           6.5120    0.5710    0.3620 n3        1 PUW     -0.908800
     14 H1P1       -2.6990   -1.6350   -0.9890 hc        1 PUW      0.055200
     15 H1P2       -2.0820   -0.1310   -1.8450 hc        1 PUW      0.055200
     16 HE          0.0060    0.5890   -0.3850 hn        1 PUW      0.344500
     17 HD1C        1.5980   -0.6100    1.0070 h1        1 PUW      0.020200
     18 HD2C        1.9390   -1.6710   -0.4270 h1        1 PUW      0.020200
     19 HG1C        2.9400    0.2950   -1.6400 hc        1 PUW      0.039700
     20 HG2C        2.5240    1.3810   -0.2570 hc        1 PUW      0.039700
     21 HB1C        3.9310   -0.0080    1.2770 hc        1 PUW      0.032200
     22 HB2C        4.3220   -1.1350   -0.0780 hc        1 PUW      0.032200
     23 HA1C        5.3670    0.7560   -1.3710 h1        1 PUW      0.047700
     24 HA2C        4.9560    1.9070   -0.0270 h1        1 PUW      0.047700
     25 HN1         6.4430    0.6860    1.3560 hn        1 PUW      0.329800
     26 HN2         6.7850   -0.3780    0.1860 hn        1 PUW      0.329800
@<TRIPOS>BOND
     1    1    2 1   
     2    2    3 1   
     3    2    4 1   
     4    2    5 1   
     5    5    6 1   
     6    5   14 1   
     7    5   15 1   
     8    6    7 2   
     9    6    8 1   
    10    8    9 1   
    11    8   16 1   
    12    9   10 1   
    13    9   17 1   
    14    9   18 1   
    15   10   11 1   
    16   10   19 1   
    17   10   20 1   
    18   11   12 1   
    19   11   21 1   
    20   11   22 1   
    21   12   13 1   
    22   12   23 1   
    23   12   24 1   
    24   13   25 1   
    25   13   26 1   
@<TRIPOS>SUBSTRUCTURE
     1 PUW         1 TEMP              0 ****  ****    0 ROOT
