@<TRIPOS>MOLECULE
PUX
   43    46     1     0     0
SMALL
bcc


@<TRIPOS>ATOM
      1 C18         0.4850   -0.0140   -0.3580 c3        1 PUX     -0.093100
      2 C17         1.9650    0.0410   -0.0800 c3        1 PUX     -0.079400
      3 C16         2.2450    0.0070    1.4070 c3        1 PUX     -0.103400
      4 C15         3.7560    0.0550    1.6480 c3        1 PUX      0.039300
      5 N2          4.1460    0.0260    3.0290 na        1 PUX     -0.245000
      6 C12         4.2640    1.1310    3.8810 ca        1 PUX      0.473800
      7 N4          4.1230    2.4650    3.6170 nb        1 PUX     -0.749000
      8 C14         4.3430    3.2330    4.7310 ca        1 PUX      0.898200
      9 N3          4.6690    2.8580    6.0180 nb        1 PUX     -0.813000
     10 C11         4.6060    0.5830    5.1850 ca        1 PUX     -0.242200
     11 C13         4.8080    1.5150    6.2590 ca        1 PUX      0.785200
     12 N5          5.1430    1.0670    7.5080 nh        1 PUX     -0.957500
     13 N1          4.6710   -0.8130    5.1190 nc        1 PUX     -0.543100
     14 C10         4.3830   -1.1250    3.8370 cd        1 PUX      0.402800
     15 C9          4.3240   -2.5130    3.2790 c3        1 PUX     -0.043400
     16 C1          5.5330   -2.8450    2.4730 ca        1 PUX     -0.095300
     17 C6          5.3720   -3.2010    1.1150 ca        1 PUX     -0.115000
     18 C5          6.5200   -3.5280    0.4270 ca        1 PUX      0.055100
     19 C2          6.7940   -2.8300    3.0740 ca        1 PUX     -0.113000
     20 O3          6.6550   -3.9120   -0.9040 os        1 PUX     -0.334900
     21 C3          7.9640   -3.1630    2.3670 ca        1 PUX     -0.109000
     22 C4          7.8000   -3.5090    1.0420 ca        1 PUX      0.061100
     23 O1          8.7630   -3.8810    0.1110 os        1 PUX     -0.331900
     24 C7          8.0660   -4.1410   -1.1310 c3        1 PUX      0.321200
     25 F           4.2190    4.5740    4.5460 f         1 PUX     -0.198200
     26 H181        0.0400   -0.9530    0.0530 hc        1 PUX      0.036367
     27 H182        0.2980    0.0130   -1.4580 hc        1 PUX      0.036367
     28 H183       -0.0360    0.8550    0.1110 hc        1 PUX      0.036367
     29 H171        2.4750   -0.8260   -0.5800 hc        1 PUX      0.042700
     30 H172        2.3970    0.9780   -0.5210 hc        1 PUX      0.042700
     31 H161        1.7500    0.8810    1.9050 hc        1 PUX      0.055200
     32 H162        1.8120   -0.9260    1.8530 hc        1 PUX      0.055200
     33 H151        4.1680    1.0000    1.1900 h1        1 PUX      0.074700
     34 H152        4.2400   -0.8310    1.1400 h1        1 PUX      0.074700
     35 H5N1        5.2650    1.7000    8.2590 hn        1 PUX      0.452800
     36 H5N2        5.2070    0.0920    7.6650 hn        1 PUX      0.452800
     37 H9C1        4.2390   -3.2430    4.1330 hc        1 PUX      0.078200
     38 H9C2        3.3930   -2.6150    2.6560 hc        1 PUX      0.078200
     39 H6          4.3840   -3.2230    0.6370 ha        1 PUX      0.153000
     40 H2          6.8800   -2.5450    4.1350 ha        1 PUX      0.154000
     41 H3          8.9500   -3.1460    2.8490 ha        1 PUX      0.159000
     42 H7C1        8.2130   -5.2150   -1.4040 h2        1 PUX      0.074700
     43 H7C2        8.4260   -3.4160   -1.9010 h2        1 PUX      0.074700
@<TRIPOS>BOND
     1    1    2 1   
     2    1   26 1   
     3    1   27 1   
     4    1   28 1   
     5    2    3 1   
     6    2   29 1   
     7    2   30 1   
     8    3    4 1   
     9    3   31 1   
    10    3   32 1   
    11    4    5 1   
    12    4   33 1   
    13    4   34 1   
    14    5    6 1   
    15    5   14 1   
    16    6    7 ar  
    17    6   10 ar  
    18    7    8 ar  
    19    8    9 ar  
    20    8   25 1   
    21    9   11 ar  
    22   10   11 ar  
    23   10   13 1   
    24   11   12 1   
    25   12   35 1   
    26   12   36 1   
    27   13   14 2   
    28   14   15 1   
    29   15   16 1   
    30   15   37 1   
    31   15   38 1   
    32   16   17 ar  
    33   16   19 ar  
    34   17   18 ar  
    35   17   39 1   
    36   18   20 1   
    37   18   22 ar  
    38   19   21 ar  
    39   19   40 1   
    40   20   24 1   
    41   21   22 ar  
    42   21   41 1   
    43   22   23 1   
    44   23   24 1   
    45   24   42 1   
    46   24   43 1   
@<TRIPOS>SUBSTRUCTURE
     1 PUX         1 TEMP              0 ****  ****    0 ROOT
