@<TRIPOS>MOLECULE
PUX
   43    46     1     0     0
SMALL
bcc


@<TRIPOS>ATOM
      1 C18         0.4880   -0.0060   -0.3620 c3        1 PUX     -0.093100
      2 C17         1.9680    0.0450   -0.0840 c3        1 PUX     -0.079400
      3 C16         2.2470    0.0110    1.4040 c3        1 PUX     -0.103400
      4 C15         3.7570    0.0550    1.6460 c3        1 PUX      0.039300
      5 N2          4.1460    0.0280    3.0270 na        1 PUX     -0.245000
      6 C12         4.2660    1.1340    3.8770 ca        1 PUX      0.473800
      7 N4          4.1280    2.4670    3.6110 nb        1 PUX     -0.749000
      8 C14         4.3490    3.2380    4.7230 ca        1 PUX      0.898200
      9 N3          4.6730    2.8640    6.0110 nb        1 PUX     -0.813000
     10 C11         4.6060    0.5880    5.1830 ca        1 PUX     -0.242200
     11 C13         4.8090    1.5210    6.2550 ca        1 PUX      0.785200
     12 N5          5.1420    1.0750    7.5050 nv        1 PUX     -0.957500
     13 N1          4.6680   -0.8080    5.1190 nc        1 PUX     -0.543100
     14 C10         4.3810   -1.1220    3.8380 cd        1 PUX      0.402800
     15 C9          4.3190   -2.5110    3.2820 c3        1 PUX     -0.043400
     16 C1          5.5290   -2.8470    2.4770 ca        1 PUX     -0.095300
     17 C6          5.3670   -3.2060    1.1210 ca        1 PUX     -0.115000
     18 C5          6.5150   -3.5370    0.4340 ca        1 PUX      0.055100
     19 C2          6.7890   -2.8330    3.0790 ca        1 PUX     -0.113000
     20 O3          6.6500   -3.9240   -0.8960 os        1 PUX     -0.334900
     21 C3          7.9580   -3.1690    2.3740 ca        1 PUX     -0.109000
     22 C4          7.7950   -3.5190    1.0500 ca        1 PUX      0.061100
     23 O1          8.7580   -3.8950    0.1190 os        1 PUX     -0.331900
     24 C7          8.0610   -4.1570   -1.1210 c3        1 PUX      0.321200
     25 F           4.2270    4.5780    4.5360 f         1 PUX     -0.198200
     26 H181       -0.0310    0.8650    0.1060 hc        1 PUX      0.036367
     27 H182        0.0400   -0.9430    0.0490 hc        1 PUX      0.036367
     28 H183        0.3010    0.0210   -1.4630 hc        1 PUX      0.036367
     29 H171        2.4030    0.9810   -0.5250 hc        1 PUX      0.042700
     30 H172        2.4760   -0.8230   -0.5820 hc        1 PUX      0.042700
     31 H161        1.7540    0.8880    1.9010 hc        1 PUX      0.055200
     32 H162        1.8100   -0.9200    1.8510 hc        1 PUX      0.055200
     33 H151        4.2400   -0.8330    1.1400 h1        1 PUX      0.074700
     34 H152        4.1730    0.9980    1.1860 h1        1 PUX      0.074700
     35 H5N1        5.2650    1.7090    8.2550 hn        1 PUX      0.452800
     36 H5N2        5.2030    0.1010    7.6640 hn        1 PUX      0.452800
     37 H9C1        4.2330   -3.2390    4.1370 hc        1 PUX      0.078200
     38 H9C2        3.3880   -2.6120    2.6590 hc        1 PUX      0.078200
     39 H6          4.3800   -3.2270    0.6410 ha        1 PUX      0.153000
     40 H2          6.8750   -2.5460    4.1390 ha        1 PUX      0.154000
     41 H3          8.9440   -3.1530    2.8560 ha        1 PUX      0.159000
     42 H7C1        8.4220   -3.4340   -1.8930 h2        1 PUX      0.074700
     43 H7C2        8.2060   -5.2310   -1.3920 h2        1 PUX      0.074700
@<TRIPOS>BOND
     1    1    2 1   
     2    1   26 1   
     3    1   27 1   
     4    1   28 1   
     5    2    3 1   
     6    2   29 1   
     7    2   30 1   
     8    3    4 1   
     9    3   31 1   
    10    3   32 1   
    11    4    5 1   
    12    4   33 1   
    13    4   34 1   
    14    5    6 1   
    15    5   14 1   
    16    6    7 ar  
    17    6   10 ar  
    18    7    8 ar  
    19    8    9 ar  
    20    8   25 1   
    21    9   11 ar  
    22   10   11 ar  
    23   10   13 1   
    24   11   12 1   
    25   12   35 1   
    26   12   36 1   
    27   13   14 2   
    28   14   15 1   
    29   15   16 1   
    30   15   37 1   
    31   15   38 1   
    32   16   17 ar  
    33   16   19 ar  
    34   17   18 ar  
    35   17   39 1   
    36   18   20 1   
    37   18   22 ar  
    38   19   21 ar  
    39   19   40 1   
    40   20   24 1   
    41   21   22 ar  
    42   21   41 1   
    43   22   23 1   
    44   23   24 1   
    45   24   42 1   
    46   24   43 1   
@<TRIPOS>SUBSTRUCTURE
     1 PUX         1 TEMP              0 ****  ****    0 ROOT
