@<TRIPOS>MOLECULE
PUX
   43    46     1     0     0
SMALL
bcc


@<TRIPOS>ATOM
      1 C18         5.4070    0.3650    1.0920 c3        1 PUX     -0.093100
      2 C17         4.1420   -0.3080    0.6250 c3        1 PUX     -0.079400
      3 C16         2.9160    0.3950    1.1680 c3        1 PUX     -0.103400
      4 C15         1.6540   -0.3100    0.6660 c3        1 PUX      0.039300
      5 N2          0.4210    0.2700    1.1170 na        1 PUX     -0.245000
      6 C12        -0.2410   -0.0170    2.3160 ca        1 PUX      0.473800
      7 N4          0.0540   -0.9340    3.2860 nb        1 PUX     -0.749000
      8 C14        -0.8650   -0.9170    4.3030 ca        1 PUX      0.898200
      9 N3         -1.9900   -0.1350    4.4710 nb        1 PUX     -0.813000
     10 C11        -1.3900    0.8750    2.3510 ca        1 PUX     -0.242200
     11 C13        -2.2680    0.7760    3.4840 ca        1 PUX      0.785200
     12 N5         -3.3730    1.5770    3.5740 nh        1 PUX     -0.957500
     13 N1         -1.4040    1.6870    1.2130 nc        1 PUX     -0.543100
     14 C10        -0.3170    1.3240    0.5000 cd        1 PUX      0.402800
     15 C9          0.0990    1.9240   -0.8080 c3        1 PUX     -0.043400
     16 C1         -0.2290    1.0360   -1.9610 ca        1 PUX     -0.095300
     17 C6          0.8180    0.5900   -2.7970 ca        1 PUX     -0.115000
     18 C5          0.4540   -0.2020   -3.8650 ca        1 PUX      0.055100
     19 C2         -1.5580    0.6870   -2.2130 ca        1 PUX     -0.113000
     20 O3          1.2660   -0.7740   -4.8390 os        1 PUX     -0.334900
     21 C3         -1.9250   -0.1220   -3.3020 ca        1 PUX     -0.109000
     22 C4         -0.8990   -0.5550   -4.1160 ca        1 PUX      0.061100
     23 O1         -0.9620   -1.3550   -5.2520 os        1 PUX     -0.331900
     24 C7          0.3960   -1.5100   -5.7290 c3        1 PUX      0.321200
     25 F          -0.6360   -1.8030    5.3090 f         1 PUX     -0.198200
     26 H181        6.3000   -0.1670    0.6840 hc        1 PUX      0.036367
     27 H182        5.4410    1.4270    0.7480 hc        1 PUX      0.036367
     28 H183        5.4700    0.3550    2.2070 hc        1 PUX      0.036367
     29 H171        4.1090   -0.3110   -0.4970 hc        1 PUX      0.042700
     30 H172        4.1390   -1.3790    0.9600 hc        1 PUX      0.042700
     31 H161        2.9400    0.3850    2.2900 hc        1 PUX      0.055200
     32 H162        2.9170    1.4670    0.8410 hc        1 PUX      0.055200
     33 H151        1.6440   -0.2910   -0.4640 h1        1 PUX      0.074700
     34 H152        1.6770   -1.3860    1.0060 h1        1 PUX      0.074700
     35 H5N1       -3.9730    1.5300    4.3590 hn        1 PUX      0.452800
     36 H5N2       -3.5350    2.2480    2.8650 hn        1 PUX      0.452800
     37 H9C1       -0.4330    2.9080   -0.9390 hc        1 PUX      0.078200
     38 H9C2        1.2020    2.1390   -0.7750 hc        1 PUX      0.078200
     39 H6          1.8640    0.8650   -2.6110 ha        1 PUX      0.153000
     40 H2         -2.3470    1.0530   -1.5360 ha        1 PUX      0.154000
     41 H3         -2.9720   -0.3920   -3.4900 ha        1 PUX      0.159000
     42 H7C1        0.6690   -2.5930   -5.6810 h2        1 PUX      0.074700
     43 H7C2        0.4680   -1.0610   -6.7500 h2        1 PUX      0.074700
@<TRIPOS>BOND
     1    1    2 1   
     2    1   26 1   
     3    1   27 1   
     4    1   28 1   
     5    2    3 1   
     6    2   29 1   
     7    2   30 1   
     8    3    4 1   
     9    3   31 1   
    10    3   32 1   
    11    4    5 1   
    12    4   33 1   
    13    4   34 1   
    14    5    6 1   
    15    5   14 1   
    16    6    7 ar  
    17    6   10 ar  
    18    7    8 ar  
    19    8    9 ar  
    20    8   25 1   
    21    9   11 ar  
    22   10   11 ar  
    23   10   13 1   
    24   11   12 1   
    25   12   35 1   
    26   12   36 1   
    27   13   14 2   
    28   14   15 1   
    29   15   16 1   
    30   15   37 1   
    31   15   38 1   
    32   16   17 ar  
    33   16   19 ar  
    34   17   18 ar  
    35   17   39 1   
    36   18   20 1   
    37   18   22 ar  
    38   19   21 ar  
    39   19   40 1   
    40   20   24 1   
    41   21   22 ar  
    42   21   41 1   
    43   22   23 1   
    44   23   24 1   
    45   24   42 1   
    46   24   43 1   
@<TRIPOS>SUBSTRUCTURE
     1 PUX         1 TEMP              0 ****  ****    0 ROOT
