@<TRIPOS>MOLECULE
PUX
   44    47     1     0     0
SMALL
bcc


@<TRIPOS>ATOM
      1 C18         0.4920   -0.1130   -0.3690 c3        1 PUX     -0.096100
      2 C17         1.9720   -0.0350   -0.0950 c3        1 PUX     -0.079400
      3 C16         2.2490   -0.0250    1.3960 c3        1 PUX     -0.102400
      4 C15         3.7570    0.0460    1.6290 c3        1 PUX      0.022300
      5 N2          4.1500    0.0440    3.0190 na        1 PUX     -0.231000
      6 C12         4.2850    1.1740    3.8350 ca        1 PUX      0.474800
      7 N4          4.1510    2.4920    3.5670 nb        1 PUX     -0.635000
      8 C14         4.3860    3.3020    4.6600 ca        1 PUX      0.890200
      9 N3          4.7280    2.9280    5.9470 nb        1 PUX     -0.707000
     10 C11         4.6480    0.6380    5.1690 ca        1 PUX     -0.139200
     11 C13         4.8520    1.5980    6.1700 ca        1 PUX      0.536200
     12 N5          5.2190    1.1380    7.5230 n4        1 PUX     -0.814300
     13 N1          4.7080   -0.7530    5.1270 nc        1 PUX     -0.600100
     14 C10         4.4020   -1.0850    3.8450 cd        1 PUX      0.520800
     15 C9          4.3380   -2.4920    3.3230 c3        1 PUX     -0.057400
     16 C1          5.5350   -2.8260    2.5000 ca        1 PUX     -0.125300
     17 C6          5.3540   -3.1310    1.1310 ca        1 PUX     -0.115000
     18 C5          6.4890   -3.4700    0.4260 ca        1 PUX      0.067100
     19 C2          6.7950   -2.8780    3.0970 ca        1 PUX     -0.114000
     20 O3          6.6060   -3.8100   -0.9130 os        1 PUX     -0.325900
     21 C3          7.9520   -3.2240    2.3740 ca        1 PUX     -0.112000
     22 C4          7.7730   -3.5150    1.0370 ca        1 PUX      0.083100
     23 O1          8.7170   -3.8840    0.0930 os        1 PUX     -0.320900
     24 C7          8.0070   -4.0930   -1.1550 c3        1 PUX      0.320200
     25 F           4.2670    4.6330    4.4570 f         1 PUX     -0.147200
     26 H181        0.3070   -0.1190   -1.4700 hc        1 PUX      0.044700
     27 H182        0.0560   -1.0440    0.0670 hc        1 PUX      0.044700
     28 H183       -0.0390    0.7650    0.0730 hc        1 PUX      0.044700
     29 H171        2.3930    0.8950   -0.5610 hc        1 PUX      0.049200
     30 H172        2.4900   -0.9100   -0.5690 hc        1 PUX      0.049200
     31 H161        1.8250   -0.9520    1.8640 hc        1 PUX      0.056700
     32 H162        1.7400    0.8560    1.8670 hc        1 PUX      0.056700
     33 H151        4.1620    0.9890    1.1580 h1        1 PUX      0.093700
     34 H152        4.2590   -0.8420    1.1420 h1        1 PUX      0.093700
     35 H5N1        6.1280    0.6620    7.4690 hn        1 PUX      0.479800
     36 H5N2        4.5060    0.4700    7.8430 hn        1 PUX      0.479800
     37 H9C1        3.3930   -2.6110    2.7220 hc        1 PUX      0.097200
     38 H9C2        4.2750   -3.2000    4.1970 hc        1 PUX      0.097200
     39 H6          4.3630   -3.1220    0.6580 ha        1 PUX      0.158000
     40 H2          6.8960   -2.6530    4.1700 ha        1 PUX      0.139000
     41 H3          8.9390   -3.2680    2.8530 ha        1 PUX      0.168000
     42 H7C1        8.1090   -5.1670   -1.4470 h2        1 PUX      0.088200
     43 H7C2        8.3930   -3.3650   -1.9090 h2        1 PUX      0.088200
     44 H53         5.2800    1.9260    8.1830 hn        1 PUX      0.479800
@<TRIPOS>BOND
     1    1    2 1   
     2    1   26 1   
     3    1   27 1   
     4    1   28 1   
     5    2    3 1   
     6    2   29 1   
     7    2   30 1   
     8    3    4 1   
     9    3   31 1   
    10    3   32 1   
    11    4    5 1   
    12    4   33 1   
    13    4   34 1   
    14    5    6 1   
    15    5   14 1   
    16    6    7 ar  
    17    6   10 ar  
    18    7    8 ar  
    19    8    9 ar  
    20    8   25 1   
    21    9   11 ar  
    22   10   11 ar  
    23   10   13 1   
    24   11   12 1   
    25   12   35 1   
    26   12   36 1   
    27   12   44 1   
    28   13   14 2   
    29   14   15 1   
    30   15   16 1   
    31   15   37 1   
    32   15   38 1   
    33   16   17 ar  
    34   16   19 ar  
    35   17   18 ar  
    36   17   39 1   
    37   18   20 1   
    38   18   22 ar  
    39   19   21 ar  
    40   19   40 1   
    41   20   24 1   
    42   21   22 ar  
    43   21   41 1   
    44   22   23 1   
    45   23   24 1   
    46   24   42 1   
    47   24   43 1   
@<TRIPOS>SUBSTRUCTURE
     1 PUX         1 TEMP              0 ****  ****    0 ROOT
