@<TRIPOS>MOLECULE
PUY
   63    59     1     0     0
SMALL
bcc


@<TRIPOS>ATOM
      1 N          -2.6500    2.3220    1.0790 n3        1 PUY     -0.339000
      2 CA         -2.4940    1.2560    1.9840 c3        1 PUY     -0.027000
      3 CB         -3.8050    1.0250    2.7250 c3        1 PUY     -0.106000
      4 CG         -4.4840    2.3590    2.9850 c2        1 PUY     -0.108000
      5 CD1        -4.0660    3.1490    4.0370 c2        1 PUY     -0.093000
      6 CD2        -5.5270    2.7680    2.1920 c1        1 PUY     -0.075000
      7 CE1        -4.6980    4.3550    4.2930 c1        1 PUY     -0.205000
      8 CE2        -6.1650    3.9830    2.4470 c1        1 PUY     -0.157000
      9 CZ         -5.7510    4.7680    3.4910 c1        1 PUY      0.080000
     10 O          -2.9740   -0.6890    0.7220 o         1 PUY     -0.358000
     11 OM         -6.3650    6.0110    3.7210 os        1 PUY     -0.211000
     12 CMZ        -5.6740    7.1430    3.1150 c3        1 PUY     -0.076000
     13 C          -2.1120   -0.0020    1.2330 c2        1 PUY      0.248000
     14 O5'         1.1540   -4.6770    1.9320 oh        1 PUY     -0.321000
     15 C5'         0.1750   -3.9410    1.1750 c3        1 PUY     -0.045000
     16 C4'         0.4070   -2.4260    1.3680 c3        1 PUY     -0.034000
     17 O4'         1.8750   -2.0340    0.9370 os        1 PUY     -0.257000
     18 C1'         1.7270   -1.2820   -0.3850 c3        1 PUY      0.136000
     19 N9          2.6360   -1.7970   -1.3550 n3        1 PUY     -0.217000
     20 C4          3.6920   -1.2620   -2.0490 c1        1 PUY      0.050000
     21 N3          4.3960   -0.0890   -1.8940 n1        1 PUY     -0.240000
     22 C2          5.4740    0.1700   -2.6860 c1        1 PUY      0.024000
     23 N1          5.8620   -0.7410   -3.6430 n1        1 PUY     -0.267000
     24 C6          5.1830   -1.8780   -3.7970 c1        1 PUY      0.235000
     25 N6          5.9940   -2.5220   -4.8050 n2        1 PUY     -0.254000
     26 C9          7.0920   -3.3690   -4.4060 c3        1 PUY     -0.071000
     27 C10         5.6410   -2.4250   -6.1340 c3        1 PUY     -0.071000
     28 C5          4.0680   -2.1480   -2.9790 c1        1 PUY     -0.214000
     29 N7          3.2490   -3.2460   -2.8740 n1        1 PUY     -0.123000
     30 C8          2.3730   -3.0200   -1.8730 c1        1 PUY     -0.029000
     31 C2'         0.4710   -1.4950   -0.7630 c3        1 PUY     -0.016000
     32 O2'        -0.0400   -0.3370   -1.4470 oh        1 PUY     -0.329000
     33 C3'        -0.3670   -1.7500    0.5870 c3        1 PUY      0.003000
     34 N3'        -0.7290   -0.4470    1.2250 n         1 PUY     -0.355000
     35 HN1        -2.7560    1.9920    0.2280 hn        1 PUY      0.159000
     36 HN2        -1.8930    2.8680    1.1100 hn        1 PUY      0.159000
     37 HA         -1.8230    1.4660    2.5950 h1        1 PUY      0.120000
     38 HB1        -4.4110    0.4390    2.1630 hc        1 PUY      0.105000
     39 HB2        -3.6260    0.5880    3.5690 hc        1 PUY      0.105000
     40 HD1        -3.3080    2.8500    4.6130 ha        1 PUY      0.129000
     41 HD2        -5.8080    2.2370    1.4870 ha        1 PUY      0.138000
     42 HE1        -4.4030    4.9110    5.0370 ha        1 PUY      0.136000
     43 HE2        -6.9240    4.2790    1.8710 ha        1 PUY      0.149000
     44 HMZ1       -6.3080    7.9610    3.0990 h1        1 PUY      0.083000
     45 HMZ2       -5.4010    6.9080    2.1660 h1        1 PUY      0.083000
     46 HMZ3       -4.8890    7.3540    3.6320 h1        1 PUY      0.083000
     47 H5'         0.7380   -5.2840    2.4470 ho        1 PUY      0.207000
     48 H5'1       -0.7590   -4.1830    1.4960 h1        1 PUY      0.101000
     49 H5''        0.2590   -4.1580    0.2580 h1        1 PUY      0.101000
     50 H4'         0.2450   -2.1630    2.3380 h1        1 PUY      0.131000
     51 H1'         1.8830   -0.3220   -0.2480 h2        1 PUY      0.145000
     52 H2          5.9860    1.0270   -2.5720 ha        1 PUY      0.186000
     53 H91         7.4730   -3.8110   -5.1960 h1        1 PUY      0.088833
     54 H92         7.8040   -2.8070   -3.9580 h1        1 PUY      0.088833
     55 H93         6.7720   -4.0390   -3.7850 h1        1 PUY      0.088833
     56 H101        4.6700   -2.6350   -6.2350 h1        1 PUY      0.088833
     57 H102        5.8170   -1.4870   -6.4600 h1        1 PUY      0.088833
     58 H103        6.1920   -3.0860   -6.6840 h1        1 PUY      0.088833
     59 H8          1.7530   -3.6630   -1.5130 DU        1 PUY      0.235000
     60 H2'         0.4220   -2.2840   -1.3440 h1        1 PUY      0.118000
     61 H1          0.0190   -0.4580   -2.3050 ho        1 PUY      0.238000
     62 H3'        -1.2220   -2.2910    0.3770 h1        1 PUY      0.148000
     63 H3         -0.0740    0.0610    1.6540 hn        1 PUY      0.232000
@<TRIPOS>BOND
     1    1    2 1   
     2    1   35 1   
     3    1   36 1   
     4    2    3 1   
     5    2   13 1   
     6    2   37 1   
     7    3    4 1   
     8    3   38 1   
     9    3   39 1   
    10    4    5 1   
    11    4    6 1   
    12    5    7 1   
    13    5   40 1   
    14    6   41 1   
    15    7   42 1   
    16    8    9 1   
    17    8   43 1   
    18    9   11 1   
    19   10   13 1   
    20   11   12 1   
    21   12   44 1   
    22   12   45 1   
    23   12   46 1   
    24   13   34 1   
    25   14   15 1   
    26   14   47 1   
    27   15   16 1   
    28   15   48 1   
    29   15   49 1   
    30   16   17 1   
    31   16   33 1   
    32   16   50 1   
    33   17   18 1   
    34   18   19 1   
    35   18   31 1   
    36   18   51 1   
    37   19   20 1   
    38   19   30 1   
    39   20   28 1   
    40   21   22 1   
    41   22   52 1   
    42   23   24 1   
    43   24   28 1   
    44   25   26 1   
    45   25   27 1   
    46   26   53 1   
    47   26   54 1   
    48   26   55 1   
    49   27   56 1   
    50   27   57 1   
    51   27   58 1   
    52   29   30 1   
    53   31   32 1   
    54   31   33 1   
    55   31   60 1   
    56   32   61 1   
    57   33   34 1   
    58   33   62 1   
    59   34   63 1   
@<TRIPOS>SUBSTRUCTURE
     1 PUY         1 TEMP              0 ****  ****    0 ROOT
