@<TRIPOS>MOLECULE
PUY
   63    66     1     0     0
SMALL
bcc


@<TRIPOS>ATOM
      1 N           3.5610    0.5940    2.0950 n3        1 PUY     -0.899800
      2 CA          3.3570    0.2830    0.6970 c3        1 PUY      0.113500
      3 CB          4.3350   -0.7350    0.0740 c3        1 PUY     -0.071100
      4 CG          5.7430   -0.2740    0.1830 ca        1 PUY     -0.125300
      5 CD1         6.5160   -0.6180    1.3020 ca        1 PUY     -0.095500
      6 CD2         6.3170    0.4990   -0.8300 ca        1 PUY     -0.095500
      7 CE1         7.8340   -0.1980    1.4140 ca        1 PUY     -0.176000
      8 CE2         7.6390    0.9310   -0.7390 ca        1 PUY     -0.176000
      9 CZ          8.3960    0.5830    0.3850 ca        1 PUY      0.127100
     10 OM          9.7110    0.9510    0.5900 os        1 PUY     -0.325900
     11 CMZ        10.3130    1.7310   -0.4370 c3        1 PUY      0.112700
     12 C           1.9410   -0.3020    0.5040 c         1 PUY      0.666100
     13 C4'        -0.5300   -0.8310   -1.7780 c3        1 PUY      0.117100
     14 O4'        -1.7610   -0.3900   -2.3690 os        1 PUY     -0.400600
     15 C1'        -2.3780    0.6400   -1.5960 c3        1 PUY      0.230800
     16 N9         -3.6210    0.1580   -1.0350 na        1 PUY     -0.294000
     17 C4         -4.5140    0.9270   -0.2730 ca        1 PUY      0.445800
     18 N3         -4.3980    2.2050    0.1940 nb        1 PUY     -0.758000
     19 C2         -5.4830    2.5900    0.9070 ca        1 PUY      0.686900
     20 N1         -6.6160    1.9070    1.2040 nb        1 PUY     -0.793000
     21 C6         -6.7430    0.6130    0.7490 ca        1 PUY      0.756200
     22 N6         -7.8600   -0.1310    1.0940 nh        1 PUY     -0.762300
     23 C9         -8.8990    0.4720    1.8900 c3        1 PUY      0.204600
     24 C10        -8.1780   -1.3420    0.3840 c3        1 PUY      0.204600
     25 C5         -5.6720    0.0640   -0.0390 ca        1 PUY     -0.207200
     26 N7         -5.4600   -1.1760   -0.6640 nc        1 PUY     -0.549100
     27 C8         -4.2570   -1.0880   -1.2460 cd        1 PUY      0.422700
     28 C2'        -1.3500    1.1200   -0.5210 c3        1 PUY      0.102100
     29 O2'        -0.7690    2.3290   -0.9640 oh        1 PUY     -0.595800
     30 C3'        -0.2940   -0.0200   -0.4710 c3        1 PUY      0.083700
     31 N3'         1.0640    0.4030   -0.2890 n         1 PUY     -0.548900
     32 HN1         3.3160   -0.1890    2.6720 hn        1 PUY      0.364300
     33 HN2         4.5230    0.8310    2.2510 hn        1 PUY      0.364300
     34 HA          3.4720    1.2570    0.1330 h1        1 PUY      0.071700
     35 HB1         4.0590   -0.8760   -1.0040 hc        1 PUY      0.066700
     36 HB2         4.2080   -1.7270    0.5850 hc        1 PUY      0.066700
     37 HD1         6.0740   -1.2370    2.0990 ha        1 PUY      0.134000
     38 HD2         5.7210    0.7690   -1.7160 ha        1 PUY      0.134000
     39 HE1         8.4470   -0.4650    2.2860 ha        1 PUY      0.145500
     40 HE2         8.0700    1.5370   -1.5480 ha        1 PUY      0.145500
     41 HMZ1       11.3530    1.9000   -0.0590 h1        1 PUY      0.045700
     42 HMZ2       10.3300    1.1680   -1.4010 h1        1 PUY      0.045700
     43 HMZ3        9.7760    2.7030   -0.5590 h1        1 PUY      0.045700
     44 H5'        -0.2760   -3.9490   -2.4650 ho        1 PUY      0.404000
     45 H4'         0.2560   -0.6410   -2.5610 h1        1 PUY      0.098700
     46 H1'        -2.6110    1.4760   -2.3240 h2        1 PUY      0.101700
     47 H2         -5.4480    3.6260    1.3090 h5        1 PUY      0.050100
     48 H91        -9.6300   -0.3170    2.2090 h1        1 PUY      0.049200
     49 H92        -8.4570    0.9380    2.8110 h1        1 PUY      0.049200
     50 H93        -9.4460    1.2660    1.3130 h1        1 PUY      0.049200
     51 H101       -7.4730   -2.1590    0.6950 h1        1 PUY      0.049200
     52 H102       -9.2250   -1.6620    0.6310 h1        1 PUY      0.049200
     53 H103       -8.1070   -1.1960   -0.7270 h1        1 PUY      0.049200
     54 H8         -3.7670   -1.8690   -1.8430 h5        1 PUY      0.087800
     55 H2'        -1.8130    1.2560    0.4910 h1        1 PUY      0.086700
     56 H1         -1.3920    3.0330   -0.7340 ho        1 PUY      0.430000
     57 H3'        -0.5750   -0.6830    0.4070 h1        1 PUY      0.095700
     58 H3          1.3050    1.3060   -0.6270 hn        1 PUY      0.336500
     59 O           1.6240   -1.3900    1.0260 o         1 PUY     -0.620100
     60 C5'        -0.6110   -2.3280   -1.4770 c3        1 PUY      0.110400
     61 H5'1        0.1230   -2.5860   -0.6650 h1        1 PUY      0.046200
     62 O5'        -0.2750   -3.0080   -2.6750 oh        1 PUY     -0.596800
     63 H5''       -1.6500   -2.6070   -1.1550 h1        1 PUY      0.046200
@<TRIPOS>BOND
     1    1    2 1   
     2    1   32 1   
     3    1   33 1   
     4    2    3 1   
     5    2   12 1   
     6    2   34 1   
     7    3    4 1   
     8    3   35 1   
     9    3   36 1   
    10    4    5 ar  
    11    4    6 ar  
    12    5    7 ar  
    13    5   37 1   
    14    6    8 ar  
    15    6   38 1   
    16    7    9 ar  
    17    7   39 1   
    18    8    9 ar  
    19    8   40 1   
    20    9   10 1   
    21   10   11 1   
    22   11   41 1   
    23   11   42 1   
    24   11   43 1   
    25   12   31 1   
    26   12   59 2   
    27   13   14 1   
    28   13   30 1   
    29   13   45 1   
    30   13   60 1   
    31   14   15 1   
    32   15   16 1   
    33   15   28 1   
    34   15   46 1   
    35   16   17 1   
    36   16   27 1   
    37   17   18 ar  
    38   17   25 ar  
    39   18   19 ar  
    40   19   20 ar  
    41   19   47 1   
    42   20   21 ar  
    43   21   22 1   
    44   21   25 ar  
    45   22   23 1   
    46   22   24 1   
    47   23   48 1   
    48   23   49 1   
    49   23   50 1   
    50   24   51 1   
    51   24   52 1   
    52   24   53 1   
    53   25   26 1   
    54   26   27 2   
    55   27   54 1   
    56   28   29 1   
    57   28   30 1   
    58   28   55 1   
    59   29   56 1   
    60   30   31 1   
    61   30   57 1   
    62   31   58 1   
    63   44   62 1   
    64   60   61 1   
    65   60   62 1   
    66   60   63 1   
@<TRIPOS>SUBSTRUCTURE
     1 PUY         1 TEMP              0 ****  ****    0 ROOT
