@<TRIPOS>MOLECULE
PUZ
   47    49     1     0     0
SMALL
bcc


@<TRIPOS>ATOM
      1 C19         1.6660   -2.4890   -3.5410 c1        1 PUZ     -0.153500
      2 C18         1.6170   -2.2250   -2.3750 c1        1 PUZ     -0.143100
      3 C17         1.5440   -1.9190   -0.9770 c3        1 PUZ     -0.001300
      4 C16         2.6050   -0.9140   -0.5570 c3        1 PUZ     -0.095400
      5 C15         2.4520   -0.6310    0.9400 c3        1 PUZ      0.034300
      6 N2          3.5350    0.1020    1.5270 na        1 PUZ     -0.244000
      7 C12         3.6480    1.4940    1.6240 ca        1 PUZ      0.472800
      8 N4          2.7670    2.4760    1.2660 nb        1 PUZ     -0.749000
      9 C11         4.9480    1.7370    2.2320 ca        1 PUZ     -0.240200
     10 C13         5.3190    3.1040    2.4670 ca        1 PUZ      0.784200
     11 N5          6.5330    3.4040    3.0240 nh        1 PUZ     -0.958500
     12 N3          4.4490    4.1060    2.1200 nb        1 PUZ     -0.814000
     13 C14         3.2510    3.7260    1.5510 ca        1 PUZ      0.896200
     14 F1          2.4270    4.7570    1.2240 f         1 PUZ     -0.200200
     15 N1          5.6010    0.5250    2.4760 nc        1 PUZ     -0.544100
     16 C10         4.7540   -0.4330    2.0420 cd        1 PUZ      0.408800
     17 C9          5.0190   -1.9060    2.0840 c3        1 PUZ     -0.043400
     18 C1          4.3670   -2.5600    3.2540 ca        1 PUZ     -0.080300
     19 C2          3.3760   -3.5540    3.0820 ca        1 PUZ      0.087100
     20 O2          3.0050   -3.8170    1.7720 os        1 PUZ     -0.343900
     21 C7          2.2480   -5.0040    1.5620 c3        1 PUZ      0.112700
     22 C3          2.8030   -4.1910    4.1860 ca        1 PUZ     -0.163000
     23 C4          3.2030   -3.8470    5.4770 ca        1 PUZ     -0.167000
     24 C5          4.1770   -2.8610    5.6530 ca        1 PUZ      0.099100
     25 C6          4.7600   -2.2180    4.5450 ca        1 PUZ     -0.113000
     26 O5          4.6560   -2.4410    6.8810 os        1 PUZ     -0.323900
     27 C8          4.0520   -3.0340    8.0240 c3        1 PUZ      0.112700
     28 H19         1.7080   -2.7200   -4.5740 ha        1 PUZ      0.165500
     29 H171        1.6760   -2.8680   -0.3790 hc        1 PUZ      0.061700
     30 H172        0.5230   -1.5100   -0.7380 hc        1 PUZ      0.061700
     31 H161        2.4920    0.0350   -1.1410 hc        1 PUZ      0.061700
     32 H162        3.6220   -1.3310   -0.7770 hc        1 PUZ      0.061700
     33 H151        2.3720   -1.6150    1.4940 h1        1 PUZ      0.079700
     34 H152        1.5010   -0.0460    1.1060 h1        1 PUZ      0.079700
     35 H5N1        6.7860    4.3400    3.2190 hn        1 PUZ      0.452300
     36 H5N2        7.1270    2.6630    3.3000 hn        1 PUZ      0.452300
     37 H9C1        6.1320   -2.0690    2.1500 hc        1 PUZ      0.086200
     38 H9C2        4.6640   -2.3730    1.1230 hc        1 PUZ      0.086200
     39 H7C1        2.2000   -5.0880    0.4460 h1        1 PUZ      0.046367
     40 H7C2        2.7620   -5.8910    2.0040 h1        1 PUZ      0.046367
     41 H7C3        1.2220   -4.8900    1.9900 h1        1 PUZ      0.046367
     42 H3          2.0340   -4.9650    4.0530 ha        1 PUZ      0.140000
     43 H4          2.7440   -4.3550    6.3370 ha        1 PUZ      0.141000
     44 H6          5.5250   -1.4440    4.7080 ha        1 PUZ      0.167000
     45 H8C1        4.5690   -2.5310    8.8800 h1        1 PUZ      0.044700
     46 H8C2        2.9550   -2.8230    8.0470 h1        1 PUZ      0.044700
     47 H8C3        4.2400   -4.1350    8.0430 h1        1 PUZ      0.044700
@<TRIPOS>BOND
     1    1    2 3   
     2    1   28 1   
     3    2    3 1   
     4    3    4 1   
     5    3   29 1   
     6    3   30 1   
     7    4    5 1   
     8    4   31 1   
     9    4   32 1   
    10    5    6 1   
    11    5   33 1   
    12    5   34 1   
    13    6    7 1   
    14    6   16 1   
    15    7    8 ar  
    16    7    9 ar  
    17    8   13 ar  
    18    9   10 ar  
    19    9   15 1   
    20   10   11 1   
    21   10   12 ar  
    22   11   35 1   
    23   11   36 1   
    24   12   13 ar  
    25   13   14 1   
    26   15   16 2   
    27   16   17 1   
    28   17   18 1   
    29   17   37 1   
    30   17   38 1   
    31   18   19 ar  
    32   18   25 ar  
    33   19   20 1   
    34   19   22 ar  
    35   20   21 1   
    36   21   39 1   
    37   21   40 1   
    38   21   41 1   
    39   22   23 ar  
    40   22   42 1   
    41   23   24 ar  
    42   23   43 1   
    43   24   25 ar  
    44   24   26 1   
    45   25   44 1   
    46   26   27 1   
    47   27   45 1   
    48   27   46 1   
    49   27   47 1   
@<TRIPOS>SUBSTRUCTURE
     1 PUZ         1 TEMP              0 ****  ****    0 ROOT
