@<TRIPOS>MOLECULE
PUZ
   48    50     1     0     0
SMALL
bcc


@<TRIPOS>ATOM
      1 C19        -0.4290   -0.7260   -3.0180 c1        1 PUZ     -0.108500
      2 C18        -0.1370   -0.5050   -1.8790 c1        1 PUZ     -0.174100
      3 C17         0.1820   -0.2390   -0.5090 c3        1 PUZ      0.008700
      4 C16         1.6860   -0.1530   -0.2930 c3        1 PUZ     -0.100400
      5 C15         1.9640    0.0950    1.1890 c3        1 PUZ      0.024300
      6 N2          3.3640    0.2070    1.5250 na        1 PUZ     -0.243000
      7 C12         4.0870    1.4040    1.6110 ca        1 PUZ      0.475800
      8 N4          3.7040    2.6940    1.4890 nb        1 PUZ     -0.638000
      9 C11         5.4770    0.9850    1.9080 ca        1 PUZ     -0.137200
     10 C13         6.4020    2.0250    2.0680 ca        1 PUZ      0.533200
     11 N5          7.8020    1.6770    2.3760 n4        1 PUZ     -0.814300
     12 N3          6.0630    3.3320    1.9540 nb        1 PUZ     -0.707000
     13 C14         4.7350    3.5940    1.6710 ca        1 PUZ      0.889200
     14 F1          4.4150    4.9030    1.5580 f         1 PUZ     -0.148200
     15 N1          5.5590   -0.4040    1.9720 nc        1 PUZ     -0.585100
     16 C10         4.2970   -0.8480    1.7360 cd        1 PUZ      0.527800
     17 C9          3.9010   -2.2970    1.7110 c3        1 PUZ     -0.055400
     18 C1          3.8360   -2.8640    3.0870 ca        1 PUZ     -0.105300
     19 C2          4.6420   -3.9640    3.4500 ca        1 PUZ      0.113100
     20 O2          5.5140   -4.4180    2.4780 os        1 PUZ     -0.340900
     21 C7          6.1530   -5.6650    2.7380 c3        1 PUZ      0.112700
     22 C3          4.5430   -4.5250    4.7300 ca        1 PUZ     -0.158000
     23 C4          3.6520   -3.9960    5.6590 ca        1 PUZ     -0.149000
     24 C5          2.8540   -2.9020    5.3050 ca        1 PUZ      0.105100
     25 C6          2.9430   -2.3390    4.0210 ca        1 PUZ     -0.133000
     26 O5          1.9480   -2.2830    6.1430 os        1 PUZ     -0.327900
     27 C8          1.7330   -2.9070    7.4060 c3        1 PUZ      0.110700
     28 H19        -0.6930   -0.9220   -4.0270 ha        1 PUZ      0.175500
     29 H171       -0.3000    0.7290   -0.1940 hc        1 PUZ      0.066200
     30 H172       -0.2470   -1.0540    0.1400 hc        1 PUZ      0.066200
     31 H161        2.1070    0.6800   -0.9150 hc        1 PUZ      0.064700
     32 H162        2.1710   -1.1070   -0.6280 hc        1 PUZ      0.064700
     33 H151        1.5370   -0.7540    1.8000 h1        1 PUZ      0.090700
     34 H152        1.4530    1.0500    1.5080 h1        1 PUZ      0.090700
     35 H5N1        8.3740    2.5190    2.5240 hn        1 PUZ      0.479467
     36 H5N2        7.8120    1.0950    3.2240 hn        1 PUZ      0.479467
     37 H9C1        4.6640   -2.8540    1.0930 hc        1 PUZ      0.103200
     38 H9C2        2.9040   -2.4170    1.2050 hc        1 PUZ      0.103200
     39 H7C1        5.4000   -6.4620    2.9530 h1        1 PUZ      0.052367
     40 H7C2        6.6950   -5.8800    1.7820 h1        1 PUZ      0.052367
     41 H7C3        6.8730   -5.5630    3.5850 h1        1 PUZ      0.052367
     42 H3          5.1660   -5.3870    5.0130 ha        1 PUZ      0.152000
     43 H4          3.5830   -4.4460    6.6610 ha        1 PUZ      0.153000
     44 H6          2.2960   -1.4880    3.7660 ha        1 PUZ      0.142000
     45 H8C1        0.9300   -2.2780    7.8700 h1        1 PUZ      0.052367
     46 H8C2        1.3850   -3.9590    7.2740 h1        1 PUZ      0.052367
     47 H8C3        2.6650   -2.8730    8.0220 h1        1 PUZ      0.052367
     48 H53         8.1820    1.1340    1.5900 hn        1 PUZ      0.479467
@<TRIPOS>BOND
     1    1    2 3   
     2    1   28 1   
     3    2    3 1   
     4    3    4 1   
     5    3   29 1   
     6    3   30 1   
     7    4    5 1   
     8    4   31 1   
     9    4   32 1   
    10    5    6 1   
    11    5   33 1   
    12    5   34 1   
    13    6    7 1   
    14    6   16 1   
    15    7    8 ar  
    16    7    9 ar  
    17    8   13 ar  
    18    9   10 ar  
    19    9   15 1   
    20   10   11 1   
    21   10   12 ar  
    22   11   35 1   
    23   11   36 1   
    24   11   48 1   
    25   12   13 ar  
    26   13   14 1   
    27   15   16 2   
    28   16   17 1   
    29   17   18 1   
    30   17   37 1   
    31   17   38 1   
    32   18   19 ar  
    33   18   25 ar  
    34   19   20 1   
    35   19   22 ar  
    36   20   21 1   
    37   21   39 1   
    38   21   40 1   
    39   21   41 1   
    40   22   23 ar  
    41   22   42 1   
    42   23   24 ar  
    43   23   43 1   
    44   24   25 ar  
    45   24   26 1   
    46   25   44 1   
    47   26   27 1   
    48   27   45 1   
    49   27   46 1   
    50   27   47 1   
@<TRIPOS>SUBSTRUCTURE
     1 PUZ         1 TEMP              0 ****  ****    0 ROOT
