@<TRIPOS>MOLECULE
PUZ
   47    48     1     0     0
SMALL
bcc


@<TRIPOS>ATOM
      1 C19        -1.8330    0.8110   -0.5490 c1        1 PUZ     -0.202000
      2 C18        -0.9320    0.7330    0.2350 c1        1 PUZ     -0.174000
      3 C17         0.1340    0.6420    1.1880 c3        1 PUZ     -0.051000
      4 C16         1.4850    0.4750    0.5110 c3        1 PUZ     -0.175000
      5 C15         2.5710    0.3570    1.5830 c3        1 PUZ     -0.031000
      6 N2          3.9030    0.2050    1.0660 na        1 PUZ     -0.152000
      7 C12         4.8090    1.2170    0.8330 c2        1 PUZ      0.108000
      8 N4          4.7190    2.5680    1.0540 n2        1 PUZ     -0.242000
      9 C11         6.0010    0.5570    0.2760 c2        1 PUZ     -0.275000
     10 C13         7.1320    1.4040   -0.0480 c2        1 PUZ      0.286000
     11 N5          8.2650    0.8540   -0.5670 nv        1 PUZ     -0.336000
     12 N3          7.0480    2.7500    0.1710 n2        1 PUZ     -0.304000
     13 C14         5.8610    3.2300    0.7010 c2        1 PUZ      0.266000
     14 F1          5.8390    4.5730    0.8940 f         1 PUZ     -0.050000
     15 N1          5.8000   -0.7940    0.1680 n2        1 PUZ      0.035000
     16 C10         4.5310   -1.0380    0.6330 c2        1 PUZ     -0.123000
     17 C9          3.9510   -2.3200    0.6750 c1        1 PUZ     -0.021000
     18 C1          4.2740   -3.9120    3.1890 ca        1 PUZ     -0.152000
     19 C2          4.8970   -3.6220    4.4200 ca        1 PUZ      0.042000
     20 O2          6.2050   -3.1810    4.3160 os        1 PUZ     -0.209500
     21 C7          6.8870   -2.9560    5.5420 c3        1 PUZ     -0.075500
     22 C3          4.2070   -3.7730    5.6250 ca        1 PUZ     -0.152000
     23 C4          2.8820   -4.2150    5.6110 ca        1 PUZ     -0.152000
     24 C5          2.2630   -4.5010    4.3930 ca        1 PUZ      0.042000
     25 C6          2.9600   -4.3520    3.1770 ca        1 PUZ     -0.152000
     26 O5          0.9520   -4.9270    4.2580 os        1 PUZ     -0.209500
     27 C8          0.2610   -5.2080    5.4680 c3        1 PUZ     -0.075500
     28 H19        -2.6310    0.8800   -1.2430 ha        1 PUZ      0.224000
     29 H171        0.1440    1.5710    1.8250 hc        1 PUZ      0.102500
     30 H172       -0.0560   -0.2320    1.8740 hc        1 PUZ      0.102500
     31 H161        1.6880    1.3560   -0.1510 hc        1 PUZ      0.103000
     32 H162        1.4760   -0.4410   -0.1340 hc        1 PUZ      0.103000
     33 H151        2.3530   -0.5410    2.2310 h1        1 PUZ      0.115000
     34 H152        2.5450    1.2780    2.2340 h1        1 PUZ      0.115000
     35 H5N1        8.3050   -0.1260   -0.7120 hn        1 PUZ      0.255000
     36 H5N2        9.0490    1.4170   -0.7910 hn        1 PUZ      0.255000
     37 H9C1        2.9300   -2.4060    1.0750 ha        1 PUZ      0.060000
     38 H9C2        4.8390   -3.7950    2.2470 ha        1 PUZ      0.152250
     39 H7C1        7.9150   -2.6530    5.2170 h1        1 PUZ      0.081833
     40 H7C2        6.4000   -2.1340    6.1200 h1        1 PUZ      0.081833
     41 H7C3        6.9270   -3.8910    6.1520 h1        1 PUZ      0.081833
     42 H3          4.6880   -3.5520    6.5870 ha        1 PUZ      0.152250
     43 H4          2.3450   -4.3320    6.5630 ha        1 PUZ      0.152250
     44 H6          2.4560   -4.5910    2.2290 ha        1 PUZ      0.152250
     45 H8C1       -0.7330   -5.5880    5.1200 h1        1 PUZ      0.081833
     46 H8C2        0.1340   -4.2770    6.0740 h1        1 PUZ      0.081833
     47 H8C3        0.7960   -5.9890    6.0610 h1        1 PUZ      0.081833
@<TRIPOS>BOND
     1    1    2 1   
     2    1   28 1   
     3    2    3 1   
     4    3    4 1   
     5    3   29 1   
     6    3   30 1   
     7    4    5 1   
     8    4   31 1   
     9    4   32 1   
    10    5    6 1   
    11    5   33 1   
    12    5   34 1   
    13    6    7 1   
    14    6   16 1   
    15    7    8 1   
    16    7    9 1   
    17    8   13 1   
    18    9   10 1   
    19    9   15 1   
    20   10   11 1   
    21   10   12 1   
    22   11   35 1   
    23   11   36 1   
    24   12   13 1   
    25   13   14 1   
    26   15   16 1   
    27   16   17 1   
    28   17   37 1   
    29   18   19 1   
    30   18   25 1   
    31   18   38 1   
    32   19   20 1   
    33   19   22 1   
    34   20   21 1   
    35   21   39 1   
    36   21   40 1   
    37   21   41 1   
    38   22   23 1   
    39   22   42 1   
    40   23   24 1   
    41   23   43 1   
    42   24   25 1   
    43   24   26 1   
    44   25   44 1   
    45   26   27 1   
    46   27   45 1   
    47   27   46 1   
    48   27   47 1   
@<TRIPOS>SUBSTRUCTURE
     1 PUZ         1 TEMP              0 ****  ****    0 ROOT
