@<TRIPOS>MOLECULE
PUZ
   47    49     1     0     0
SMALL
bcc


@<TRIPOS>ATOM
      1 C19         3.7700    4.7970   -1.6630 c1        1 PUZ     -0.153500
      2 C18         3.4640    3.7360   -1.2030 c1        1 PUZ     -0.143100
      3 C17         3.1110    2.4650   -0.6420 c3        1 PUZ     -0.001300
      4 C16         1.9080    1.8480   -1.3380 c3        1 PUZ     -0.095400
      5 C15         1.6050    0.4930   -0.6920 c3        1 PUZ      0.034300
      6 N2          0.3510   -0.0880   -1.0730 na        1 PUZ     -0.244000
      7 C12         0.1190   -0.9380   -2.1610 ca        1 PUZ      0.472800
      8 N4          0.9960   -1.4740   -3.0620 nb        1 PUZ     -0.749000
      9 C11        -1.3150   -1.1920   -2.1580 ca        1 PUZ     -0.240200
     10 C13        -1.8310   -2.0640   -3.1750 ca        1 PUZ      0.784200
     11 N5         -3.1710   -2.3340   -3.2370 nh        1 PUZ     -0.958500
     12 N3         -0.9690   -2.6160   -4.0880 nb        1 PUZ     -0.814000
     13 C14         0.3650   -2.2850   -3.9690 ca        1 PUZ      0.896200
     14 F1          1.1750   -2.8560   -4.9000 f         1 PUZ     -0.200200
     15 N1         -1.9240   -0.4970   -1.1080 nc        1 PUZ     -0.544100
     16 C10        -0.9240    0.1600   -0.4830 cd        1 PUZ      0.408800
     17 C9         -1.0880    1.0540    0.7070 c3        1 PUZ     -0.043400
     18 C1         -0.7540    0.3580    1.9820 ca        1 PUZ     -0.080300
     19 C2          0.3110    0.7970    2.8020 ca        1 PUZ      0.087100
     20 O2          1.0570    1.8560    2.3070 os        1 PUZ     -0.343900
     21 C7          1.9210    2.5010    3.2350 c3        1 PUZ      0.112700
     22 C3          0.5870    0.1640    4.0170 ca        1 PUZ     -0.163000
     23 C4         -0.1880   -0.9180    4.4320 ca        1 PUZ     -0.167000
     24 C5         -1.2380   -1.3610    3.6230 ca        1 PUZ      0.099100
     25 C6         -1.5220   -0.7250    2.4010 ca        1 PUZ     -0.113000
     26 O5         -2.0760   -2.4170    3.9320 os        1 PUZ     -0.323900
     27 C8         -1.7830   -3.1160    5.1350 c3        1 PUZ      0.112700
     28 H19         4.0420    5.7360   -2.0720 ha        1 PUZ      0.165500
     29 H171        2.8780    2.5920    0.4560 hc        1 PUZ      0.061700
     30 H172        3.9900    1.7660   -0.7200 hc        1 PUZ      0.061700
     31 H161        2.1190    1.7150   -2.4300 hc        1 PUZ      0.061700
     32 H162        1.0280    2.5360   -1.2420 hc        1 PUZ      0.061700
     33 H151        1.5900    0.6170    0.4320 h1        1 PUZ      0.079700
     34 H152        2.4250   -0.2330   -0.9640 h1        1 PUZ      0.079700
     35 H5N1       -3.5330   -2.9580   -3.9140 hn        1 PUZ      0.452300
     36 H5N2       -3.7670   -1.9540   -2.5450 hn        1 PUZ      0.452300
     37 H9C1       -2.1590    1.4010    0.7510 hc        1 PUZ      0.086200
     38 H9C2       -0.4420    1.9660    0.5750 hc        1 PUZ      0.086200
     39 H7C1        2.2920    3.3940    2.6690 h1        1 PUZ      0.046367
     40 H7C2        1.3650    2.8160    4.1500 h1        1 PUZ      0.046367
     41 H7C3        2.7720    1.8290    3.5050 h1        1 PUZ      0.046367
     42 H3          1.4130    0.5080    4.6550 ha        1 PUZ      0.140000
     43 H4          0.0390   -1.4080    5.3890 ha        1 PUZ      0.141000
     44 H6         -2.3530   -1.0920    1.7780 ha        1 PUZ      0.167000
     45 H8C1       -2.5560   -3.9260    5.1600 h1        1 PUZ      0.044700
     46 H8C2       -0.7560   -3.5530    5.1010 h1        1 PUZ      0.044700
     47 H8C3       -1.8930   -2.4410    6.0190 h1        1 PUZ      0.044700
@<TRIPOS>BOND
     1    1    2 3   
     2    1   28 1   
     3    2    3 1   
     4    3    4 1   
     5    3   29 1   
     6    3   30 1   
     7    4    5 1   
     8    4   31 1   
     9    4   32 1   
    10    5    6 1   
    11    5   33 1   
    12    5   34 1   
    13    6    7 1   
    14    6   16 1   
    15    7    8 ar  
    16    7    9 ar  
    17    8   13 ar  
    18    9   10 ar  
    19    9   15 1   
    20   10   11 1   
    21   10   12 ar  
    22   11   35 1   
    23   11   36 1   
    24   12   13 ar  
    25   13   14 1   
    26   15   16 2   
    27   16   17 1   
    28   17   18 1   
    29   17   37 1   
    30   17   38 1   
    31   18   19 ar  
    32   18   25 ar  
    33   19   20 1   
    34   19   22 ar  
    35   20   21 1   
    36   21   39 1   
    37   21   40 1   
    38   21   41 1   
    39   22   23 ar  
    40   22   42 1   
    41   23   24 ar  
    42   23   43 1   
    43   24   25 ar  
    44   24   26 1   
    45   25   44 1   
    46   26   27 1   
    47   27   45 1   
    48   27   46 1   
    49   27   47 1   
@<TRIPOS>SUBSTRUCTURE
     1 PUZ         1 TEMP              0 ****  ****    0 ROOT
