@<TRIPOS>MOLECULE
PV0
   35    30     1     0     0
SMALL
bcc


@<TRIPOS>ATOM
      1 C12        -0.4860    1.0080   -2.2220 c1        1 PV0     -0.089500
      2 C13         0.8850    0.9900   -2.2040 c1        1 PV0     -0.089500
      3 O01        -2.3120   -0.0150    2.8410 oh        1 PV0     -0.249000
      4 C02        -1.1090   -0.7810    3.0370 c2        1 PV0      0.234000
      5 C03        -1.1500   -1.9650    3.7740 c2        1 PV0     -0.279000
      6 C04         0.0160   -2.6180    4.0880 c1        1 PV0      0.176000
      7 O05        -0.0210   -3.7830    4.8680 o         1 PV0     -0.244000
      8 C06         1.2390   -2.0990    3.6720 c2        1 PV0     -0.273000
      9 C07         1.2820   -0.9390    2.9500 c1        1 PV0      0.040000
     10 C08         0.0990   -0.2720    2.6290 c1        1 PV0     -0.880000
     11 S09         0.1610    1.2540    1.7520 ss        1 PV0      2.878000
     12 N10         0.1700    0.9760    0.0980 n2        1 PV0     -0.857000
     13 C11        -0.9820    0.9840   -0.7590 c3        1 PV0      0.045000
     14 C14         1.3410    0.9170   -0.7340 c3        1 PV0      0.045000
     15 C15         1.6080    0.9690   -3.4180 c1        1 PV0     -0.167000
     16 C16         0.9250    0.9660   -4.6360 c1        1 PV0      0.121000
     17 C17        -0.4550    0.9840   -4.6520 c2        1 PV0     -0.300000
     18 C18        -1.1710    1.0050   -3.4440 c1        1 PV0      0.137000
     19 O19        -2.5970    1.1130   -3.4620 oh        1 PV0     -0.243000
     20 O20         1.6570    0.9700   -5.8710 o         1 PV0     -0.244000
     21 O21        -0.9080    2.1050    2.1240 o         1 PV0     -0.935000
     22 O22         1.2980    2.0400    2.1570 o         1 PV0     -0.935000
     23 H1         -2.7990   -0.0260    3.5930 ho        1 PV0      0.238000
     24 H2         -2.0190   -2.3090    4.1170 ha        1 PV0      0.159000
     25 H3         -0.0880   -4.4830    4.3450 ho        1 PV0      0.225000
     26 H4          2.0700   -2.5660    3.8970 ha        1 PV0      0.145000
     27 H5          2.1530   -0.5720    2.6560 ha        1 PV0      0.172000
     28 H6         -1.5170    1.8100   -0.5810 h1        1 PV0      0.106500
     29 H7         -1.4890    0.1900   -0.6130 h1        1 PV0      0.106500
     30 H8          1.8100    0.0480   -0.5780 h1        1 PV0      0.106500
     31 H9          1.8930    1.6610   -0.5440 h1        1 PV0      0.106500
     32 H10         2.5820    0.9560   -3.4050 ha        1 PV0      0.159000
     33 H11        -0.9210    0.9820   -5.4820 ha        1 PV0      0.137000
     34 H12        -2.9480    0.3820   -3.8470 ho        1 PV0      0.221000
     35 H13         1.7860    0.1210   -6.1470 ho        1 PV0      0.225000
@<TRIPOS>BOND
     1    1    2 1   
     2    1   13 1   
     3    2   14 1   
     4    3    4 1   
     5    3   23 1   
     6    4    5 1   
     7    4   10 1   
     8    5    6 1   
     9    5   24 1   
    10    6    8 1   
    11    7   25 1   
    12    8    9 1   
    13    8   26 1   
    14    9   27 1   
    15   11   21 1   
    16   11   22 1   
    17   12   13 1   
    18   12   14 1   
    19   13   28 1   
    20   13   29 1   
    21   14   30 1   
    22   14   31 1   
    23   15   16 1   
    24   15   32 1   
    25   16   17 1   
    26   17   18 1   
    27   17   33 1   
    28   18   19 1   
    29   19   34 1   
    30   20   35 1   
@<TRIPOS>SUBSTRUCTURE
     1 PV0         1 TEMP              0 ****  ****    0 ROOT
