@<TRIPOS>MOLECULE
PV0
   35    35     1     0     0
SMALL
bcc


@<TRIPOS>ATOM
      1 C12        -0.5590    0.0310   -0.2320 c2        1 PV0      0.003000
      2 C13         0.8660    0.0110    0.0920 c2        1 PV0     -0.178000
      3 C02        -0.0840   -2.4800    4.2790 c2        1 PV0      0.367000
      4 C03        -0.2180   -3.7800    4.8660 c2        1 PV0     -0.415000
      5 C04         0.7300   -4.2220    5.7560 c2        1 PV0      0.190000
      6 O05         0.7030   -5.4410    6.3390 oh        1 PV0     -0.221000
      7 C06         1.8910   -3.3700    6.1570 c3        1 PV0     -0.170000
      8 C07         1.9550   -2.0800    5.4990 c1        1 PV0     -0.086000
      9 C08         1.0210   -1.6640    4.5510 c2        1 PV0     -0.957000
     10 S09         1.4560   -0.1210    4.0260 s6        1 PV0      2.897000
     11 N10         0.7230   -0.0350    2.5410 n3        1 PV0     -0.809000
     12 C11        -1.5260   -0.6360    0.4120 c2        1 PV0     -0.220000
     13 C14         1.4010   -0.0080    1.3430 c2        1 PV0      0.056000
     14 C15         1.7580    0.1740   -1.0510 c2        1 PV0     -0.132000
     15 C16         1.6420   -0.5580   -2.1930 c2        1 PV0      0.025000
     16 C17         0.0480    1.0550   -2.4080 c1        1 PV0      0.006000
     17 C18        -0.8540    0.8450   -1.4280 c2        1 PV0     -0.188000
     18 O19        -2.1540    1.3360   -1.4480 oh        1 PV0     -0.238000
     19 O20         2.5910   -0.3930   -3.1740 oh        1 PV0     -0.260000
     20 O21         0.8410    0.8240    4.8590 o         1 PV0     -0.919500
     21 O22         2.8360    0.0020    3.8070 o         1 PV0     -0.919500
     22 H1         -1.7740   -2.6750    3.3860 ho        1 PV0      0.247000
     23 H2         -1.0810   -4.4040    4.5910 ha        1 PV0      0.147000
     24 H3         -0.0670   -5.9450    6.0260 ho        1 PV0      0.238000
     25 H4          2.8560   -3.9220    5.9540 hc        1 PV0      0.183000
     26 H5          1.8590   -3.1990    7.2750 hc        1 PV0      0.183000
     27 H6         -1.3350   -1.3110    1.2550 ha        1 PV0      0.119500
     28 H7         -2.5780   -0.5430    0.1070 ha        1 PV0      0.119500
     29 H8         -0.2690    0.0450    2.4710 hn        1 PV0      0.249000
     30 H9          2.5110    0.0100    1.4550 h4        1 PV0      0.172000
     31 H10         2.5820    0.9010   -0.9460 ha        1 PV0      0.158000
     32 H11         0.8890   -1.3450   -2.3610 h4        1 PV0      0.140000
     33 H12        -2.2120    1.9440   -2.2000 ho        1 PV0      0.211000
     34 H13         2.1350   -0.4750   -4.0250 ho        1 PV0      0.227000
     35 O01        -1.0590   -2.0200    3.4610 oh        1 PV0     -0.227000
@<TRIPOS>BOND
     1    1    2 1   
     2    1   12 1   
     3    1   17 1   
     4    2   13 1   
     5    2   14 1   
     6    3    4 1   
     7    3    9 1   
     8    3   35 1   
     9    4    5 1   
    10    4   23 1   
    11    5    6 1   
    12    5    7 1   
    13    6   24 1   
    14    7    8 1   
    15    7   25 1   
    16    7   26 1   
    17    8    9 1   
    18    9   10 1   
    19   10   11 1   
    20   10   20 1   
    21   10   21 1   
    22   11   13 1   
    23   11   29 1   
    24   12   27 1   
    25   12   28 1   
    26   13   30 1   
    27   14   15 1   
    28   14   31 1   
    29   15   19 1   
    30   15   32 1   
    31   16   17 1   
    32   17   18 1   
    33   18   33 1   
    34   19   34 1   
    35   22   35 1   
@<TRIPOS>SUBSTRUCTURE
     1 PV0         1 TEMP              0 ****  ****    0 ROOT
