@<TRIPOS>MOLECULE
PV0
   35    37     1     0     0
SMALL
bcc


@<TRIPOS>ATOM
      1 C12         0.1180   -0.1970   -0.0690 ca        1 PV0     -0.281000
      2 C13         1.5270   -0.2340   -0.3490 ca        1 PV0      0.168000
      3 C02         0.0280   -3.1250    4.0010 c2        1 PV0      0.370000
      4 C03        -0.5700   -3.6560    5.1890 c2        1 PV0     -0.415000
      5 C04        -0.1720   -3.1900    6.4190 c2        1 PV0      0.194000
      6 O05        -0.6890   -3.6210    7.5900 oh        1 PV0     -0.217000
      7 C06         0.8880   -2.1460    6.5600 c3        1 PV0     -0.166000
      8 C07         1.4250   -1.6670    5.3060 c1        1 PV0     -0.107000
      9 C08         0.9940   -2.1190    4.0560 c2        1 PV0     -0.975000
     10 S09         1.9520   -1.2200    2.9780 s6        1 PV0      2.862000
     11 N10         1.1630   -1.7370    1.4350 n4        1 PV0     -0.357000
     12 C11        -0.1640   -1.0890    1.0970 c3        1 PV0      0.002000
     13 C14         2.1530   -1.1350    0.5520 c2        1 PV0     -0.613000
     14 C15         2.0590    0.5540   -1.3700 ca        1 PV0     -0.244000
     15 C16         1.1750    1.3580   -2.1020 ca        1 PV0      0.161000
     16 C17        -0.2080    1.3950   -1.8540 ca        1 PV0     -0.378000
     17 C18        -0.7290    0.6010   -0.8170 ca        1 PV0      0.180000
     18 O19        -2.0730    0.5840   -0.5140 oh        1 PV0     -0.269000
     19 O20         1.7380    2.1180   -3.1030 oh        1 PV0     -0.256000
     20 O21         1.7100    0.1320    3.1500 o         1 PV0     -0.866500
     21 O22         3.2290   -1.7690    2.9790 o         1 PV0     -0.866500
     22 H1         -1.0170   -4.3230    2.9160 ho        1 PV0      0.253000
     23 H2         -1.3440   -4.4320    5.0970 ha        1 PV0      0.149000
     24 H3         -1.3750   -4.2910    7.4280 ho        1 PV0      0.240000
     25 H4          0.4780   -1.2620    7.1360 hc        1 PV0      0.188000
     26 H5          1.7390   -2.5530    7.1850 hc        1 PV0      0.188000
     27 H6         -0.9250   -1.8790    0.8640 hx        1 PV0      0.107000
     28 H7         -0.4980   -0.4970    1.9940 hx        1 PV0      0.107000
     29 H8          1.0880   -2.7430    1.3120 hn        1 PV0      0.198000
     30 H9          3.0860   -1.6710    0.3770 hx        1 PV0      0.180000
     31 H10         3.1320    0.5580   -1.5940 ha        1 PV0      0.152000
     32 H11        -0.8680    2.0350   -2.4490 ha        1 PV0      0.126000
     33 H12        -2.5120    1.2220   -1.0960 ho        1 PV0      0.217000
     34 H13         1.0340    2.6400   -3.5130 ho        1 PV0      0.212000
     35 O01        -0.3520   -3.6230    2.7990 oh        1 PV0     -0.244000
@<TRIPOS>BOND
     1    1    2 1   
     2    1   12 1   
     3    1   17 1   
     4    2   13 1   
     5    2   14 1   
     6    3    4 1   
     7    3    9 1   
     8    3   35 1   
     9    4    5 1   
    10    4   23 1   
    11    5    6 1   
    12    5    7 1   
    13    6   24 1   
    14    7    8 1   
    15    7   25 1   
    16    7   26 1   
    17    8    9 1   
    18    9   10 1   
    19   10   11 1   
    20   10   20 1   
    21   10   21 1   
    22   11   12 1   
    23   11   13 1   
    24   11   29 1   
    25   12   27 1   
    26   12   28 1   
    27   13   30 1   
    28   14   15 1   
    29   14   31 1   
    30   15   16 1   
    31   15   19 1   
    32   16   17 1   
    33   16   32 1   
    34   17   18 1   
    35   18   33 1   
    36   19   34 1   
    37   22   35 1   
@<TRIPOS>SUBSTRUCTURE
     1 PV0         1 TEMP              0 ****  ****    0 ROOT
