@<TRIPOS>MOLECULE
PV0
   35    37     1     0     0
SMALL
bcc


@<TRIPOS>ATOM
      1 C12        -0.0230   -1.0440   -0.7430 c2        1 PV0      0.003000
      2 C13         0.9010   -0.4140    0.1910 c2        1 PV0     -0.130000
      3 C02        -0.4150   -1.2840    5.2470 c2        1 PV0      0.366000
      4 C03        -0.2270   -2.2550    6.2830 c2        1 PV0     -0.412000
      5 C04         0.8170   -3.1410    6.1930 c2        1 PV0      0.188000
      6 O05         1.0760   -4.0960    7.1160 oh        1 PV0     -0.224000
      7 C06         1.7730   -3.1210    5.0440 c3        1 PV0     -0.167000
      8 C07         1.4900   -2.1240    4.0260 c1        1 PV0     -0.114000
      9 C08         0.4270   -1.2340    4.1220 c2        1 PV0     -0.938000
     10 S09         0.3130   -0.1710    2.8370 s6        1 PV0      2.868000
     11 N10        -0.0730   -2.3210    1.2880 n7        1 PV0     -0.237000
     12 C11        -0.6920   -2.1860   -0.0410 c3        1 PV0     -0.069000
     13 C14         0.8470   -1.1840    1.4820 c3        1 PV0     -0.612000
     14 C15         1.6670    0.6380   -0.1540 c2        1 PV0     -0.083000
     15 C16         1.4510    1.2540   -1.5020 c3        1 PV0      0.009000
     16 C17         0.6910    0.4800   -2.4930 c1        1 PV0     -0.156000
     17 C18        -0.1250   -0.5850   -2.0300 c2        1 PV0     -0.029000
     18 O19        -0.9740   -1.2350   -2.9030 oh        1 PV0     -0.257000
     19 O20         2.6860    1.7530   -1.9930 oh        1 PV0     -0.303000
     20 O21        -1.0040    0.2540    2.6460 o         1 PV0     -0.937000
     21 O22         1.2650    0.8510    2.9620 o         1 PV0     -0.937000
     22 H1         -1.9280   -0.5300    6.1530 ho        1 PV0      0.243000
     23 H2         -0.9240   -2.2720    7.1330 ha        1 PV0      0.148000
     24 H3          0.4180   -4.0550    7.8310 ho        1 PV0      0.237000
     25 H4          1.7910   -4.1400    4.5570 hc        1 PV0      0.175500
     26 H5          2.8190   -2.9390    5.4340 hc        1 PV0      0.175500
     27 H6         -0.6220   -3.1290   -0.6480 h1        1 PV0      0.123500
     28 H7         -1.7830   -1.9460    0.1130 h1        1 PV0      0.123500
     29 H8          0.4520   -3.1760    1.3310 hn        1 PV0      0.152000
     30 H9          1.8880   -1.5530    1.7330 h2        1 PV0      0.179000
     31 H10         2.3960    1.1140    0.5190 ha        1 PV0      0.182000
     32 H11         0.7650    2.1620   -1.3220 h1        1 PV0      0.156000
     33 H12        -0.8840   -0.7880   -3.7600 ho        1 PV0      0.237000
     34 H13         2.6580    1.6630   -2.9560 ho        1 PV0      0.227000
     35 O01        -1.4050   -0.3750    5.3470 oh        1 PV0     -0.187000
@<TRIPOS>BOND
     1    1    2 1   
     2    1   12 1   
     3    1   17 1   
     4    2   13 1   
     5    2   14 1   
     6    3    4 1   
     7    3    9 1   
     8    3   35 1   
     9    4    5 1   
    10    4   23 1   
    11    5    6 1   
    12    5    7 1   
    13    6   24 1   
    14    7    8 1   
    15    7   25 1   
    16    7   26 1   
    17    8    9 1   
    18    9   10 1   
    19   10   13 1   
    20   10   20 1   
    21   10   21 1   
    22   11   12 1   
    23   11   13 1   
    24   11   29 1   
    25   12   27 1   
    26   12   28 1   
    27   13   30 1   
    28   14   15 1   
    29   14   31 1   
    30   15   16 1   
    31   15   19 1   
    32   15   32 1   
    33   16   17 1   
    34   17   18 1   
    35   18   33 1   
    36   19   34 1   
    37   22   35 1   
@<TRIPOS>SUBSTRUCTURE
     1 PV0         1 TEMP              0 ****  ****    0 ROOT
