@<TRIPOS>MOLECULE
PV0
   35    37     1     0     0
SMALL
bcc


@<TRIPOS>ATOM
      1 C12         2.3330   -0.1630   -0.4240 ca        1 PV0     -0.229300
      2 C13         2.2940    0.2600    0.9280 ca        1 PV0     -0.025300
      3 C02        -2.8590   -0.4520   -1.0910 ca        1 PV0      0.312100
      4 C03        -3.7340   -1.5050   -0.7500 ca        1 PV0     -0.289000
      5 C04        -4.0210   -1.7360    0.5930 ca        1 PV0      0.221100
      6 O05        -4.8560   -2.7360    1.0080 oh        1 PV0     -0.483100
      7 C06        -3.4570   -0.9270    1.6070 ca        1 PV0     -0.208000
      8 C07        -2.6010    0.0870    1.2400 ca        1 PV0      0.023000
      9 C08        -2.2570    0.3550   -0.1050 ca        1 PV0     -0.518500
     10 S09        -1.1780    1.6120   -0.3540 sy        1 PV0      1.546200
     11 N10         0.2720    0.9420   -0.0980 n3        1 PV0     -0.835500
     12 C11         1.0570    0.2430   -1.1090 c3        1 PV0      0.294100
     13 C14         0.9840    0.9640    1.1760 c3        1 PV0      0.279100
     14 C15         3.3350    0.0210    1.7970 ca        1 PV0     -0.165000
     15 C16         4.4580   -0.6730    1.2840 ca        1 PV0      0.165100
     16 C17         4.5290   -1.1020   -0.0430 ca        1 PV0     -0.246000
     17 C18         3.4440   -0.8390   -0.9070 ca        1 PV0      0.191100
     18 O19         3.5720   -1.2870   -2.1990 oh        1 PV0     -0.489100
     19 O20         5.4770   -0.8960    2.1790 oh        1 PV0     -0.492100
     20 O21        -1.2820    1.9920   -1.7180 o         1 PV0     -0.662300
     21 O22        -1.4010    2.6160    0.6100 o         1 PV0     -0.662300
     22 H1         -2.2450    0.5280   -2.6510 ho        1 PV0      0.471000
     23 H2         -4.1740   -2.1160   -1.5500 ha        1 PV0      0.160000
     24 H3         -5.1830   -3.2100    0.2280 ho        1 PV0      0.431000
     25 H4         -3.7150   -1.1200    2.6580 ha        1 PV0      0.162000
     26 H5         -2.1700    0.7360    2.0270 ha        1 PV0      0.153000
     27 H6          1.2590    0.9290   -1.9800 h1        1 PV0      0.053700
     28 H7          0.4960   -0.6600   -1.4830 h1        1 PV0      0.053700
     29 H8          0.3880    0.4260    1.9660 h1        1 PV0      0.065700
     30 H9          1.1500    2.0270    1.5080 h1        1 PV0      0.065700
     31 H10         3.3230    0.3420    2.8460 ha        1 PV0      0.160000
     32 H11         5.4060   -1.6370   -0.4290 ha        1 PV0      0.156000
     33 H12         2.7740   -1.0260   -2.6830 ho        1 PV0      0.425000
     34 H13         6.1870   -1.3670    1.7180 ho        1 PV0      0.425000
     35 O01        -2.6470   -0.3330   -2.4340 oh        1 PV0     -0.509100
@<TRIPOS>BOND
     1    1    2 ar  
     2    1   12 1   
     3    1   17 ar  
     4    2   13 1   
     5    2   14 ar  
     6    3    4 ar  
     7    3    9 ar  
     8    3   35 1   
     9    4    5 ar  
    10    4   23 1   
    11    5    6 1   
    12    5    7 ar  
    13    6   24 1   
    14    7    8 ar  
    15    7   25 1   
    16    8    9 ar  
    17    8   26 1   
    18    9   10 1   
    19   10   11 1   
    20   10   20 2   
    21   10   21 2   
    22   11   12 1   
    23   11   13 1   
    24   12   27 1   
    25   12   28 1   
    26   13   29 1   
    27   13   30 1   
    28   14   15 ar  
    29   14   31 1   
    30   15   16 ar  
    31   15   19 1   
    32   16   17 ar  
    33   16   32 1   
    34   17   18 1   
    35   18   33 1   
    36   19   34 1   
    37   22   35 1   
@<TRIPOS>SUBSTRUCTURE
     1 PV0         1 TEMP              0 ****  ****    0 ROOT
