@<TRIPOS>MOLECULE
PV1
   32    32     1     0     0
SMALL
bcc


@<TRIPOS>ATOM
      1 C6          0.2450   -0.6100   -1.0600 cg        1 PV1     -0.177300
      2 C5          0.9680    0.0720   -0.0690 ce        1 PV1     -0.023700
      3 O1          3.3450    2.0800    4.6050 o         1 PV1     -0.595100
      4 C4          0.4820    0.3240    1.1580 cf        1 PV1     -0.107000
      5 C3          1.2010    1.0380    2.2030 cf        1 PV1     -0.128200
      6 C2          0.5700    1.8860    3.0270 c2        1 PV1     -0.165000
      7 C1         -0.3550   -1.1890   -1.9210 c1        1 PV1     -0.130500
      8 N1          3.0680    0.0680    3.5430 n         1 PV1     -0.280400
      9 C7          2.6820    0.8060    2.3300 c3        1 PV1      0.052200
     10 C8          2.8800   -1.2240    3.6820 c1        1 PV1     -0.086500
     11 C9          3.6120    0.8630    4.6200 c         1 PV1      0.719700
     12 C14         5.2140   -1.6350    6.9910 ca        1 PV1     -0.177900
     13 C13         6.1490   -0.8100    7.6540 ca        1 PV1      0.226100
     14 C12         6.2460    0.5470    7.3340 ca        1 PV1     -0.230000
     15 C11         5.4070    1.0920    6.3480 ca        1 PV1      0.244100
     16 C15         4.4010   -1.0840    6.0050 ca        1 PV1      0.023000
     17 C10         4.4790    0.2720    5.6540 ca        1 PV1     -0.276600
     18 H1         -0.5420    0.0090    1.4290 ha        1 PV1      0.137000
     19 H2          1.9790    0.4030   -0.3750 ha        1 PV1      0.137000
     20 H3          6.8510   -2.1930    8.7790 ho        1 PV1      0.439000
     21 H4         -0.8840   -1.7010   -2.6830 ha        1 PV1      0.168500
     22 H5          4.9440    2.7860    5.5290 ho        1 PV1      0.458000
     23 H6         -0.5070    2.0860    2.9520 ha        1 PV1      0.131000
     24 H7          1.1070    2.4330    3.8170 ha        1 PV1      0.131000
     25 H8          3.2070    1.8050    2.3160 h1        1 PV1      0.075200
     26 H9          2.4240   -1.7550    2.8230 ha        1 PV1      0.013500
     27 H10         3.0560    0.2040    1.4530 h1        1 PV1      0.075200
     28 H11         6.9710    1.1900    7.8540 ha        1 PV1      0.178000
     29 H12         3.6690   -1.7350    5.4680 ha        1 PV1      0.223000
     30 O3          7.0040   -1.2440    8.6290 oh        1 PV1     -0.481100
     31 O2          5.6090    2.4250    6.1370 oh        1 PV1     -0.495100
     32 BR1         5.0390   -3.4530    7.4040 br        1 PV1     -0.077100
@<TRIPOS>BOND
     1    1    2 1   
     2    1    7 3   
     3    2    4 2   
     4    2   19 1   
     5    3   11 2   
     6    4    5 1   
     7    4   18 1   
     8    5    6 2   
     9    5    9 1   
    10    6   23 1   
    11    6   24 1   
    12    7   21 1   
    13    8    9 1   
    14    8   10 3   
    15    8   11 1   
    16    9   25 1   
    17    9   27 1   
    18   10   26 1   
    19   11   17 1   
    20   12   13 ar  
    21   12   16 ar  
    22   12   32 1   
    23   13   14 ar  
    24   13   30 1   
    25   14   15 ar  
    26   14   28 1   
    27   15   17 ar  
    28   15   31 1   
    29   16   17 ar  
    30   16   29 1   
    31   20   30 1   
    32   22   31 1   
@<TRIPOS>SUBSTRUCTURE
     1 PV1         1 TEMP              0 ****  ****    0 ROOT
