@<TRIPOS>MOLECULE
PV1
   32    31     1     0     0
SMALL
bcc


@<TRIPOS>ATOM
      1 C6         -0.6790   -0.7240   -0.5290 c2        1 PV1     -0.453000
      2 C5          0.6920   -0.3030   -0.3510 c2        1 PV1     -0.078000
      3 O1          7.3850    0.4760    3.4430 o         1 PV1     -0.319000
      4 C4          1.2760   -0.0350    0.8260 c2        1 PV1     -0.139000
      5 C3          0.6670   -0.1380    2.1460 c2        1 PV1     -0.077000
      6 C2         -0.1050   -1.1650    2.5240 c2        1 PV1     -0.223000
      7 C1         -1.2360   -1.2250   -1.6100 c1        1 PV1      0.196000
      8 N1          5.2150    0.7450    2.8760 n2        1 PV1     -0.382000
      9 C7          1.0000    0.9770    3.0710 c3        1 PV1     -0.182000
     10 C8          4.4100    0.9140    2.0210 c1        1 PV1      0.201000
     11 C9          6.2080    0.5470    3.8340 c2        1 PV1      0.434000
     12 C14         4.0670    0.3580    6.9590 ca        1 PV1     -0.311000
     13 C13         5.0580    0.2230    7.9610 ca        1 PV1      0.185000
     14 C12         6.4110    0.1910    7.6170 ca        1 PV1     -0.224000
     15 C11         6.7940    0.2950    6.2670 ca        1 PV1      0.214000
     16 C15         4.4630    0.4610    5.6310 ca        1 PV1      0.022000
     17 C10         5.8150    0.4340    5.2520 ca        1 PV1     -0.269000
     18 H1         -1.3360   -0.6010    0.3650 ha        1 PV1      0.200000
     19 H2          1.2750   -0.1830   -1.2820 ha        1 PV1      0.128000
     20 H3          3.8250    0.1440    9.4270 ho        1 PV1      0.240000
     21 H4         -0.3360   -2.0050    1.8570 ha        1 PV1      0.116000
     22 H5          8.3680    0.3120    5.1350 ho        1 PV1      0.266000
     23 H6         -0.5350   -1.2320    3.5320 ha        1 PV1      0.116000
     24 H7          0.6140    0.7830    4.1010 hc        1 PV1      0.081333
     25 H8          2.1110    1.1130    3.1240 hc        1 PV1      0.081333
     26 H9          2.3260    0.3210    0.8400 ha        1 PV1      0.150000
     27 H10         0.5520    1.9310    2.6970 hc        1 PV1      0.081333
     28 H11         7.1800    0.0840    8.3980 ha        1 PV1      0.183000
     29 H12         3.6780    0.5640    4.8590 ha        1 PV1      0.158000
     30 O3          4.7890    0.1150    9.2960 oh        1 PV1     -0.229000
     31 O2          8.1400    0.2490    6.0780 oh        1 PV1     -0.242000
     32 BR1         2.2430    0.4030    7.3770 br        1 PV1      0.072000
@<TRIPOS>BOND
     1    1    2 1   
     2    1    7 1   
     3    1   18 1   
     4    2    4 1   
     5    2   19 1   
     6    3   11 1   
     7    4    5 1   
     8    4   26 1   
     9    5    6 1   
    10    5    9 1   
    11    6   21 1   
    12    6   23 1   
    13    8   10 1   
    14    8   11 1   
    15    9   24 1   
    16    9   25 1   
    17    9   27 1   
    18   11   17 1   
    19   12   13 1   
    20   12   16 1   
    21   12   32 1   
    22   13   14 1   
    23   13   30 1   
    24   14   15 1   
    25   14   28 1   
    26   15   17 1   
    27   15   31 1   
    28   16   17 1   
    29   16   29 1   
    30   20   30 1   
    31   22   31 1   
@<TRIPOS>SUBSTRUCTURE
     1 PV1         1 TEMP              0 ****  ****    0 ROOT
