@<TRIPOS>MOLECULE
PV1
   32    32     1     0     0
SMALL
bcc


@<TRIPOS>ATOM
      1 C6         -0.0860   -1.1820   -0.3140 c1        1 PV1     -0.151000
      2 C5          1.1860   -0.7990   -0.2320 c1        1 PV1     -0.042000
      3 O1          4.3090    2.4030    4.1490 o         1 PV1     -0.350000
      4 C4          1.9920    0.0450    0.5910 c3        1 PV1     -0.105000
      5 C3          1.4010    0.8230    1.7200 c2        1 PV1     -0.171000
      6 C2          0.0950    1.0030    1.9210 c2        1 PV1     -0.176000
      7 C1         -1.1930   -1.6420   -0.5380 c1        1 PV1     -0.154000
      8 N1          2.9530    0.6170    3.6720 n         1 PV1     -0.177000
      9 C7          2.4130    1.4840    2.6120 c3        1 PV1     -0.076000
     10 C8          2.5790   -0.6170    3.9180 c1        1 PV1     -0.147000
     11 C9          3.9860    1.2410    4.4620 c2        1 PV1      0.384000
     12 C14         4.5850   -1.1210    7.3730 ca        1 PV1     -0.319000
     13 C13         5.9310   -0.8230    7.6830 ca        1 PV1      0.181000
     14 C12         6.6250    0.1520    6.9590 ca        1 PV1     -0.227000
     15 C11         5.9790    0.8330    5.9140 ca        1 PV1      0.197000
     16 C15         3.9660   -0.4520    6.3200 ca        1 PV1      0.054000
     17 C10         4.6400    0.5220    5.5690 ca        1 PV1     -0.247000
     18 H1          2.5060    0.7710   -0.1150 hc        1 PV1      0.152000
     19 H2          2.8170   -0.6230    0.9930 hc        1 PV1      0.152000
     20 H3          6.0730   -2.0840    9.1170 ho        1 PV1      0.237000
     21 H4         -2.1440   -2.0570   -0.7540 ha        1 PV1      0.230000
     22 H5          6.2450    2.2730    4.6500 ho        1 PV1      0.255000
     23 H6         -0.6710    0.5720    1.2600 ha        1 PV1      0.127000
     24 H7         -0.2950    1.5970    2.7600 ha        1 PV1      0.127000
     25 H8          1.9560    2.3880    3.1080 h1        1 PV1      0.112500
     26 H9          1.7890   -1.0430    3.2650 ha        1 PV1      0.070000
     27 H10         3.2770    1.8500    1.9840 h1        1 PV1      0.112500
     28 H11         7.6700    0.3900    7.2080 ha        1 PV1      0.178000
     29 H12         2.9180   -0.7070    6.0680 ha        1 PV1      0.190000
     30 O3          6.6420   -1.4270    8.6820 oh        1 PV1     -0.235000
     31 O2          6.7640    1.7580    5.2900 oh        1 PV1     -0.247000
     32 Br1         3.6120   -2.3960    8.3390 br        1 PV1      0.063000
@<TRIPOS>BOND
     1    1    2 1   
     2    1    7 1   
     3    2    4 1   
     4    3   11 1   
     5    4    5 1   
     6    4   18 1   
     7    4   19 1   
     8    5    6 1   
     9    5    9 1   
    10    6   23 1   
    11    6   24 1   
    12    7   21 1   
    13    8    9 1   
    14    8   10 1   
    15    8   11 1   
    16    9   25 1   
    17    9   27 1   
    18   10   26 1   
    19   11   17 1   
    20   12   13 1   
    21   12   16 1   
    22   12   32 1   
    23   13   14 1   
    24   13   30 1   
    25   14   15 1   
    26   14   28 1   
    27   15   17 1   
    28   15   31 1   
    29   16   17 1   
    30   16   29 1   
    31   20   30 1   
    32   22   31 1   
@<TRIPOS>SUBSTRUCTURE
     1 PV1         1 TEMP              0 ****  ****    0 ROOT
