@<TRIPOS>MOLECULE
PV1
   32    34     1     0     0
SMALL
bcc


@<TRIPOS>ATOM
      1 C6          5.8460    1.0300    0.5600 ca        1 PV1     -0.125500
      2 C5          5.3270   -0.0410   -0.1840 ca        1 PV1     -0.104500
      3 O1          1.0840   -2.9670   -0.8870 o         1 PV1     -0.623100
      4 C4          3.9560   -0.1320   -0.3300 ca        1 PV1     -0.108800
      5 C3          3.0980    0.8310    0.2580 ca        1 PV1     -0.108800
      6 C2          3.6100    1.8840    0.9910 ca        1 PV1     -0.104500
      7 C1          5.0030    1.9750    1.1380 ca        1 PV1     -0.125500
      8 N1          1.7250   -0.7720   -0.8230 n         1 PV1     -0.440800
      9 C7          1.6690    0.4890   -0.0720 c3        1 PV1      0.120300
     10 C8          3.1280   -1.1540   -1.0600 c3        1 PV1      0.120300
     11 C9          0.7820   -1.7770   -0.6330 c         1 PV1      0.675700
     12 C14        -2.5110    0.0780   -0.2640 ca        1 PV1     -0.168900
     13 C13        -3.2010   -0.7780    0.6220 ca        1 PV1      0.213100
     14 C12        -2.6100   -1.9620    1.0760 ca        1 PV1     -0.214000
     15 C11        -1.3140   -2.2940    0.6510 ca        1 PV1      0.236100
     16 C15        -1.2180   -0.2620   -0.6600 ca        1 PV1      0.003000
     17 C10        -0.5930   -1.4230   -0.1990 ca        1 PV1     -0.265600
     18 H1          6.9360    1.1190    0.6860 ha        1 PV1      0.135500
     19 H2          6.0000   -0.7830   -0.6360 ha        1 PV1      0.140000
     20 H3         -4.7930    0.2870    0.6990 ho        1 PV1      0.437000
     21 H4          2.9520    2.6350    1.4500 ha        1 PV1      0.140000
     22 H5         -0.0200   -3.7220    0.6640 ho        1 PV1      0.462000
     23 H6          5.4290    2.8070    1.7180 ha        1 PV1      0.135500
     24 H7          1.0390    0.3940    0.8540 h1        1 PV1      0.071950
     25 H8          1.2220    1.2830   -0.7330 h1        1 PV1      0.071950
     26 H9          3.3200   -1.1160   -2.1680 h1        1 PV1      0.071950
     27 H10         3.3330   -2.1990   -0.6960 h1        1 PV1      0.071950
     28 H11        -3.1590   -2.6320    1.7530 ha        1 PV1      0.178000
     29 H12        -0.6810    0.3950   -1.3670 ha        1 PV1      0.158000
     30 O3         -4.4650   -0.5390    1.0910 oh        1 PV1     -0.481100
     31 O2         -0.8320   -3.4720    1.1410 oh        1 PV1     -0.493100
     32 BR1        -3.2800    1.6520   -0.9240 br        1 PV1     -0.078100
@<TRIPOS>BOND
     1    1    2 ar  
     2    1    7 ar  
     3    1   18 1   
     4    2    4 ar  
     5    2   19 1   
     6    3   11 2   
     7    4    5 ar  
     8    4   10 1   
     9    5    6 ar  
    10    5    9 1   
    11    6    7 ar  
    12    6   21 1   
    13    7   23 1   
    14    8    9 1   
    15    8   10 1   
    16    8   11 1   
    17    9   24 1   
    18    9   25 1   
    19   10   26 1   
    20   10   27 1   
    21   11   17 1   
    22   12   13 ar  
    23   12   16 ar  
    24   12   32 1   
    25   13   14 ar  
    26   13   30 1   
    27   14   15 ar  
    28   14   28 1   
    29   15   17 ar  
    30   15   31 1   
    31   16   17 ar  
    32   16   29 1   
    33   20   30 1   
    34   22   31 1   
@<TRIPOS>SUBSTRUCTURE
     1 PV1         1 TEMP              0 ****  ****    0 ROOT
