@<TRIPOS>MOLECULE
PV2
   33    35     1     0     0
SMALL
bcc


@<TRIPOS>ATOM
      1 O2         -4.5520   -2.5100    0.9120 oh        1 PV2     -0.484100
      2 C2         -1.7270    0.3980   -0.1470 ca        1 PV2     -0.516500
      3 C1         -2.0720    0.1130    1.1950 ca        1 PV2      0.024000
      4 C4         -3.3590   -1.3150   -0.8250 ca        1 PV2     -0.290000
      5 C5         -3.6440   -1.5670    0.5140 ca        1 PV2      0.220100
      6 C6         -3.0010   -0.8410    1.5440 ca        1 PV2     -0.209000
      7 C3         -2.4060   -0.3250   -1.1480 ca        1 PV2      0.313100
      8 O3         -0.6340    1.9920   -1.7260 o         1 PV2     -0.663300
      9 C11         3.8640   -0.3120    1.7380 ca        1 PV2     -0.107000
     10 C12         4.9180   -1.0910    1.2350 ca        1 PV2     -0.126000
     11 C13         4.9090   -1.5410   -0.0820 ca        1 PV2     -0.126000
     12 C14         3.8460   -1.2300   -0.9440 ca        1 PV2     -0.107000
     13 O4         -0.7120    2.5780    0.6110 o         1 PV2     -0.663300
     14 O1         -2.2080   -0.1790   -2.4900 oh        1 PV2     -0.507100
     15 N           0.8370    0.8010   -0.1220 n3        1 PV2     -0.840500
     16 C10         1.5530    0.0210   -1.1270 c3        1 PV2      0.281100
     17 C9          2.8080   -0.4650   -0.4500 ca        1 PV2     -0.097300
     18 C8          2.8170   -0.0060    0.8910 ca        1 PV2     -0.097300
     19 C7          1.5680    0.7970    1.1420 c3        1 PV2      0.281100
     20 H1         -4.9280   -2.9280    0.1210 ho        1 PV2      0.431000
     21 H2         -1.5770    0.6970    1.9940 ha        1 PV2      0.152000
     22 H3         -3.8590   -1.8610   -1.6370 ha        1 PV2      0.160000
     23 H4         -3.2580   -1.0480    2.5920 ha        1 PV2      0.161000
     24 H6          5.7610   -1.3450    1.8950 ha        1 PV2      0.135000
     25 H7          5.7460   -2.1500   -0.4580 ha        1 PV2      0.135000
     26 H8          3.8480   -1.5890   -1.9830 ha        1 PV2      0.139000
     27 H9         -1.7170    0.6380   -2.6870 ho        1 PV2      0.472000
     28 H10         0.9230   -0.8490   -1.4680 h1        1 PV2      0.061450
     29 H11         1.7940    0.6670   -2.0170 h1        1 PV2      0.061450
     30 H12         1.8140    1.8530    1.4490 h1        1 PV2      0.061450
     31 H13         0.9430    0.3240    1.9510 h1        1 PV2      0.061450
     32 S          -0.5570    1.5770   -0.3700 sy        1 PV2      1.546200
     33 H5          3.8800    0.0410    2.7790 ha        1 PV2      0.139000
@<TRIPOS>BOND
     1    1    5 1   
     2    1   20 1   
     3    2    3 ar  
     4    2    7 ar  
     5    2   32 1   
     6    3    6 ar  
     7    3   21 1   
     8    4    5 ar  
     9    4    7 ar  
    10    4   22 1   
    11    5    6 ar  
    12    6   23 1   
    13    7   14 1   
    14    8   32 2   
    15    9   10 ar  
    16    9   18 ar  
    17    9   33 1   
    18   10   11 ar  
    19   10   24 1   
    20   11   12 ar  
    21   11   25 1   
    22   12   17 ar  
    23   12   26 1   
    24   13   32 2   
    25   14   27 1   
    26   15   16 1   
    27   15   19 1   
    28   15   32 1   
    29   16   17 1   
    30   16   28 1   
    31   16   29 1   
    32   17   18 ar  
    33   18   19 1   
    34   19   30 1   
    35   19   31 1   
@<TRIPOS>SUBSTRUCTURE
     1 PV2         1 TEMP              0 ****  ****    0 ROOT
