@<TRIPOS>MOLECULE
PV2
   33    34     1     0     0
SMALL
bcc


@<TRIPOS>ATOM
      1 O2          2.0060    2.4840   -1.2540 oh        1 PV2     -0.232000
      2 C2          3.8550   -0.7510    0.2230 c2        1 PV2     -1.027000
      3 C1          2.8830   -1.1930    1.2110 c2        1 PV2     -0.403000
      4 C4          1.9270    0.1420   -1.0420 c2        1 PV2     -0.299000
      5 C5          1.2980    1.3200   -1.2500 c2        1 PV2      0.100000
      6 C6          1.5700   -1.0500    1.1260 c1        1 PV2      0.183000
      7 C3          3.3620   -0.0240   -0.8490 c2        1 PV2      0.360000
      8 O3          6.2450   -0.3310   -0.2100 o         1 PV2     -0.890000
      9 C11         8.7570   -4.1400   -1.2470 c3        1 PV2     -0.102000
     10 C12         9.0300   -4.4410   -2.6800 c2        1 PV2     -0.185000
     11 C13         8.1190   -4.2690   -3.6590 c2        1 PV2     -0.126000
     12 C14         6.7760   -3.7730   -3.4240 c1        1 PV2     -0.178000
     13 O4          5.6330   -1.2660    1.9360 o         1 PV2     -0.890000
     14 O1          4.0970    0.5590   -1.8120 oh        1 PV2     -0.209000
     15 N           5.4130   -2.8210   -0.0690 n4        1 PV2     -0.374000
     16 C10         5.1940   -2.9590   -1.5750 c3        1 PV2      0.009000
     17 C9          6.4850   -3.4880   -2.1200 c2        1 PV2     -0.330000
     18 C8          7.3860   -3.6510   -1.0150 c2        1 PV2      0.115000
     19 C7          6.7810   -3.2810    0.1720 c2        1 PV2     -0.478000
     20 H1          1.3870    3.2170   -1.3990 ho        1 PV2      0.236000
     21 H2          3.2870   -1.6300    2.1530 ha        1 PV2      0.202000
     22 H3          1.3360   -0.7960   -1.0540 ha        1 PV2      0.191000
     23 H4          0.2040    1.3830   -1.3860 h4        1 PV2      0.151000
     24 H6          8.9310   -5.0680   -0.6330 hc        1 PV2      0.116000
     25 H7         10.0440   -4.8160   -2.8810 ha        1 PV2      0.114000
     26 H8          8.3690   -4.5060   -4.7050 ha        1 PV2      0.126000
     27 H9          5.0610    0.4920   -1.6470 ho        1 PV2      0.282000
     28 H10         4.3350   -3.6550   -1.7630 hx        1 PV2      0.104000
     29 H11         4.9490   -1.9370   -1.9760 hx        1 PV2      0.104000
     30 H12         4.7510   -3.4180    0.4190 hn        1 PV2      0.225000
     31 H13         7.1080   -3.3880    1.2060 hx        1 PV2      0.189000
     32 S           5.4000   -1.1350    0.5650 s6        1 PV2      2.803000
     33 H5          9.4910   -3.3640   -0.8880 hc        1 PV2      0.116000
@<TRIPOS>BOND
     1    1    5 1   
     2    1   20 1   
     3    2    3 1   
     4    2    7 1   
     5    2   32 1   
     6    3    6 1   
     7    3   21 1   
     8    4    5 1   
     9    4    7 1   
    10    4   22 1   
    11    5   23 1   
    12    7   14 1   
    13    8   32 1   
    14    9   10 1   
    15    9   18 1   
    16    9   24 1   
    17    9   33 1   
    18   10   11 1   
    19   10   25 1   
    20   11   12 1   
    21   11   26 1   
    22   12   17 1   
    23   13   32 1   
    24   14   27 1   
    25   15   16 1   
    26   15   19 1   
    27   15   30 1   
    28   15   32 1   
    29   16   17 1   
    30   16   28 1   
    31   16   29 1   
    32   17   18 1   
    33   18   19 1   
    34   19   31 1   
@<TRIPOS>SUBSTRUCTURE
     1 PV2         1 TEMP              0 ****  ****    0 ROOT
