@<TRIPOS>MOLECULE
PV2
   33    34     1     0     0
SMALL
bcc


@<TRIPOS>ATOM
      1 O2          1.2520   -0.2290   -2.4150 oh        1 PV2     -0.213000
      2 C2          4.6170   -0.4760    0.2140 c2        1 PV2     -1.041000
      3 C1          4.5370   -1.5150    1.2330 c2        1 PV2     -0.429000
      4 C4          2.4040   -1.2470   -0.6270 c2        1 PV2     -0.279000
      5 C5          1.3520   -1.2110   -1.4830 c2        1 PV2      0.108000
      6 C6          3.8670   -1.5140    2.3650 c1        1 PV2      0.235000
      7 C3          3.5280   -0.3400   -0.6450 c2        1 PV2      0.393000
      8 O3          5.9060    1.4730   -0.5870 o         1 PV2     -0.911000
      9 C11         6.9060   -4.5140   -0.6100 c3        1 PV2     -0.096000
     10 C12         6.3170   -5.3250   -1.7120 c2        1 PV2     -0.198000
     11 C13         5.8630   -4.7900   -2.8620 c2        1 PV2     -0.118000
     12 C14         5.8890   -3.3670   -3.1500 c1        1 PV2     -0.199000
     13 O4          6.6660    0.4470    1.4270 o         1 PV2     -0.911000
     14 O1          3.4100    0.6300   -1.5750 oh        1 PV2     -0.215000
     15 N           7.1210   -0.7410   -0.7880 nx        1 PV2     -0.379000
     16 C10         6.5880   -1.0970   -2.1740 c3        1 PV2      0.005000
     17 C9          6.4230   -2.5870   -2.1690 c2        1 PV2     -0.327000
     18 C8          6.9140   -3.0680   -0.9040 c2        1 PV2      0.085000
     19 C7          7.3090   -2.0200   -0.1000 c2        1 PV2     -0.442000
     20 H1          0.4790   -0.4130   -2.9740 ho        1 PV2      0.233000
     21 H2          5.1280   -2.4400    1.0080 ha        1 PV2      0.213000
     22 H3          2.4490   -2.0530    0.1250 ha        1 PV2      0.180000
     23 H4          0.5500   -1.9700   -1.4460 h4        1 PV2      0.147000
     24 H6          6.3310   -4.7020    0.3400 hc        1 PV2      0.108000
     25 H7          6.2880   -6.4070   -1.5140 ha        1 PV2      0.112000
     26 H8          5.4430   -5.4330   -3.6520 ha        1 PV2      0.123000
     27 H9          4.1630    1.2540   -1.5700 ho        1 PV2      0.274000
     28 H10         7.3230   -0.7560   -2.9500 hx        1 PV2      0.105500
     29 H11         5.6150   -0.5540   -2.3180 hx        1 PV2      0.105500
     30 H12         8.0270   -0.2890   -0.8960 hn        1 PV2      0.224000
     31 H13         7.7960   -2.0020    0.8750 hx        1 PV2      0.186000
     32 S           6.0100    0.3070    0.2070 s6        1 PV2      2.812000
     33 H5          7.9640   -4.8570   -0.4290 hc        1 PV2      0.108000
@<TRIPOS>BOND
     1    1    5 1   
     2    1   20 1   
     3    2    3 1   
     4    2    7 1   
     5    2   32 1   
     6    3    6 1   
     7    3   21 1   
     8    4    5 1   
     9    4    7 1   
    10    4   22 1   
    11    5   23 1   
    12    7   14 1   
    13    8   32 1   
    14    9   10 1   
    15    9   18 1   
    16    9   24 1   
    17    9   33 1   
    18   10   11 1   
    19   10   25 1   
    20   11   12 1   
    21   11   26 1   
    22   12   17 1   
    23   13   32 1   
    24   14   27 1   
    25   15   16 1   
    26   15   19 1   
    27   15   30 1   
    28   15   32 1   
    29   16   17 1   
    30   16   28 1   
    31   16   29 1   
    32   17   18 1   
    33   18   19 1   
    34   19   31 1   
@<TRIPOS>SUBSTRUCTURE
     1 PV2         1 TEMP              0 ****  ****    0 ROOT
