@<TRIPOS>MOLECULE
PV4
   33    34     1     0     0
SMALL
bcc


@<TRIPOS>ATOM
      1 O17         0.2740    0.5220    0.3530 oh        1 PV4     -0.492100
      2 C6          1.6280    0.4920    0.1380 ca        1 PV4      0.133100
      3 C5          2.5680    0.8330    1.1310 ca        1 PV4     -0.002900
      4 O7          2.0630    1.3200    2.3360 os        1 PV4     -0.260200
      5 C8          2.4210    0.6180    3.4840 ca        1 PV4      0.107100
      6 C13         2.1860    1.3010    4.6890 ca        1 PV4     -0.165500
      7 C12         2.4650    0.6570    5.8900 ca        1 PV4     -0.103000
      8 C11         2.9760   -0.6420    5.8960 ca        1 PV4     -0.155000
      9 C10         3.2090   -1.3070    4.6930 ca        1 PV4     -0.103000
     10 C9          2.9330   -0.6840    3.4770 ca        1 PV4     -0.165500
     11 C4          3.9370    0.8000    0.8500 ca        1 PV4     -0.105000
     12 C3          4.3640    0.4250   -0.4190 ca        1 PV4     -0.155000
     13 C2          3.4380    0.0830   -1.4160 ca        1 PV4     -0.046300
     14 C1          2.0700    0.1190   -1.1410 ca        1 PV4     -0.151000
     15 C14         3.9170   -0.3050   -2.7710 c3        1 PV4     -0.041100
     16 C15         4.5500   -1.6840   -2.7710 c3        1 PV4     -0.077400
     17 C16         5.0640   -2.0500   -4.1390 c3        1 PV4     -0.094100
     18 H17         0.1250    0.7990    1.2720 ho        1 PV4      0.437000
     19 H1          1.3260   -0.1410   -1.9080 ha        1 PV4      0.154000
     20 H4          4.6580    1.0700    1.6350 ha        1 PV4      0.149000
     21 H13         1.7850    2.3240    4.6670 ha        1 PV4      0.149500
     22 H9          3.1180   -1.2030    2.5250 ha        1 PV4      0.149500
     23 H12         2.2830    1.1800    6.8410 ha        1 PV4      0.135000
     24 H11         3.1950   -1.1410    6.8510 ha        1 PV4      0.134000
     25 H10         3.6110   -2.3310    4.6980 ha        1 PV4      0.135000
     26 H3          5.4400    0.3980   -0.6470 ha        1 PV4      0.138000
     27 H141        3.0650   -0.2890   -3.5020 hc        1 PV4      0.051700
     28 H142        4.6710    0.4490   -3.1250 hc        1 PV4      0.051700
     29 H151        3.7950   -2.4420   -2.4350 hc        1 PV4      0.043700
     30 H152        5.3940   -1.7060   -2.0300 hc        1 PV4      0.043700
     31 H161        5.5240   -3.0670   -4.1200 hc        1 PV4      0.034700
     32 H162        4.2320   -2.0530   -4.8850 hc        1 PV4      0.034700
     33 H163        5.8370   -1.3190   -4.4800 hc        1 PV4      0.034700
@<TRIPOS>BOND
     1    1    2 1   
     2    1   18 1   
     3    2    3 ar  
     4    2   14 ar  
     5    3    4 1   
     6    3   11 ar  
     7    4    5 1   
     8    5    6 ar  
     9    5   10 ar  
    10    6    7 ar  
    11    6   21 1   
    12    7    8 ar  
    13    7   23 1   
    14    8    9 ar  
    15    8   24 1   
    16    9   10 ar  
    17    9   25 1   
    18   10   22 1   
    19   11   12 ar  
    20   11   20 1   
    21   12   13 ar  
    22   12   26 1   
    23   13   14 ar  
    24   13   15 1   
    25   14   19 1   
    26   15   16 1   
    27   15   27 1   
    28   15   28 1   
    29   16   17 1   
    30   16   29 1   
    31   16   30 1   
    32   17   31 1   
    33   17   32 1   
    34   17   33 1   
@<TRIPOS>SUBSTRUCTURE
     1 PV4         1 TEMP              0 ****  ****    0 ROOT
