@<TRIPOS>MOLECULE
PV4
   33    34     1     0     0
SMALL
bcc


@<TRIPOS>ATOM
      1 O17        -0.2840    2.7670   -0.0620 oh        1 PV4     -0.492100
      2 C6         -0.7170    1.5050   -0.3840 ca        1 PV4      0.133100
      3 C5          0.1400    0.5080   -0.8900 ca        1 PV4     -0.002900
      4 O7          1.4530    0.8860   -1.1650 os        1 PV4     -0.260200
      5 C8          2.4530    0.1720   -0.5080 ca        1 PV4      0.107100
      6 C13         3.7420    0.3390   -1.0410 ca        1 PV4     -0.165500
      7 C12         4.8120   -0.2960   -0.4170 ca        1 PV4     -0.103000
      8 C11         4.6050   -1.0890    0.7130 ca        1 PV4     -0.155000
      9 C10         3.3190   -1.2500    1.2280 ca        1 PV4     -0.103000
     10 C9          2.2320   -0.6210    0.6230 ca        1 PV4     -0.165500
     11 C4         -0.3600   -0.7560   -1.2160 ca        1 PV4     -0.105000
     12 C3         -1.7120   -1.0230   -1.0320 ca        1 PV4     -0.155000
     13 C2         -2.5750   -0.0380   -0.5290 ca        1 PV4     -0.046300
     14 C1         -2.0810    1.2270   -0.2060 ca        1 PV4     -0.151000
     15 C14        -4.0220   -0.3420   -0.3510 c3        1 PV4     -0.041100
     16 C15        -4.2620   -1.2730    0.8240 c3        1 PV4     -0.077400
     17 C16        -5.7260   -1.6010    0.9700 c3        1 PV4     -0.094100
     18 H17         0.6700    2.8080   -0.2400 ho        1 PV4      0.437000
     19 H1         -2.7410    2.0150    0.1850 ha        1 PV4      0.154000
     20 H4          0.3220   -1.5240   -1.6110 ha        1 PV4      0.149000
     21 H13         3.8880    0.9660   -1.9320 ha        1 PV4      0.149500
     22 H9          1.2150   -0.7460    1.0230 ha        1 PV4      0.149500
     23 H12         5.8270   -0.1720   -0.8230 ha        1 PV4      0.135000
     24 H11         5.4570   -1.5880    1.1960 ha        1 PV4      0.134000
     25 H10         3.1560   -1.8750    2.1190 ha        1 PV4      0.135000
     26 H3         -2.1130   -2.0150   -1.2870 ha        1 PV4      0.138000
     27 H141       -4.6000    0.6080   -0.1950 hc        1 PV4      0.051700
     28 H142       -4.4160   -0.8190   -1.2890 hc        1 PV4      0.051700
     29 H151       -3.6740   -2.2170    0.6760 hc        1 PV4      0.043700
     30 H152       -3.8860   -0.7910    1.7640 hc        1 PV4      0.043700
     31 H161       -5.8830   -2.2840    1.8390 hc        1 PV4      0.034700
     32 H162       -6.3240   -0.6730    1.1390 hc        1 PV4      0.034700
     33 H163       -6.1120   -2.1040    0.0510 hc        1 PV4      0.034700
@<TRIPOS>BOND
     1    1    2 1   
     2    1   18 1   
     3    2    3 ar  
     4    2   14 ar  
     5    3    4 1   
     6    3   11 ar  
     7    4    5 1   
     8    5    6 ar  
     9    5   10 ar  
    10    6    7 ar  
    11    6   21 1   
    12    7    8 ar  
    13    7   23 1   
    14    8    9 ar  
    15    8   24 1   
    16    9   10 ar  
    17    9   25 1   
    18   10   22 1   
    19   11   12 ar  
    20   11   20 1   
    21   12   13 ar  
    22   12   26 1   
    23   13   14 ar  
    24   13   15 1   
    25   14   19 1   
    26   15   16 1   
    27   15   27 1   
    28   15   28 1   
    29   16   17 1   
    30   16   29 1   
    31   16   30 1   
    32   17   31 1   
    33   17   32 1   
    34   17   33 1   
@<TRIPOS>SUBSTRUCTURE
     1 PV4         1 TEMP              0 ****  ****    0 ROOT
