@<TRIPOS>MOLECULE
PV4
   33    34     1     0     0
SMALL
bcc


@<TRIPOS>ATOM
      1 O17         0.2330    0.3570    0.3670 oh        1 PV4     -0.492100
      2 C6          1.5860    0.3980    0.1420 ca        1 PV4      0.133100
      3 C5          2.5130    0.7990    1.1240 ca        1 PV4     -0.002900
      4 O7          1.9910    1.2710    2.3280 os        1 PV4     -0.260200
      5 C8          2.3940    0.6010    3.4810 ca        1 PV4      0.107100
      6 C13         2.1310    1.2840    4.6800 ca        1 PV4     -0.165500
      7 C12         2.4520    0.6680    5.8860 ca        1 PV4     -0.103000
      8 C11         3.0310   -0.6020    5.9020 ca        1 PV4     -0.155000
      9 C10         3.2900   -1.2660    4.7040 ca        1 PV4     -0.103000
     10 C9          2.9740   -0.6720    3.4830 ca        1 PV4     -0.165500
     11 C4          3.8800    0.8370    0.8340 ca        1 PV4     -0.105000
     12 C3          4.3180    0.4710   -0.4340 ca        1 PV4     -0.155000
     13 C2          3.4040    0.0690   -1.4200 ca        1 PV4     -0.046300
     14 C1          2.0380    0.0340   -1.1360 ca        1 PV4     -0.151000
     15 C14         3.8950   -0.3080   -2.7750 c3        1 PV4     -0.041100
     16 C15         4.6020   -1.6510   -2.7640 c3        1 PV4     -0.077400
     17 C16         5.1250   -2.0030   -4.1330 c3        1 PV4     -0.094100
     18 H17         0.0760    0.6360    1.2840 ho        1 PV4      0.437000
     19 H1          1.3050   -0.2730   -1.8950 ha        1 PV4      0.154000
     20 H4          4.5910    1.1530    1.6110 ha        1 PV4      0.149000
     21 H13         1.6760    2.2840    4.6500 ha        1 PV4      0.149500
     22 H9          3.1790   -1.1900    2.5350 ha        1 PV4      0.149500
     23 H12         2.2490    1.1910    6.8330 ha        1 PV4      0.135000
     24 H11         3.2820   -1.0780    6.8600 ha        1 PV4      0.134000
     25 H10         3.7460   -2.2680    4.7160 ha        1 PV4      0.135000
     26 H3          5.3920    0.4990   -0.6700 ha        1 PV4      0.138000
     27 H141        3.0380   -0.3460   -3.4990 hc        1 PV4      0.051700
     28 H142        4.6040    0.4820   -3.1430 hc        1 PV4      0.051700
     29 H151        3.8910   -2.4450   -2.4150 hc        1 PV4      0.043700
     30 H152        5.4500   -1.6180   -2.0300 hc        1 PV4      0.043700
     31 H161        5.6400   -2.9940   -4.1060 hc        1 PV4      0.034700
     32 H162        4.2900   -2.0600   -4.8720 hc        1 PV4      0.034700
     33 H163        5.8540   -1.2360   -4.4880 hc        1 PV4      0.034700
@<TRIPOS>BOND
     1    1    2 1   
     2    1   18 1   
     3    2    3 ar  
     4    2   14 ar  
     5    3    4 1   
     6    3   11 ar  
     7    4    5 1   
     8    5    6 ar  
     9    5   10 ar  
    10    6    7 ar  
    11    6   21 1   
    12    7    8 ar  
    13    7   23 1   
    14    8    9 ar  
    15    8   24 1   
    16    9   10 ar  
    17    9   25 1   
    18   10   22 1   
    19   11   12 ar  
    20   11   20 1   
    21   12   13 ar  
    22   12   26 1   
    23   13   14 ar  
    24   13   15 1   
    25   14   19 1   
    26   15   16 1   
    27   15   27 1   
    28   15   28 1   
    29   16   17 1   
    30   16   29 1   
    31   16   30 1   
    32   17   31 1   
    33   17   32 1   
    34   17   33 1   
@<TRIPOS>SUBSTRUCTURE
     1 PV4         1 TEMP              0 ****  ****    0 ROOT
