@<TRIPOS>MOLECULE
PV8
   34    36     1     0     0
SMALL
bcc


@<TRIPOS>ATOM
      1 C11         1.3340   -0.8860    0.6150 c3        1 PV8      0.298100
      2 C02         1.3000    2.8200   -3.1070 ce        1 PV8      0.373100
      3 C03         2.1540    3.9810   -3.2250 ce        1 PV8     -0.303000
      4 C04         3.1190    4.1960   -2.2940 c2        1 PV8      0.187900
      5 O05         3.9700    5.2640   -2.3280 oh        1 PV8     -0.488100
      6 C06         3.3860    3.3100   -1.1200 c3        1 PV8      0.024000
      7 C07         2.4780    2.1500   -1.0760 cf        1 PV8     -0.123200
      8 C08         1.4330    1.9250   -2.0830 cf        1 PV8     -0.521100
      9 S09         0.6210    0.5160   -1.6840 sy        1 PV8      1.515800
     10 N10         1.5280    0.1770   -0.3270 nh        1 PV8     -0.648300
     11 C12         0.6470   -0.5040    1.8960 ca        1 PV8     -0.162300
     12 C13         1.2630   -0.7790    3.1190 ca        1 PV8     -0.080000
     13 C14         0.6240   -0.4740    4.3180 ca        1 PV8     -0.187500
     14 C15        -0.6450    0.1210    4.2850 ca        1 PV8      0.131100
     15 O16        -1.3380    0.4550    5.4250 oh        1 PV8     -0.495100
     16 C17        -1.2740    0.4070    3.0610 ca        1 PV8     -0.187500
     17 C18        -0.6220    0.0910    1.8750 ca        1 PV8     -0.080000
     18 C19         2.4970    1.1700   -0.1220 c2        1 PV8      0.045000
     19 O20        -0.7230    0.7680   -1.3660 o         1 PV8     -0.663300
     20 O21         0.7730   -0.4580   -2.6800 o         1 PV8     -0.663300
     21 H1          2.3380   -1.3440    0.8560 h1        1 PV8      0.059700
     22 H2          0.7110   -1.6770    0.1000 h1        1 PV8      0.059700
     23 H3         -0.1590    1.9290   -3.9790 ho        1 PV8      0.444000
     24 H4          1.9850    4.6540   -4.0770 ha        1 PV8      0.162000
     25 H5          3.7620    5.8110   -3.1010 ho        1 PV8      0.434000
     26 H6          4.4590    2.9670   -1.1700 hc        1 PV8      0.083200
     27 H7          3.2820    3.9250   -0.1810 hc        1 PV8      0.083200
     28 H8          1.1090   -0.6960    5.2790 ha        1 PV8      0.145000
     29 H9         -0.8000    0.1990    6.1880 ho        1 PV8      0.419000
     30 H10        -2.2680    0.8750    3.0570 ha        1 PV8      0.145000
     31 H11        -1.1110    0.3150    0.9100 ha        1 PV8      0.148500
     32 H12         2.2600   -1.2460    3.1430 ha        1 PV8      0.148500
     33 H13         3.1690    1.1040    0.7420 h4        1 PV8      0.171000
     34 O01         0.3790    2.7290   -4.1050 oh        1 PV8     -0.474100
@<TRIPOS>BOND
     1    1   10 1   
     2    1   11 1   
     3    1   21 1   
     4    1   22 1   
     5    2    3 1   
     6    2    8 2   
     7    2   34 1   
     8    3    4 2   
     9    3   24 1   
    10    4    5 1   
    11    4    6 1   
    12    5   25 1   
    13    6    7 1   
    14    6   26 1   
    15    6   27 1   
    16    7    8 1   
    17    7   18 2   
    18    8    9 1   
    19    9   10 1   
    20    9   19 2   
    21    9   20 2   
    22   10   18 1   
    23   11   12 ar  
    24   11   17 ar  
    25   12   13 ar  
    26   12   32 1   
    27   13   14 ar  
    28   13   28 1   
    29   14   15 1   
    30   14   16 ar  
    31   15   29 1   
    32   16   17 ar  
    33   16   30 1   
    34   17   31 1   
    35   18   33 1   
    36   23   34 1   
@<TRIPOS>SUBSTRUCTURE
     1 PV8         1 TEMP              0 ****  ****    0 ROOT
