@<TRIPOS>MOLECULE
PV8
   34    36     1     0     0
SMALL
bcc


@<TRIPOS>ATOM
      1 C11         1.1540    0.3880   -1.2300 c3        1 PV8      0.286100
      2 C02        -2.7730   -0.2150   -1.1330 ca        1 PV8      0.313100
      3 C03        -3.6520   -1.3040   -0.9460 ca        1 PV8     -0.290000
      4 C04        -3.8540   -1.7940    0.3420 ca        1 PV8      0.220100
      5 O05        -4.6860   -2.8460    0.6100 oh        1 PV8     -0.484100
      6 C06        -3.2030   -1.2100    1.4540 ca        1 PV8     -0.209000
      7 C07        -2.3480   -0.1530    1.2350 ca        1 PV8      0.023000
      8 C08        -2.0870    0.3730   -0.0530 ca        1 PV8     -0.516500
      9 S09        -0.9990    1.6450   -0.1190 sy        1 PV8      1.546200
     10 N10         0.4480    0.9280   -0.0720 n3        1 PV8     -0.840500
     11 C12         2.4660   -0.1300   -0.7060 ca        1 PV8     -0.133300
     12 C13         2.5190    0.0810    0.6970 ca        1 PV8     -0.064300
     13 C14         3.6140   -0.3000    1.4410 ca        1 PV8     -0.131000
     14 C15         4.6850   -0.9100    0.7460 ca        1 PV8      0.131100
     15 O16         5.7610   -1.2800    1.5190 oh        1 PV8     -0.495100
     16 C17         4.6430   -1.1220   -0.6370 ca        1 PV8     -0.215000
     17 C18         3.5180   -0.7260   -1.3730 ca        1 PV8     -0.067000
     18 C19         1.2420    0.7450    1.1400 c3        1 PV8      0.281100
     19 O20        -1.1710    2.2790   -1.3780 o         1 PV8     -0.663300
     20 O21        -1.1530    2.4530    1.0270 o         1 PV8     -0.663300
     21 H1          0.5560   -0.4430   -1.6990 h1        1 PV8      0.060200
     22 H2          1.3110    1.1990   -1.9960 h1        1 PV8      0.060200
     23 H3         -2.2210    1.0360   -2.5120 ho        1 PV8      0.471000
     24 H4         -4.1600   -1.7380   -1.8170 ha        1 PV8      0.160000
     25 H5         -5.0770   -3.1500   -0.2240 ho        1 PV8      0.431000
     26 H6         -3.3940   -1.6050    2.4610 ha        1 PV8      0.161000
     27 H7         -1.8470    0.3200    2.1010 ha        1 PV8      0.152000
     28 H8          3.6810   -0.1470    2.5260 ha        1 PV8      0.158000
     29 H9          6.4270   -1.6750    0.9370 ho        1 PV8      0.422000
     30 H10         5.4910   -1.5980   -1.1490 ha        1 PV8      0.137000
     31 H11         3.4850   -0.8900   -2.4600 ha        1 PV8      0.141000
     32 H12         1.4460    1.7420    1.6230 h1        1 PV8      0.063700
     33 H13         0.6880    0.0950    1.8740 h1        1 PV8      0.063700
     34 O01        -2.6520    0.1660   -2.4380 oh        1 PV8     -0.507100
@<TRIPOS>BOND
     1    1   10 1   
     2    1   11 1   
     3    1   21 1   
     4    1   22 1   
     5    2    3 ar  
     6    2    8 ar  
     7    2   34 1   
     8    3    4 ar  
     9    3   24 1   
    10    4    5 1   
    11    4    6 ar  
    12    5   25 1   
    13    6    7 ar  
    14    6   26 1   
    15    7    8 ar  
    16    7   27 1   
    17    8    9 1   
    18    9   10 1   
    19    9   19 2   
    20    9   20 2   
    21   10   18 1   
    22   11   12 ar  
    23   11   17 ar  
    24   12   13 ar  
    25   12   18 1   
    26   13   14 ar  
    27   13   28 1   
    28   14   15 1   
    29   14   16 ar  
    30   15   29 1   
    31   16   17 ar  
    32   16   30 1   
    33   17   31 1   
    34   18   32 1   
    35   18   33 1   
    36   23   34 1   
@<TRIPOS>SUBSTRUCTURE
     1 PV8         1 TEMP              0 ****  ****    0 ROOT
