@<TRIPOS>MOLECULE
PV8
   34    35     1     0     0
SMALL
bcc


@<TRIPOS>ATOM
      1 C11         0.5150   -0.9410    0.1310 c3        1 PV8     -0.017000
      2 C02         1.6550    2.6360   -1.3440 c2        1 PV8      0.394000
      3 C03         2.4790    3.8290   -1.1480 c2        1 PV8     -0.351000
      4 C04         3.7880    3.8550   -1.4930 c2        1 PV8      0.102000
      5 O05         4.5950    4.9480   -1.3300 oh        1 PV8     -0.256000
      6 C06         4.5030    2.6850   -2.0930 c3        1 PV8     -0.116000
      7 C07         3.6640    1.5100   -2.2310 c1        1 PV8     -0.184000
      8 C08         2.3360    1.4600   -1.8630 c2        1 PV8     -1.134000
      9 S09         1.8200    0.0080   -2.2450 s6        1 PV8      2.912000
     10 N10         0.3590   -0.1370   -1.0750 n3        1 PV8     -0.488000
     11 C12         0.1730   -0.2340    1.4080 c2        1 PV8     -0.248000
     12 C13         1.1070   -0.1380    2.4200 c2        1 PV8      0.080000
     13 C14         0.7860    0.4880    3.6540 c2        1 PV8     -0.324000
     14 C15        -0.4630    1.0300    3.8360 c2        1 PV8      0.134000
     15 O16        -0.8700    1.6420    4.9760 oh        1 PV8     -0.231000
     16 C17        -1.5000    0.9870    2.7650 c3        1 PV8     -0.176000
     17 C18        -1.1150    0.3110    1.5380 c1        1 PV8     -0.146000
     18 C19        -0.7380    0.5150   -1.3070 c2        1 PV8      0.122000
     19 O20         1.1650   -0.1000   -3.4690 o         1 PV8     -0.916500
     20 O21         2.5710   -1.0940   -1.8530 o         1 PV8     -0.916500
     21 H1          1.5850   -1.3040    0.1580 h1        1 PV8      0.127000
     22 H2         -0.1540   -1.8460    0.0350 h1        1 PV8      0.127000
     23 H3         -0.8370    1.0800   -2.2600 h4        1 PV8      0.194000
     24 H4          1.9700    4.7040   -0.7190 ha        1 PV8      0.141000
     25 H5          4.0710    5.6730   -0.9550 ho        1 PV8      0.219000
     26 H6          5.3960    2.4220   -1.4590 hc        1 PV8      0.148000
     27 H7          4.8990    2.9710   -3.1100 hc        1 PV8      0.148000
     28 H8          1.5500    0.5330    4.4430 ha        1 PV8      0.148000
     29 H9         -0.1430    1.6410    5.6220 ho        1 PV8      0.235000
     30 H10        -1.7960    2.0460    2.4940 hc        1 PV8      0.182000
     31 H11        -2.4380    0.4990    3.1650 hc        1 PV8      0.182000
     32 H12         2.1270   -0.5460    2.3000 ha        1 PV8      0.147000
     33 H13        -1.5840    0.5440   -0.5780 h4        1 PV8      0.194000
     34 O01         0.4300    2.6650   -1.0800 o         1 PV8     -0.432000
@<TRIPOS>BOND
     1    1   10 1   
     2    1   11 1   
     3    1   21 1   
     4    1   22 1   
     5    2    3 1   
     6    2    8 1   
     7    2   34 1   
     8    3    4 1   
     9    3   24 1   
    10    4    5 1   
    11    4    6 1   
    12    5   25 1   
    13    6    7 1   
    14    6   26 1   
    15    6   27 1   
    16    7    8 1   
    17    8    9 1   
    18    9   10 1   
    19    9   19 1   
    20    9   20 1   
    21   10   18 1   
    22   11   12 1   
    23   11   17 1   
    24   12   13 1   
    25   12   32 1   
    26   13   14 1   
    27   13   28 1   
    28   14   15 1   
    29   14   16 1   
    30   15   29 1   
    31   16   17 1   
    32   16   30 1   
    33   16   31 1   
    34   18   23 1   
    35   18   33 1   
@<TRIPOS>SUBSTRUCTURE
     1 PV8         1 TEMP              0 ****  ****    0 ROOT
