@<TRIPOS>MOLECULE
PV8
   34    27     1     0     0
SMALL
bcc


@<TRIPOS>ATOM
      1 C11        -1.3860    0.9590    0.1280 c3        1 PV8      0.043000
      2 O01         0.0740    0.3640   -3.9120 oh        1 PV8     -0.251000
      3 C02         0.9350   -0.5510   -3.2760 c2        1 PV8      0.234000
      4 C03         1.3080   -1.7390   -3.9360 c2        1 PV8     -0.279000
      5 C04         2.1780   -2.6220   -3.3270 c1        1 PV8      0.176000
      6 O05         2.6090   -3.8070   -4.0270 o         1 PV8     -0.246000
      7 C06         2.6910   -2.3350   -2.0470 c2        1 PV8     -0.272000
      8 C07         2.3270   -1.1830   -1.4100 c1        1 PV8      0.040000
      9 C08         1.4280   -0.2720   -2.0420 c1        1 PV8     -0.880000
     10 S09         1.0180    1.2800   -1.2430 ss        1 PV8      2.877000
     11 N10         0.0310    1.0000    0.1140 n2        1 PV8     -0.856000
     12 C12        -1.8400    0.9540    1.5770 c1        1 PV8     -0.124000
     13 C13        -0.7260    0.8960    2.3660 c1        1 PV8      0.014000
     14 C14        -0.8590    0.8900    3.7670 c1        1 PV8     -0.173500
     15 C15        -2.1100    0.9440    4.3400 c1        1 PV8      0.014000
     16 O16        -2.2370    1.1460    5.7270 o         1 PV8     -0.246000
     17 C17        -3.2320    1.0020    3.5320 c1        1 PV8     -0.173500
     18 C18        -3.0950    1.0070    2.1490 c1        1 PV8     -0.075000
     19 C19         0.4850    0.8970    1.4540 c2        1 PV8      0.035000
     20 O20         2.2420    2.0330   -0.8640 o         1 PV8     -0.935000
     21 O21         0.3860    2.2110   -2.1830 o         1 PV8     -0.935000
     22 H1         -1.6850    0.1880   -0.2940 h1        1 PV8      0.106000
     23 H2         -1.7360    1.7210   -0.3120 h1        1 PV8      0.106000
     24 H3          0.2620    0.3870   -4.8210 ho        1 PV8      0.238000
     25 H4          0.9880   -1.9180   -4.8160 ha        1 PV8      0.160000
     26 H5          2.1610   -4.4690   -3.7610 ho        1 PV8      0.224500
     27 H6          3.3310   -2.9870   -1.5970 ha        1 PV8      0.145000
     28 H7          2.6620   -0.9940   -0.5770 ha        1 PV8      0.172000
     29 H8         -0.0350    0.8510    4.3530 ha        1 PV8      0.146500
     30 H9         -2.2310    0.3490    6.1480 ho        1 PV8      0.224500
     31 H10        -4.1580    1.0450    3.9490 ha        1 PV8      0.146500
     32 H11        -3.8510    1.0510    1.6060 ha        1 PV8      0.142000
     33 H12         1.0590    1.6650    1.6660 h4        1 PV8      0.101000
     34 H13         1.0050    0.0370    1.5710 h4        1 PV8      0.101000
@<TRIPOS>BOND
     1    1   11 1   
     2    1   12 1   
     3    1   22 1   
     4    1   23 1   
     5    2    3 1   
     6    2   24 1   
     7    3    4 1   
     8    3    9 1   
     9    4    5 1   
    10    4   25 1   
    11    5    7 1   
    12    6   26 1   
    13    7    8 1   
    14    7   27 1   
    15    8   28 1   
    16   10   20 1   
    17   10   21 1   
    18   11   19 1   
    19   12   18 1   
    20   13   14 1   
    21   14   29 1   
    22   15   17 1   
    23   16   30 1   
    24   17   31 1   
    25   18   32 1   
    26   19   33 1   
    27   19   34 1   
@<TRIPOS>SUBSTRUCTURE
     1 PV8         1 TEMP              0 ****  ****    0 ROOT
