@<TRIPOS>MOLECULE
PV8
   34    36     1     0     0
SMALL
bcc


@<TRIPOS>ATOM
      1 C11         1.2020   -0.8180    0.5940 c3        1 PV8      0.059000
      2 C02         1.5380    2.9330   -3.0610 c2        1 PV8      0.324000
      3 C03         2.6250    3.8560   -3.3040 c2        1 PV8     -0.299000
      4 C04         3.7070    3.8430   -2.4840 c2        1 PV8      0.142000
      5 O05         4.7770    4.6790   -2.6380 oh        1 PV8     -0.245000
      6 C06         3.8810    2.9290   -1.3140 c3        1 PV8     -0.062000
      7 C07         2.7400    2.0120   -1.1460 c2        1 PV8     -0.118000
      8 C08         1.5600    2.0530   -2.0180 c2        1 PV8     -0.966000
      9 S09         0.4650    0.8980   -1.4710 s6        1 PV8      2.863000
     10 N10         1.4470    0.3050   -0.2630 n3        1 PV8     -0.749000
     11 C12         0.4470   -0.5270    1.8620 c2        1 PV8     -0.246000
     12 C13         0.6450    0.6170    2.5980 c2        1 PV8      0.056000
     13 C14        -0.0770    0.8550    3.8030 c2        1 PV8     -0.317000
     14 C15        -0.9890   -0.0700    4.2390 c2        1 PV8      0.112000
     15 O16        -1.7360    0.0650    5.3670 oh        1 PV8     -0.238000
     16 C17        -1.2420   -1.3320    3.4870 c3        1 PV8     -0.184000
     17 C18        -0.4680   -1.5240    2.2710 c1        1 PV8     -0.098000
     18 C19         2.6430    1.0340   -0.1940 c2        1 PV8     -0.049000
     19 O20        -0.6900    1.5140   -0.9720 o         1 PV8     -0.938000
     20 O21         0.2050   -0.0480   -2.4720 o         1 PV8     -0.938000
     21 H1          0.6140   -1.5830    0.0010 h1        1 PV8      0.111500
     22 H2          2.1880   -1.2930    0.8750 h1        1 PV8      0.111500
     23 H3         -0.1540    2.3750   -3.7730 ho        1 PV8      0.244000
     24 H4          2.5310    4.5410   -4.1580 ha        1 PV8      0.161000
     25 H5          4.6240    5.2510   -3.4060 ho        1 PV8      0.232000
     26 H6          4.8350    2.3460   -1.4580 hc        1 PV8      0.120000
     27 H7          4.0190    3.5590   -0.3900 hc        1 PV8      0.120000
     28 H8          0.1050    1.7870    4.3560 ha        1 PV8      0.140000
     29 H9         -1.5350    0.9190    5.7830 ho        1 PV8      0.228000
     30 H10        -2.3370   -1.3830    3.2040 hc        1 PV8      0.175500
     31 H11        -1.0580   -2.2180    4.1650 hc        1 PV8      0.175500
     32 H12         1.3650    1.3900    2.2790 ha        1 PV8      0.135000
     33 H13         3.3900    0.7820    0.5670 h4        1 PV8      0.166000
     34 O01         0.5240    3.0460   -3.9630 oh        1 PV8     -0.230000
@<TRIPOS>BOND
     1    1   10 1   
     2    1   11 1   
     3    1   21 1   
     4    1   22 1   
     5    2    3 1   
     6    2    8 1   
     7    2   34 1   
     8    3    4 1   
     9    3   24 1   
    10    4    5 1   
    11    4    6 1   
    12    5   25 1   
    13    6    7 1   
    14    6   26 1   
    15    6   27 1   
    16    7    8 1   
    17    7   18 1   
    18    8    9 1   
    19    9   10 1   
    20    9   19 1   
    21    9   20 1   
    22   10   18 1   
    23   11   12 1   
    24   11   17 1   
    25   12   13 1   
    26   12   32 1   
    27   13   14 1   
    28   13   28 1   
    29   14   15 1   
    30   14   16 1   
    31   15   29 1   
    32   16   17 1   
    33   16   30 1   
    34   16   31 1   
    35   18   33 1   
    36   23   34 1   
@<TRIPOS>SUBSTRUCTURE
     1 PV8         1 TEMP              0 ****  ****    0 ROOT
