@<TRIPOS>MOLECULE
PVA
   19    18     1     0     0
SMALL
bcc


@<TRIPOS>ATOM
      1 C1         -0.5610    0.7340    0.5100 c3        1 PVA     -0.022700
      2 C2          0.0380    0.3370    1.8670 c3        1 PVA     -0.010700
      3 C3         -0.1820   -1.1410    2.1320 c3        1 PVA     -0.103600
      4 CM          1.5120    0.6830    1.9060 c3        1 PVA     -0.103600
      5 N          -1.9830    0.5780    0.4110 n3        1 PVA     -0.874800
      6 P           0.0490   -0.1540   -1.1680 p5        1 PVA      1.200700
      7 O1P        -0.6530   -1.4860   -1.0530 o         1 PVA     -0.929833
      8 O2P        -0.4250    0.7630   -2.2560 o         1 PVA     -0.929833
      9 O3P         1.5460   -0.2140   -1.0030 o         1 PVA     -0.929833
     10 H1         -0.3030    1.8060    0.3270 h1        1 PVA      0.014700
     11 H2         -0.4740    0.9160    2.6960 hc        1 PVA     -0.058300
     12 H31         0.5450   -1.5430    2.8770 hc        1 PVA      0.024533
     13 H32        -1.2130   -1.3210    2.5220 hc        1 PVA      0.024533
     14 H33        -0.0730   -1.6790    1.1460 hc        1 PVA      0.024533
     15 HM1         1.9800    0.2960    0.9530 hc        1 PVA      0.024533
     16 HM2         1.6500    1.7900    1.9510 hc        1 PVA      0.024533
     17 HM3         2.0130    0.2350    2.7990 hc        1 PVA      0.024533
     18 HN1        -2.1700   -0.3200   -0.0110 hn        1 PVA      0.299800
     19 HN2        -2.4090    0.5620    1.3250 hn        1 PVA      0.299800
@<TRIPOS>BOND
     1    1    2 1   
     2    1    5 1   
     3    1    6 1   
     4    1   10 1   
     5    2    3 1   
     6    2    4 1   
     7    2   11 1   
     8    3   12 1   
     9    3   13 1   
    10    3   14 1   
    11    4   15 1   
    12    4   16 1   
    13    4   17 1   
    14    5   18 1   
    15    5   19 1   
    16    6    7 1   
    17    6    8 1   
    18    6    9 1   
@<TRIPOS>SUBSTRUCTURE
     1 PVA         1 TEMP              0 ****  ****    0 ROOT
