@<TRIPOS>MOLECULE
PVB
   54    56     1     0     0
SMALL
bcc


@<TRIPOS>ATOM
      1 N1         -0.3400    0.1290   -0.1340 nb        1 PVB     -0.813000
      2 C9         -5.2830    1.8480   -0.8140 c3        1 PVB      0.060000
      3 N9         -3.8910    2.1900   -0.6600 na        1 PVB     -0.274000
      4 C4         -2.8120    1.3040   -0.4960 ca        1 PVB      0.488800
      5 N3         -2.8070   -0.0530   -0.3950 nb        1 PVB     -0.801000
      6 C2         -1.5350   -0.5760   -0.2340 ca        1 PVB      0.911900
      7 C6         -0.3640    1.4870   -0.2520 ca        1 PVB      0.787200
      8 C5         -1.6290    2.1500   -0.4350 ca        1 PVB     -0.265200
      9 N7         -1.9910    3.4980   -0.5650 nc        1 PVB     -0.532100
     10 C8         -3.3240    3.4900   -0.7000 cd        1 PVB      0.376700
     11 N6          0.7900    2.2430   -0.2430 nh        1 PVB     -0.704300
     12 C1A         2.0580    1.7590    0.1730 ca        1 PVB      0.079600
     13 C2A         2.7660    2.4530    1.1810 ca        1 PVB     -0.168000
     14 C3A         4.0330    2.0280    1.5560 ca        1 PVB     -0.105000
     15 C4A         4.6370    0.9110    0.9650 ca        1 PVB     -0.082600
     16 C5A         3.9300    0.2330   -0.0300 ca        1 PVB      0.035400
     17 CL1         4.6000   -1.1330   -0.8030 cl        1 PVB     -0.109400
     18 C6A         2.6550    0.6430   -0.4370 ca        1 PVB     -0.118000
     19 CX          6.0330    0.5010    1.4420 c         1 PVB      0.917200
     20 OX1         7.0170    1.0490    0.8790 o         1 PVB     -0.811800
     21 OX2         6.0980   -0.3270    2.3890 o         1 PVB     -0.811800
     22 N2         -1.3930   -1.9830   -0.2330 nh        1 PVB     -0.834900
     23 C12        -2.4690   -2.8190    0.2780 c3        1 PVB      0.181500
     24 C13        -1.9350   -4.0190    1.0990 c3        1 PVB     -0.080700
     25 C16        -1.0920   -3.5530    2.2690 c3        1 PVB     -0.095600
     26 C14        -3.0880   -4.8630    1.6010 c3        1 PVB     -0.095600
     27 C15        -3.3590   -3.3180   -0.8850 c3        1 PVB      0.129400
     28 O1         -2.7260   -4.2950   -1.6860 oh        1 PVB     -0.610800
     29 C11        -6.1680    2.4780    0.2650 c3        1 PVB     -0.110100
     30 C10        -5.8380    2.2290   -2.1900 c3        1 PVB     -0.110100
     31 H9         -5.3570    0.7220   -0.7100 h1        1 PVB      0.088700
     32 H111       -6.1520    3.5920    0.1960 hc        1 PVB      0.043700
     33 H112       -7.2160    2.1250    0.1200 hc        1 PVB      0.043700
     34 H113       -5.8270    2.1790    1.2850 hc        1 PVB      0.043700
     35 H101       -5.2520    1.7400   -3.0050 hc        1 PVB      0.043700
     36 H102       -6.8980    1.8870   -2.2570 hc        1 PVB      0.043700
     37 H103       -5.8070    3.3340   -2.3410 hc        1 PVB      0.043700
     38 H8         -3.9570    4.3740   -0.8270 h5        1 PVB      0.061800
     39 H2         -0.4750   -2.2970    0.0130 hn        1 PVB      0.434800
     40 H6          0.6580    3.2270   -0.1410 hn        1 PVB      0.447800
     41 H2A         2.3210    3.3320    1.6690 ha        1 PVB      0.114000
     42 H6A         2.1270    0.0870   -1.2270 ha        1 PVB      0.144000
     43 H3A         4.5860    2.5710    2.3380 ha        1 PVB      0.141000
     44 H12        -3.1440   -2.2230    0.9630 h1        1 PVB      0.064700
     45 H13        -1.3030   -4.6570    0.4180 hc        1 PVB      0.064700
     46 H151       -4.2640   -3.8320   -0.4670 h1        1 PVB      0.051700
     47 H152       -3.6870   -2.4520   -1.5200 h1        1 PVB      0.051700
     48 H161       -1.6330   -2.7760    2.8590 hc        1 PVB      0.038533
     49 H162       -0.8670   -4.4140    2.9450 hc        1 PVB      0.038533
     50 H163       -0.1160   -3.1270    1.9320 hc        1 PVB      0.038533
     51 H141       -3.5720   -5.4080    0.7540 hc        1 PVB      0.038533
     52 H142       -2.7170   -5.6210    2.3330 hc        1 PVB      0.038533
     53 H143       -3.8540   -4.2290    2.1090 hc        1 PVB      0.038533
     54 H1         -1.9370   -3.8870   -2.0640 ho        1 PVB      0.410000
@<TRIPOS>BOND
     1    1    6 ar  
     2    1    7 ar  
     3    2    3 1   
     4    2   29 1   
     5    2   30 1   
     6    2   31 1   
     7    3    4 1   
     8    3   10 1   
     9    4    5 ar  
    10    4    8 ar  
    11    5    6 ar  
    12    6   22 1   
    13    7    8 ar  
    14    7   11 1   
    15    8    9 1   
    16    9   10 2   
    17   10   38 1   
    18   11   12 1   
    19   11   40 1   
    20   12   13 ar  
    21   12   18 ar  
    22   13   14 ar  
    23   13   41 1   
    24   14   15 ar  
    25   14   43 1   
    26   15   16 ar  
    27   15   19 1   
    28   16   17 1   
    29   16   18 ar  
    30   18   42 1   
    31   19   20 1   
    32   19   21 1   
    33   22   23 1   
    34   22   39 1   
    35   23   24 1   
    36   23   27 1   
    37   23   44 1   
    38   24   25 1   
    39   24   26 1   
    40   24   45 1   
    41   25   48 1   
    42   25   49 1   
    43   25   50 1   
    44   26   51 1   
    45   26   52 1   
    46   26   53 1   
    47   27   28 1   
    48   27   46 1   
    49   27   47 1   
    50   28   54 1   
    51   29   32 1   
    52   29   33 1   
    53   29   34 1   
    54   30   35 1   
    55   30   36 1   
    56   30   37 1   
@<TRIPOS>SUBSTRUCTURE
     1 PVB         1 TEMP              0 ****  ****    0 ROOT
