@<TRIPOS>MOLECULE
PVB
   54    56     1     0     0
SMALL
bcc


@<TRIPOS>ATOM
      1 N1          0.2270   -0.2370    0.0400 nb        1 PVB     -0.813000
      2 C9          3.2090   -0.2990    4.3940 c3        1 PVB      0.060000
      3 N9          1.8830   -0.3630    3.8310 na        1 PVB     -0.274000
      4 C4          1.5330   -0.3070    2.4710 ca        1 PVB      0.488800
      5 N3          2.3230   -0.1380    1.3760 nb        1 PVB     -0.801000
      6 C2          1.6050   -0.1300    0.1920 ca        1 PVB      0.911900
      7 C6         -0.5460   -0.4210    1.1490 ca        1 PVB      0.787200
      8 C5          0.0870   -0.4580    2.4420 ca        1 PVB     -0.265200
      9 N7         -0.4110   -0.6050    3.7450 nc        1 PVB     -0.532100
     10 C8          0.6670   -0.5490    4.5380 cd        1 PVB      0.376700
     11 N6         -1.9100   -0.6140    1.0670 nh        1 PVB     -0.704300
     12 C1A        -2.6840   -0.3560   -0.0950 ca        1 PVB      0.079600
     13 C2A        -3.8010    0.5040   -0.0030 ca        1 PVB     -0.168000
     14 C3A        -4.6040    0.7190   -1.1140 ca        1 PVB     -0.105000
     15 C4A        -4.3320    0.1080   -2.3450 ca        1 PVB     -0.082600
     16 C5A        -3.2260   -0.7420   -2.4250 ca        1 PVB      0.035400
     17 CL1        -2.8320   -1.5290   -3.8860 cl        1 PVB     -0.109400
     18 C6A        -2.4030   -0.9860   -1.3190 ca        1 PVB     -0.118000
     19 CX         -5.2600    0.4030   -3.5260 c         1 PVB      0.917200
     20 OX1        -6.2830   -0.3210   -3.6490 o         1 PVB     -0.811800
     21 OX2        -4.9570    1.3740   -4.2690 o         1 PVB     -0.811800
     22 N2          2.3300   -0.0760   -1.0210 nh        1 PVB     -0.835900
     23 C12         3.6050    0.6240   -1.0730 c3        1 PVB      0.181500
     24 C13         3.7780    1.4230   -2.3880 c3        1 PVB     -0.080700
     25 C16         2.6660    2.4370   -2.5660 c3        1 PVB     -0.095600
     26 C14         5.1200    2.1260   -2.4000 c3        1 PVB     -0.095600
     27 C15         4.7720   -0.3750   -0.8940 c3        1 PVB      0.129400
     28 O1          4.9680   -1.2050   -2.0200 oh        1 PVB     -0.610800
     29 C11         3.3780    0.8670    5.3730 c3        1 PVB     -0.110100
     30 C10         3.6180   -1.5970    5.0980 c3        1 PVB     -0.110100
     31 H9          3.9240   -0.1340    3.5300 h1        1 PVB      0.088700
     32 H111        3.1420    1.8390    4.8790 hc        1 PVB      0.043700
     33 H112        2.7120    0.7440    6.2600 hc        1 PVB      0.043700
     34 H113        4.4380    0.8910    5.7210 hc        1 PVB      0.043700
     35 H101        3.5620   -2.4640    4.3970 hc        1 PVB      0.043700
     36 H102        4.6690   -1.4940    5.4570 hc        1 PVB      0.043700
     37 H103        2.9570   -1.8020    5.9740 hc        1 PVB      0.043700
     38 H8          0.6600   -0.6310    5.6300 h5        1 PVB      0.061800
     39 H2          1.7550    0.0540   -1.8310 hn        1 PVB      0.434800
     40 H6         -2.4050   -0.5460    1.9310 hn        1 PVB      0.447800
     41 H2A        -4.0430    1.0040    0.9470 ha        1 PVB      0.114000
     42 H6A        -1.5420   -1.6630   -1.4160 ha        1 PVB      0.144000
     43 H3A        -5.4770    1.3860   -1.0420 ha        1 PVB      0.141000
     44 H12         3.6860    1.3650   -0.2210 h1        1 PVB      0.064700
     45 H13         3.7560    0.6940   -3.2480 hc        1 PVB      0.064700
     46 H151        5.7350    0.1930   -0.7850 h1        1 PVB      0.051700
     47 H152        4.6080   -1.0020    0.0230 h1        1 PVB      0.051700
     48 H161        2.5470    3.0560   -1.6450 hc        1 PVB      0.038367
     49 H162        1.6890    1.9450   -2.7910 hc        1 PVB      0.038367
     50 H163        2.9030    3.1190   -3.4200 hc        1 PVB      0.038367
     51 H141        5.9490    1.3850   -2.5120 hc        1 PVB      0.038367
     52 H142        5.2760    2.7020   -1.4560 hc        1 PVB      0.038367
     53 H143        5.1720    2.8370   -3.2600 hc        1 PVB      0.038367
     54 H1          4.1560   -1.7120   -2.1470 ho        1 PVB      0.410000
@<TRIPOS>BOND
     1    1    6 ar  
     2    1    7 ar  
     3    2    3 1   
     4    2   29 1   
     5    2   30 1   
     6    2   31 1   
     7    3    4 1   
     8    3   10 1   
     9    4    5 ar  
    10    4    8 ar  
    11    5    6 ar  
    12    6   22 1   
    13    7    8 ar  
    14    7   11 1   
    15    8    9 1   
    16    9   10 2   
    17   10   38 1   
    18   11   12 1   
    19   11   40 1   
    20   12   13 ar  
    21   12   18 ar  
    22   13   14 ar  
    23   13   41 1   
    24   14   15 ar  
    25   14   43 1   
    26   15   16 ar  
    27   15   19 1   
    28   16   17 1   
    29   16   18 ar  
    30   18   42 1   
    31   19   20 1   
    32   19   21 1   
    33   22   23 1   
    34   22   39 1   
    35   23   24 1   
    36   23   27 1   
    37   23   44 1   
    38   24   25 1   
    39   24   26 1   
    40   24   45 1   
    41   25   48 1   
    42   25   49 1   
    43   25   50 1   
    44   26   51 1   
    45   26   52 1   
    46   26   53 1   
    47   27   28 1   
    48   27   46 1   
    49   27   47 1   
    50   28   54 1   
    51   29   32 1   
    52   29   33 1   
    53   29   34 1   
    54   30   35 1   
    55   30   36 1   
    56   30   37 1   
@<TRIPOS>SUBSTRUCTURE
     1 PVB         1 TEMP              0 ****  ****    0 ROOT
