@<TRIPOS>MOLECULE
PVB
   56    58     1     0     0
SMALL
bcc


@<TRIPOS>ATOM
      1 N1          0.1460    1.4540    0.0290 nb        1 PVB     -0.770000
      2 C9          2.8080   -1.0310    3.8810 c3        1 PVB      0.049000
      3 N9          1.5200   -0.6540    3.3210 na        1 PVB     -0.260000
      4 C4          1.2900    0.0900    2.1540 ca        1 PVB      0.512800
      5 N3          2.1430    0.6130    1.2520 nb        1 PVB     -0.715000
      6 C2          1.5340    1.3140    0.2120 ca        1 PVB      0.931900
      7 C6         -0.6590    0.9080    0.9570 ca        1 PVB      0.599200
      8 C5         -0.1830    0.2000    2.0670 ca        1 PVB     -0.207200
      9 N7         -0.7820   -0.4580    3.1520 nc        1 PVB     -0.585100
     10 C8          0.2460   -0.9420    3.8660 cd        1 PVB      0.482700
     11 N6         -2.1300    1.0590    0.7900 n4        1 PVB     -0.622100
     12 C1A        -2.6800    0.0680   -0.1450 ca        1 PVB     -0.013400
     13 C2A        -2.6050    0.3040   -1.5280 ca        1 PVB     -0.097000
     14 C3A        -3.1620   -0.6290   -2.4000 ca        1 PVB     -0.056000
     15 C4A        -3.7740   -1.7910   -1.9150 ca        1 PVB     -0.121600
     16 C5A        -3.8350   -2.0190   -0.5320 ca        1 PVB      0.043400
     17 CL1        -4.5830   -3.3970    0.1000 cl        1 PVB     -0.009400
     18 C6A        -3.2850   -1.0920    0.3620 ca        1 PVB     -0.103000
     19 CX         -4.3840   -2.7110   -2.9100 c         1 PVB      0.631700
     20 OX1        -5.2310   -2.3890   -3.7390 o         1 PVB     -0.436000
     21 OX2        -3.9760   -4.0060   -2.9850 oh        1 PVB     -0.543100
     22 N2          2.3290    2.0080   -0.6910 nh        1 PVB     -0.792900
     23 C12         3.7440    1.7080   -0.8640 c3        1 PVB      0.174500
     24 C13         4.4440    2.8540   -1.6360 c3        1 PVB     -0.073700
     25 C16         4.3100    4.1690   -0.8950 c3        1 PVB     -0.096100
     26 C14         5.9100    2.5260   -1.8390 c3        1 PVB     -0.096100
     27 C15         3.9650    0.3520   -1.5770 c3        1 PVB      0.098400
     28 O1          3.4040    0.3460   -2.8710 oh        1 PVB     -0.598800
     29 C11         3.0480   -0.4060    5.2570 c3        1 PVB     -0.116600
     30 C10         2.9750   -2.5480    3.9790 c3        1 PVB     -0.116600
     31 H9          3.5960   -0.6340    3.1700 h1        1 PVB      0.095700
     32 H111        2.9820    0.7070    5.2130 hc        1 PVB      0.058867
     33 H112        4.0750   -0.6870    5.5960 hc        1 PVB      0.058867
     34 H113        2.3110   -0.7830    6.0050 hc        1 PVB      0.058867
     35 H101        4.0040   -2.7660    4.3550 hc        1 PVB      0.058867
     36 H102        2.2370   -2.9910    4.6900 hc        1 PVB      0.058867
     37 H103        2.8520   -3.0350    2.9820 hc        1 PVB      0.058867
     38 H8          0.1500   -1.5210    4.7980 h5        1 PVB      0.098800
     39 H2          1.8730    2.3290   -1.5240 hn        1 PVB      0.449800
     40 H6         -2.3420    2.0030    0.4330 hn        1 PVB      0.478800
     41 H2A        -2.1130    1.2050   -1.9340 ha        1 PVB      0.177000
     42 H6A        -3.3330   -1.2900    1.4490 ha        1 PVB      0.184000
     43 H3A        -3.1330   -0.4470   -3.4900 ha        1 PVB      0.189000
     44 H12         4.2250    1.6410    0.1570 h1        1 PVB      0.094700
     45 H13         3.9590    2.9580   -2.6480 hc        1 PVB      0.052700
     46 H151        3.4320   -0.4720   -1.0300 h1        1 PVB      0.064700
     47 H152        5.0620    0.1210   -1.5990 h1        1 PVB      0.064700
     48 H161        3.2480    4.5070   -0.8580 hc        1 PVB      0.045867
     49 H162        4.6900    4.0710    0.1500 hc        1 PVB      0.045867
     50 H163        4.9060    4.9600   -1.4140 hc        1 PVB      0.045867
     51 H141        6.3830    2.2000   -0.8810 hc        1 PVB      0.045867
     52 H142        6.0380    1.7170   -2.5980 hc        1 PVB      0.045867
     53 H143        6.4530    3.4310   -2.2080 hc        1 PVB      0.045867
     54 H1          4.0020    0.8340   -3.4510 ho        1 PVB      0.410000
     55 H62        -2.5660    0.9370    1.7160 hn        1 PVB      0.478800
     56 H22        -3.3370   -4.2050   -2.2850 ho        1 PVB      0.435000
@<TRIPOS>BOND
     1    1    6 ar  
     2    1    7 ar  
     3    2    3 1   
     4    2   29 1   
     5    2   30 1   
     6    2   31 1   
     7    3    4 1   
     8    3   10 1   
     9    4    5 ar  
    10    4    8 ar  
    11    5    6 ar  
    12    6   22 1   
    13    7    8 ar  
    14    7   11 1   
    15    8    9 1   
    16    9   10 2   
    17   10   38 1   
    18   11   12 1   
    19   11   40 1   
    20   11   55 1   
    21   12   13 ar  
    22   12   18 ar  
    23   13   14 ar  
    24   13   41 1   
    25   14   15 ar  
    26   14   43 1   
    27   15   16 ar  
    28   15   19 1   
    29   16   17 1   
    30   16   18 ar  
    31   18   42 1   
    32   19   20 2   
    33   19   21 1   
    34   21   56 1   
    35   22   23 1   
    36   22   39 1   
    37   23   24 1   
    38   23   27 1   
    39   23   44 1   
    40   24   25 1   
    41   24   26 1   
    42   24   45 1   
    43   25   48 1   
    44   25   49 1   
    45   25   50 1   
    46   26   51 1   
    47   26   52 1   
    48   26   53 1   
    49   27   28 1   
    50   27   46 1   
    51   27   47 1   
    52   28   54 1   
    53   29   32 1   
    54   29   33 1   
    55   29   34 1   
    56   30   35 1   
    57   30   36 1   
    58   30   37 1   
@<TRIPOS>SUBSTRUCTURE
     1 PVB         1 TEMP              0 ****  ****    0 ROOT
