@<TRIPOS>MOLECULE
PVB
   54    56     1     0     0
SMALL
bcc


@<TRIPOS>ATOM
      1 N1          0.2230   -0.2270    0.0420 nb        1 PVB     -0.813000
      2 C9          3.2150   -0.3170    4.3890 c3        1 PVB      0.060000
      3 N9          1.8870   -0.3680    3.8290 na        1 PVB     -0.274000
      4 C4          1.5350   -0.3080    2.4700 ca        1 PVB      0.488800
      5 N3          2.3230   -0.1460    1.3730 nb        1 PVB     -0.801000
      6 C2          1.6030   -0.1320    0.1910 ca        1 PVB      0.911900
      7 C6         -0.5480   -0.4050    1.1530 ca        1 PVB      0.787200
      8 C5          0.0870   -0.4470    2.4450 ca        1 PVB     -0.265200
      9 N7         -0.4090   -0.5900    3.7480 nc        1 PVB     -0.532100
     10 C8          0.6710   -0.5440    4.5390 cd        1 PVB      0.376700
     11 N6         -1.9140   -0.5860    1.0740 nu        1 PVB     -0.704300
     12 C1A        -2.6890   -0.3220   -0.0860 ca        1 PVB      0.079600
     13 C2A        -3.7990    0.5480    0.0090 ca        1 PVB     -0.168000
     14 C3A        -4.6020    0.7700   -1.1010 ca        1 PVB     -0.105000
     15 C4A        -4.3380    0.1560   -2.3320 ca        1 PVB     -0.082600
     16 C5A        -3.2390   -0.7030   -2.4150 ca        1 PVB      0.035400
     17 Cl1        -2.8550   -1.4930   -3.8770 cl        1 PVB     -0.109400
     18 C6A        -2.4160   -0.9530   -1.3100 ca        1 PVB     -0.118000
     19 CX         -5.2660    0.4600   -3.5110 c         1 PVB      0.917200
     20 OX1        -6.2960   -0.2550   -3.6310 o         1 PVB     -0.811800
     21 OX2        -4.9550    1.4270   -4.2550 o         1 PVB     -0.811800
     22 N2          2.3260   -0.0840   -1.0240 nu        1 PVB     -0.834900
     23 C12         3.6060    0.6050   -1.0790 c3        1 PVB      0.181500
     24 C13         3.7830    1.4020   -2.3940 c3        1 PVB     -0.080700
     25 C16         2.6790    2.4250   -2.5710 c3        1 PVB     -0.095600
     26 C14         5.1310    2.0940   -2.4090 c3        1 PVB     -0.095600
     27 C15         4.7660   -0.4040   -0.9020 c3        1 PVB      0.129400
     28 O1          4.9520   -1.2350   -2.0280 oh        1 PVB     -0.610800
     29 C11         3.3960    0.8420    5.3730 c3        1 PVB     -0.110100
     30 C10         3.6160   -1.6220    5.0850 c3        1 PVB     -0.110100
     31 H9          3.9290   -0.1520    3.5230 h1        1 PVB      0.088700
     32 H111        2.7320    0.7200    6.2610 hc        1 PVB      0.043700
     33 H112        3.1660    1.8190    4.8860 hc        1 PVB      0.043700
     34 H113        4.4580    0.8560    5.7190 hc        1 PVB      0.043700
     35 H101        4.6690   -1.5290    5.4420 hc        1 PVB      0.043700
     36 H102        3.5520   -2.4850    4.3800 hc        1 PVB      0.043700
     37 H103        2.9560   -1.8260    5.9610 hc        1 PVB      0.043700
     38 H8          0.6660   -0.6260    5.6310 h5        1 PVB      0.061800
     39 H2          1.7500    0.0510   -1.8320 hn        1 PVB      0.434800
     40 H6         -2.4070   -0.5140    1.9390 hn        1 PVB      0.447800
     41 H2A        -4.0340    1.0500    0.9590 ha        1 PVB      0.114000
     42 H6A        -1.5610   -1.6380   -1.4100 ha        1 PVB      0.144000
     43 H3A        -5.4690    1.4440   -1.0260 ha        1 PVB      0.141000
     44 H12         3.6950    1.3460   -0.2270 h1        1 PVB      0.064700
     45 H13         3.7530    0.6730   -3.2530 hc        1 PVB      0.064700
     46 H151        4.5980   -1.0290    0.0160 h1        1 PVB      0.051700
     47 H152        5.7320    0.1560   -0.7940 h1        1 PVB      0.051700
     48 H161        2.9200    3.1050   -3.4240 hc        1 PVB      0.038533
     49 H162        2.5670    3.0450   -1.6490 hc        1 PVB      0.038533
     50 H163        1.6980    1.9410   -2.7940 hc        1 PVB      0.038533
     51 H141        5.2930    2.6690   -1.4660 hc        1 PVB      0.038533
     52 H142        5.9530    1.3460   -2.5230 hc        1 PVB      0.038533
     53 H143        5.1870    2.8050   -3.2690 hc        1 PVB      0.038533
     54 H1          4.1360   -1.7350   -2.1540 ho        1 PVB      0.410000
@<TRIPOS>BOND
     1    1    6 ar  
     2    1    7 ar  
     3    2    3 1   
     4    2   29 1   
     5    2   30 1   
     6    2   31 1   
     7    3    4 1   
     8    3   10 1   
     9    4    5 ar  
    10    4    8 ar  
    11    5    6 ar  
    12    6   22 1   
    13    7    8 ar  
    14    7   11 1   
    15    8    9 1   
    16    9   10 2   
    17   10   38 1   
    18   11   12 1   
    19   11   40 1   
    20   12   13 ar  
    21   12   18 ar  
    22   13   14 ar  
    23   13   41 1   
    24   14   15 ar  
    25   14   43 1   
    26   15   16 ar  
    27   15   19 1   
    28   16   17 1   
    29   16   18 ar  
    30   18   42 1   
    31   19   20 1   
    32   19   21 1   
    33   22   23 1   
    34   22   39 1   
    35   23   24 1   
    36   23   27 1   
    37   23   44 1   
    38   24   25 1   
    39   24   26 1   
    40   24   45 1   
    41   25   48 1   
    42   25   49 1   
    43   25   50 1   
    44   26   51 1   
    45   26   52 1   
    46   26   53 1   
    47   27   28 1   
    48   27   46 1   
    49   27   47 1   
    50   28   54 1   
    51   29   32 1   
    52   29   33 1   
    53   29   34 1   
    54   30   35 1   
    55   30   36 1   
    56   30   37 1   
@<TRIPOS>SUBSTRUCTURE
     1 PVB         1 TEMP              0 ****  ****    0 ROOT
