@<TRIPOS>MOLECULE
PVC
   69    68     1     0     0
SMALL
bcc


@<TRIPOS>ATOM
      1 CP1         0.5520   -0.9220   -0.1070 c         1 PVC      0.633100
      2 OP          1.6710   -1.4180   -0.2650 o         1 PVC     -0.562000
      3 CP2        -0.2460   -0.8270    1.1600 c3        1 PVC     -0.130400
      4 CP3         0.6530   -0.5970    2.3550 c3        1 PVC     -0.078400
      5 CP4        -0.1400   -0.6410    3.6430 c3        1 PVC     -0.078400
      6 CP5         0.7520   -0.3950    4.8410 c3        1 PVC     -0.079400
      7 CP6        -0.0370   -0.4430    6.1320 c3        1 PVC     -0.078400
      8 CP7         0.8550   -0.1980    7.3300 c3        1 PVC     -0.079400
      9 CP8         0.0670   -0.2460    8.6210 c3        1 PVC     -0.078400
     10 CP9         0.9590   -0.0030    9.8200 c3        1 PVC     -0.079400
     11 CPA         0.1700   -0.0520   11.1110 c3        1 PVC     -0.078400
     12 CPB         1.0620    0.1900   12.3100 c3        1 PVC     -0.079400
     13 CPC         0.2740    0.1410   13.6010 c3        1 PVC     -0.078400
     14 CPD         1.1660    0.3840   14.7990 c3        1 PVC     -0.079400
     15 CC6         0.5470   -0.4520   -2.4540 c3        1 PVC      0.146400
     16 CC5        -0.5460   -0.2200   -3.4960 c3        1 PVC      0.112100
     17 CC4         0.0820    0.2740   -4.8180 c3        1 PVC      0.177300
     18 CC3        -0.9980    0.6800   -5.7720 c2        1 PVC     -0.077100
     19 CC2        -1.3830    1.9520   -6.0260 ce        1 PVC     -0.035100
     20 CC1        -0.8190    3.2400   -5.4400 c         1 PVC      0.908800
     21 O2         -2.4010    2.1210   -6.9450 oh        1 PVC     -0.566100
     22 O3         -1.5930   -0.4260   -6.3760 oh        1 PVC     -0.560100
     23 O4          0.9120   -0.7340   -5.3670 oh        1 PVC     -0.600800
     24 O5         -1.2030   -1.4700   -3.6780 oh        1 PVC     -0.625800
     25 O6         -0.1050   -0.3910   -1.1710 os        1 PVC     -0.427900
     26 OC1         0.0740    3.1940   -4.5560 o         1 PVC     -0.816300
     27 OC2        -1.3280    4.2990   -5.9130 o         1 PVC     -0.816300
     28 CPE         0.3770    0.3350   16.0900 c3        1 PVC     -0.079400
     29 CPF         1.2680    0.5780   17.2900 c3        1 PVC     -0.080400
     30 CPG         0.4870    0.5310   18.5780 c3        1 PVC     -0.092100
     31 HP21       -0.8110   -1.7900    1.2720 hc        1 PVC      0.074700
     32 HP22       -0.9980    0.0010    1.0670 hc        1 PVC      0.074700
     33 HP31        1.4580   -1.3790    2.3710 hc        1 PVC      0.056200
     34 HP32        1.1620    0.3980    2.2550 hc        1 PVC      0.056200
     35 HP41       -0.6390   -1.6400    3.7450 hc        1 PVC      0.038700
     36 HP42       -0.9510    0.1340    3.6120 hc        1 PVC      0.038700
     37 HP51        1.5670   -1.1660    4.8680 hc        1 PVC      0.041700
     38 HP52        1.2490    0.6070    4.7400 hc        1 PVC      0.041700
     39 HP61       -0.8500    0.3290    6.1040 hc        1 PVC      0.038700
     40 HP62       -0.5340   -1.4430    6.2320 hc        1 PVC      0.038700
     41 HP71        1.3520    0.8030    7.2300 hc        1 PVC      0.039700
     42 HP72        1.6690   -0.9690    7.3570 hc        1 PVC      0.039700
     43 HP81       -0.4320   -1.2470    8.7200 hc        1 PVC      0.038700
     44 HP82       -0.7460    0.5260    8.5950 hc        1 PVC      0.038700
     45 HP91        1.4570    0.9970    9.7210 hc        1 PVC      0.039200
     46 HP92        1.7720   -0.7760    9.8460 hc        1 PVC      0.039200
     47 HPA1       -0.3290   -1.0520   11.2090 hc        1 PVC      0.039200
     48 HPA2       -0.6420    0.7210   11.0850 hc        1 PVC      0.039200
     49 HPB1        1.8750   -0.5830   12.3360 hc        1 PVC      0.039200
     50 HPB2        1.5610    1.1900   12.2110 hc        1 PVC      0.039200
     51 HPC1       -0.2250   -0.8590   13.6990 hc        1 PVC      0.039200
     52 HPC2       -0.5390    0.9150   13.5740 hc        1 PVC      0.039200
     53 HPD1        1.6650    1.3840   14.7000 hc        1 PVC      0.039200
     54 HPD2        1.9780   -0.3890   14.8260 hc        1 PVC      0.039200
     55 HC61        1.0330   -1.4510   -2.5920 h1        1 PVC      0.070200
     56 HC62        1.3110    0.3660   -2.4900 h1        1 PVC      0.070200
     57 HC5        -1.2820    0.5450   -3.1240 h1        1 PVC      0.072700
     58 HC4         0.7600    1.1590   -4.6210 h1        1 PVC      0.147700
     59 H2         -2.5190    3.0860   -7.0510 ho        1 PVC      0.455000
     60 H3         -2.1200   -0.1000   -7.1170 ho        1 PVC      0.423000
     61 H4          0.3390   -1.4770   -5.5960 ho        1 PVC      0.404000
     62 H5         -1.8210   -1.3500   -4.4120 ho        1 PVC      0.420000
     63 HPE1       -0.4350    1.1080   16.0640 hc        1 PVC      0.039200
     64 HPE2       -0.1210   -0.6650   16.1890 hc        1 PVC      0.039200
     65 HPF1        1.7670    1.5780   17.1880 hc        1 PVC      0.038200
     66 HPF2        2.0810   -0.1950   17.3140 hc        1 PVC      0.038200
     67 HPG1        1.1630    0.7120   19.4490 hc        1 PVC      0.031367
     68 HPG2        0.0030   -0.4670   18.7090 hc        1 PVC      0.031367
     69 HPG3       -0.3120    1.3110   18.5830 hc        1 PVC      0.031367
@<TRIPOS>BOND
     1    1    2 2   
     2    1    3 1   
     3    1   25 1   
     4    3    4 1   
     5    3   31 1   
     6    3   32 1   
     7    4    5 1   
     8    4   33 1   
     9    4   34 1   
    10    5    6 1   
    11    5   35 1   
    12    5   36 1   
    13    6    7 1   
    14    6   37 1   
    15    6   38 1   
    16    7    8 1   
    17    7   39 1   
    18    7   40 1   
    19    8    9 1   
    20    8   41 1   
    21    8   42 1   
    22    9   10 1   
    23    9   43 1   
    24    9   44 1   
    25   10   11 1   
    26   10   45 1   
    27   10   46 1   
    28   11   12 1   
    29   11   47 1   
    30   11   48 1   
    31   12   13 1   
    32   12   49 1   
    33   12   50 1   
    34   13   14 1   
    35   13   51 1   
    36   13   52 1   
    37   14   28 1   
    38   14   53 1   
    39   14   54 1   
    40   15   16 1   
    41   15   25 1   
    42   15   55 1   
    43   15   56 1   
    44   16   17 1   
    45   16   24 1   
    46   16   57 1   
    47   17   18 1   
    48   17   23 1   
    49   17   58 1   
    50   18   19 2   
    51   18   22 1   
    52   19   20 1   
    53   19   21 1   
    54   20   26 1   
    55   20   27 1   
    56   21   59 1   
    57   22   60 1   
    58   23   61 1   
    59   24   62 1   
    60   28   29 1   
    61   28   63 1   
    62   28   64 1   
    63   29   30 1   
    64   29   65 1   
    65   29   66 1   
    66   30   67 1   
    67   30   68 1   
    68   30   69 1   
@<TRIPOS>SUBSTRUCTURE
     1 PVC         1 TEMP              0 ****  ****    0 ROOT
