@<TRIPOS>MOLECULE
PVC
   69    68     1     0     0
SMALL
bcc


@<TRIPOS>ATOM
      1 CP1        -2.5910    0.9460    1.1220 c         1 PVC      0.633100
      2 OP         -2.6580    0.9810    2.3540 o         1 PVC     -0.562000
      3 CP2        -1.3840    1.1560    0.2560 c3        1 PVC     -0.130400
      4 CP3        -0.1420    0.5850    0.9050 c3        1 PVC     -0.078400
      5 CP4         1.0930    0.9210    0.0970 c3        1 PVC     -0.078400
      6 CP5         2.3360    0.3360    0.7320 c3        1 PVC     -0.079400
      7 CP6         3.5740    0.6740   -0.0710 c3        1 PVC     -0.078400
      8 CP7         4.8170    0.0880    0.5630 c3        1 PVC     -0.079400
      9 CP8         6.0550    0.4270   -0.2400 c3        1 PVC     -0.078400
     10 CP9         7.2980   -0.1590    0.3940 c3        1 PVC     -0.079400
     11 CPA         8.5370    0.1790   -0.4080 c3        1 PVC     -0.078400
     12 CPB         9.7800   -0.4070    0.2260 c3        1 PVC     -0.079400
     13 CPC        11.0180   -0.0680   -0.5760 c3        1 PVC     -0.078400
     14 CPD        12.2610   -0.6540    0.0580 c3        1 PVC     -0.079400
     15 CC6        -4.9460    0.5170    1.1140 c3        1 PVC      0.146400
     16 CC5        -6.0660    0.7110    0.0930 c3        1 PVC      0.112100
     17 CC4        -7.3540    0.0140    0.5860 c3        1 PVC      0.177300
     18 CC3        -8.3900    0.0410   -0.4950 c2        1 PVC     -0.077100
     19 CC2        -8.7030   -0.9930   -1.3080 ce        1 PVC     -0.035100
     20 CC1        -8.1130   -2.3970   -1.3140 c         1 PVC      0.908800
     21 O2         -9.6940   -0.7690   -2.2450 oh        1 PVC     -0.566100
     22 O3         -9.0050    1.2880   -0.5860 oh        1 PVC     -0.560100
     23 O4         -7.8180    0.6350    1.7710 oh        1 PVC     -0.600800
     24 O5         -6.2610    2.1150   -0.0330 oh        1 PVC     -0.625800
     25 O6         -3.7120    0.7060    0.3930 os        1 PVC     -0.427900
     26 OC1        -7.1680   -2.6880   -0.5360 o         1 PVC     -0.816300
     27 OC2        -8.6460   -3.1880   -2.1460 o         1 PVC     -0.816300
     28 CPE        13.4990   -0.3160   -0.7440 c3        1 PVC     -0.079400
     29 CPF        14.7440   -0.9020   -0.1110 c3        1 PVC     -0.080400
     30 CPG        15.9790   -0.5670   -0.9060 c3        1 PVC     -0.092100
     31 HP21       -1.5570    0.6850   -0.7480 hc        1 PVC      0.074200
     32 HP22       -1.2720    2.2620    0.1010 hc        1 PVC      0.074200
     33 HP31       -0.0440    0.9930    1.9460 hc        1 PVC      0.056200
     34 HP32       -0.2450   -0.5290    0.9950 hc        1 PVC      0.056200
     35 HP41        0.9800    0.5230   -0.9470 hc        1 PVC      0.038700
     36 HP42        1.2000    2.0350    0.0170 hc        1 PVC      0.038700
     37 HP51        2.4450    0.7290    1.7760 hc        1 PVC      0.041700
     38 HP52        2.2300   -0.7790    0.8080 hc        1 PVC      0.041700
     39 HP61        3.4630    0.2810   -1.1160 hc        1 PVC      0.038700
     40 HP62        3.6800    1.7880   -0.1470 hc        1 PVC      0.038700
     41 HP71        4.9270    0.4810    1.6080 hc        1 PVC      0.039700
     42 HP72        4.7110   -1.0260    0.6380 hc        1 PVC      0.039700
     43 HP81        5.9450    0.0340   -1.2850 hc        1 PVC      0.038700
     44 HP82        6.1610    1.5410   -0.3150 hc        1 PVC      0.038700
     45 HP91        7.4080    0.2340    1.4400 hc        1 PVC      0.039200
     46 HP92        7.1920   -1.2740    0.4700 hc        1 PVC      0.039200
     47 HPA1        8.4260   -0.2140   -1.4530 hc        1 PVC      0.039200
     48 HPA2        8.6420    1.2940   -0.4830 hc        1 PVC      0.039200
     49 HPB1        9.8900   -0.0140    1.2720 hc        1 PVC      0.039200
     50 HPB2        9.6740   -1.5210    0.3020 hc        1 PVC      0.039200
     51 HPC1       10.9080   -0.4610   -1.6210 hc        1 PVC      0.039200
     52 HPC2       11.1240    1.0460   -0.6520 hc        1 PVC      0.039200
     53 HPD1       12.3710   -0.2610    1.1030 hc        1 PVC      0.039200
     54 HPD2       12.1550   -1.7690    0.1340 hc        1 PVC      0.039200
     55 HC61       -5.0230    1.2620    1.9470 h1        1 PVC      0.070200
     56 HC62       -4.9510   -0.5280    1.5180 h1        1 PVC      0.070200
     57 HC5        -5.7650    0.2780   -0.9010 h1        1 PVC      0.072700
     58 HC4        -7.1330   -1.0600    0.8660 h1        1 PVC      0.147700
     59 H2         -9.8330   -1.6190   -2.7080 ho        1 PVC      0.455000
     60 H3         -9.7890    1.1840   -1.1400 ho        1 PVC      0.423000
     61 H4         -8.0670    1.5390    1.5360 ho        1 PVC      0.404000
     62 H5         -7.0380    2.2350   -0.5950 ho        1 PVC      0.420000
     63 HPE1       13.3890   -0.7090   -1.7890 hc        1 PVC      0.039200
     64 HPE2       13.6060    0.7980   -0.8200 hc        1 PVC      0.039200
     65 HPF1       14.8510   -0.5090    0.9350 hc        1 PVC      0.038200
     66 HPF2       14.6340   -2.0160   -0.0350 hc        1 PVC      0.038200
     67 HPG1       16.8840   -1.0080   -0.4230 hc        1 PVC      0.031367
     68 HPG2       15.9010   -0.9720   -1.9440 hc        1 PVC      0.031367
     69 HPG3       16.1180    0.5390   -0.9720 hc        1 PVC      0.031367
@<TRIPOS>BOND
     1    1    2 2   
     2    1    3 1   
     3    1   25 1   
     4    3    4 1   
     5    3   31 1   
     6    3   32 1   
     7    4    5 1   
     8    4   33 1   
     9    4   34 1   
    10    5    6 1   
    11    5   35 1   
    12    5   36 1   
    13    6    7 1   
    14    6   37 1   
    15    6   38 1   
    16    7    8 1   
    17    7   39 1   
    18    7   40 1   
    19    8    9 1   
    20    8   41 1   
    21    8   42 1   
    22    9   10 1   
    23    9   43 1   
    24    9   44 1   
    25   10   11 1   
    26   10   45 1   
    27   10   46 1   
    28   11   12 1   
    29   11   47 1   
    30   11   48 1   
    31   12   13 1   
    32   12   49 1   
    33   12   50 1   
    34   13   14 1   
    35   13   51 1   
    36   13   52 1   
    37   14   28 1   
    38   14   53 1   
    39   14   54 1   
    40   15   16 1   
    41   15   25 1   
    42   15   55 1   
    43   15   56 1   
    44   16   17 1   
    45   16   24 1   
    46   16   57 1   
    47   17   18 1   
    48   17   23 1   
    49   17   58 1   
    50   18   19 2   
    51   18   22 1   
    52   19   20 1   
    53   19   21 1   
    54   20   26 1   
    55   20   27 1   
    56   21   59 1   
    57   22   60 1   
    58   23   61 1   
    59   24   62 1   
    60   28   29 1   
    61   28   63 1   
    62   28   64 1   
    63   29   30 1   
    64   29   65 1   
    65   29   66 1   
    66   30   67 1   
    67   30   68 1   
    68   30   69 1   
@<TRIPOS>SUBSTRUCTURE
     1 PVC         1 TEMP              0 ****  ****    0 ROOT
