@<TRIPOS>MOLECULE
PVC
   69    68     1     0     0
SMALL
bcc


@<TRIPOS>ATOM
      1 CP1         0.5740   -0.9410   -0.1080 c         1 PVC      0.633100
      2 OP          1.7040   -1.4120   -0.2690 o         1 PVC     -0.562000
      3 CP2        -0.2270   -0.8720    1.1590 c3        1 PVC     -0.130400
      4 CP3         0.6660   -0.6120    2.3530 c3        1 PVC     -0.078400
      5 CP4        -0.1240   -0.6810    3.6420 c3        1 PVC     -0.078400
      6 CP5         0.7600   -0.4040    4.8390 c3        1 PVC     -0.079400
      7 CP6        -0.0250   -0.4770    6.1300 c3        1 PVC     -0.078400
      8 CP7         0.8580   -0.1990    7.3270 c3        1 PVC     -0.079400
      9 CP8         0.0740   -0.2730    8.6200 c3        1 PVC     -0.078400
     10 CP9         0.9570    0.0060    9.8160 c3        1 PVC     -0.079400
     11 CPA         0.1730   -0.0690   11.1090 c3        1 PVC     -0.078400
     12 CPB         1.0570    0.2100   12.3050 c3        1 PVC     -0.079400
     13 CPC         0.2720    0.1350   13.5980 c3        1 PVC     -0.078400
     14 CPD         1.1560    0.4140   14.7940 c3        1 PVC     -0.079400
     15 CC6         0.5620   -0.4550   -2.4520 c3        1 PVC      0.146400
     16 CC5        -0.5330   -0.2310   -3.4930 c3        1 PVC      0.112100
     17 CC4         0.0890    0.2900   -4.8080 c3        1 PVC      0.177300
     18 CC3        -0.9970    0.6880   -5.7600 c2        1 PVC     -0.077100
     19 CC2        -1.4030    1.9550   -6.0000 ce        1 PVC     -0.035100
     20 CC1        -0.8650    3.2470   -5.3980 c         1 PVC      0.908800
     21 O2         -2.4220    2.1160   -6.9200 oh        1 PVC     -0.566100
     22 O3         -1.5690   -0.4220   -6.3780 oh        1 PVC     -0.560100
     23 O4          0.9390   -0.6960   -5.3670 oh        1 PVC     -0.600800
     24 O5         -1.1670   -1.4900   -3.6920 oh        1 PVC     -0.625800
     25 O6         -0.0940   -0.4180   -1.1700 os        1 PVC     -0.427900
     26 OC1         0.0260    3.2070   -4.5130 o         1 PVC     -0.816300
     27 OC2        -1.3920    4.3010   -5.8600 o         1 PVC     -0.816300
     28 CPE         0.3720    0.3390   16.0870 c3        1 PVC     -0.079400
     29 CPF         1.2550    0.6190   17.2850 c3        1 PVC     -0.080400
     30 CPG         0.4780    0.5450   18.5740 c3        1 PVC     -0.092100
     31 HP21       -0.7580   -1.8540    1.2720 hc        1 PVC      0.074200
     32 HP22       -1.0050   -0.0690    1.0650 hc        1 PVC      0.074200
     33 HP31        1.4970   -1.3670    2.3680 hc        1 PVC      0.056200
     34 HP32        1.1410    0.4000    2.2530 hc        1 PVC      0.056200
     35 HP41       -0.9620    0.0640    3.6110 hc        1 PVC      0.038700
     36 HP42       -0.5890   -1.6970    3.7450 hc        1 PVC      0.038700
     37 HP51        1.6000   -1.1460    4.8650 hc        1 PVC      0.041700
     38 HP52        1.2220    0.6140    4.7360 hc        1 PVC      0.041700
     39 HP61       -0.8660    0.2650    6.1020 hc        1 PVC      0.038700
     40 HP62       -0.4870   -1.4950    6.2320 hc        1 PVC      0.038700
     41 HP71        1.3190    0.8190    7.2250 hc        1 PVC      0.039700
     42 HP72        1.6990   -0.9410    7.3550 hc        1 PVC      0.039700
     43 HP81       -0.7670    0.4690    8.5920 hc        1 PVC      0.038700
     44 HP82       -0.3880   -1.2910    8.7220 hc        1 PVC      0.038700
     45 HP91        1.7980   -0.7360    9.8440 hc        1 PVC      0.039200
     46 HP92        1.4180    1.0240    9.7140 hc        1 PVC      0.039200
     47 HPA1       -0.2880   -1.0870   11.2100 hc        1 PVC      0.039200
     48 HPA2       -0.6680    0.6730   11.0810 hc        1 PVC      0.039200
     49 HPB1        1.8980   -0.5310   12.3320 hc        1 PVC      0.039200
     50 HPB2        1.5170    1.2280   12.2030 hc        1 PVC      0.039200
     51 HPC1       -0.5690    0.8770   13.5700 hc        1 PVC      0.039200
     52 HPC2       -0.1880   -0.8830   13.7000 hc        1 PVC      0.039200
     53 HPD1        1.6160    1.4330   14.6920 hc        1 PVC      0.039200
     54 HPD2        1.9980   -0.3270   14.8210 hc        1 PVC      0.039200
     55 HC61        1.0650   -1.4440   -2.5990 h1        1 PVC      0.070200
     56 HC62        1.3120    0.3760   -2.4780 h1        1 PVC      0.070200
     57 HC5        -1.2830    0.5170   -3.1140 h1        1 PVC      0.072700
     58 HC4         0.7500    1.1850   -4.5990 h1        1 PVC      0.147700
     59 H2         -2.5580    3.0790   -7.0160 ho        1 PVC      0.455000
     60 H3         -2.1010   -0.0980   -7.1170 ho        1 PVC      0.423000
     61 H4          0.3790   -1.4460   -5.6060 ho        1 PVC      0.404000
     62 H5         -1.7850   -1.3730   -4.4260 ho        1 PVC      0.420000
     63 HPE1       -0.0890   -0.6790   16.1890 hc        1 PVC      0.039200
     64 HPE2       -0.4700    1.0810   16.0600 hc        1 PVC      0.039200
     65 HPF1        2.0960   -0.1230   17.3090 hc        1 PVC      0.038200
     66 HPF2        1.7150    1.6360   17.1800 hc        1 PVC      0.038200
     67 HPG1        1.1470    0.7530   19.4430 hc        1 PVC      0.031367
     68 HPG2        0.0320   -0.4700   18.7080 hc        1 PVC      0.031367
     69 HPG3       -0.3500    1.2940   18.5780 hc        1 PVC      0.031367
@<TRIPOS>BOND
     1    1    2 2   
     2    1    3 1   
     3    1   25 1   
     4    3    4 1   
     5    3   31 1   
     6    3   32 1   
     7    4    5 1   
     8    4   33 1   
     9    4   34 1   
    10    5    6 1   
    11    5   35 1   
    12    5   36 1   
    13    6    7 1   
    14    6   37 1   
    15    6   38 1   
    16    7    8 1   
    17    7   39 1   
    18    7   40 1   
    19    8    9 1   
    20    8   41 1   
    21    8   42 1   
    22    9   10 1   
    23    9   43 1   
    24    9   44 1   
    25   10   11 1   
    26   10   45 1   
    27   10   46 1   
    28   11   12 1   
    29   11   47 1   
    30   11   48 1   
    31   12   13 1   
    32   12   49 1   
    33   12   50 1   
    34   13   14 1   
    35   13   51 1   
    36   13   52 1   
    37   14   28 1   
    38   14   53 1   
    39   14   54 1   
    40   15   16 1   
    41   15   25 1   
    42   15   55 1   
    43   15   56 1   
    44   16   17 1   
    45   16   24 1   
    46   16   57 1   
    47   17   18 1   
    48   17   23 1   
    49   17   58 1   
    50   18   19 2   
    51   18   22 1   
    52   19   20 1   
    53   19   21 1   
    54   20   26 1   
    55   20   27 1   
    56   21   59 1   
    57   22   60 1   
    58   23   61 1   
    59   24   62 1   
    60   28   29 1   
    61   28   63 1   
    62   28   64 1   
    63   29   30 1   
    64   29   65 1   
    65   29   66 1   
    66   30   67 1   
    67   30   68 1   
    68   30   69 1   
@<TRIPOS>SUBSTRUCTURE
     1 PVC         1 TEMP              0 ****  ****    0 ROOT
