@<TRIPOS>MOLECULE
PVE
   44    46     1     0     0
SMALL
bcc


@<TRIPOS>ATOM
      1 O23         1.0780   -1.7930   -1.6480 os        1 PVE     -0.477200
      2 C22         2.1330   -1.5940   -2.5580 c         1 PVE      0.755600
      3 O24         3.2460   -1.7800   -2.0950 o         1 PVE     -0.585000
      4 C21         1.5990   -1.1950   -3.9060 c3        1 PVE     -0.155900
      5 C20         0.0910   -1.0460   -3.6970 c3        1 PVE     -0.155900
      6 C18        -0.1330   -1.5350   -2.2940 c         1 PVE      0.755600
      7 O19        -1.1260   -1.7710   -1.6130 o         1 PVE     -0.585000
      8 N17         0.2200   -3.8490    0.4030 nh        1 PVE     -0.800200
      9 C3          0.5620   -4.9130   -0.4440 ca        1 PVE      0.079600
     10 C4          1.6730   -5.6970   -0.2420 ca        1 PVE     -0.119000
     11 C10         1.9660   -6.8070   -1.0880 ca        1 PVE     -0.065000
     12 C5          3.0670   -7.6430   -0.8040 ca        1 PVE     -0.145000
     13 C6          3.3700   -8.6990   -1.6410 ca        1 PVE      0.050100
     14 O25         4.4170   -9.5720   -1.4400 oh        1 PVE     -0.509100
     15 C7          2.5710   -8.9500   -2.7920 ca        1 PVE      0.152100
     16 O26         2.8180   -9.9980   -3.6410 oh        1 PVE     -0.482100
     17 C8          1.4860   -8.1370   -3.0890 ca        1 PVE     -0.157000
     18 C9          1.1640   -7.0460   -2.2370 ca        1 PVE      0.051700
     19 N1          0.0540   -6.2230   -2.4850 na        1 PVE     -0.033100
     20 C14        -0.5650   -6.1350   -3.8170 c3        1 PVE     -0.138000
     21 C15        -0.0550   -4.8480   -4.5950 c         1 PVE      0.924600
     22 O16         0.0880   -4.9780   -5.8270 o         1 PVE     -0.801800
     23 C2         -0.3370   -5.2570   -1.5760 ca        1 PVE      0.201500
     24 N11        -1.5890   -4.7040   -1.6490 nh        1 PVE     -0.225200
     25 C12        -2.4410   -4.8410   -2.8130 c3        1 PVE      0.009300
     26 C13        -2.0840   -6.0310   -3.6970 c3        1 PVE     -0.094400
     27 OXT         0.1240   -3.7990   -3.9130 o         1 PVE     -0.801800
     28 H211        1.8050   -2.0300   -4.6320 hc        1 PVE      0.113700
     29 H212        2.0840   -0.2570   -4.2640 hc        1 PVE      0.113700
     30 H201       -0.4760   -1.7070   -4.4090 hc        1 PVE      0.113700
     31 H202       -0.2560    0.0100   -3.8040 hc        1 PVE      0.113700
     32 H17         0.9400   -3.6510    1.0680 hn        1 PVE      0.406300
     33 H4          2.3770   -5.4780    0.5780 ha        1 PVE      0.154000
     34 H5          3.6790   -7.4390    0.0870 ha        1 PVE      0.147000
     35 H25         4.9440   -9.2440   -0.6970 ho        1 PVE      0.436000
     36 H26         3.6340  -10.4380   -3.3510 ho        1 PVE      0.446000
     37 H8          0.9060   -8.3750   -3.9930 ha        1 PVE      0.177000
     38 H14        -0.3000   -7.0350   -4.4310 h1        1 PVE      0.100700
     39 H131       -2.5210   -6.9750   -3.2850 hc        1 PVE      0.073700
     40 H132       -2.5030   -5.8670   -4.7240 hc        1 PVE      0.073700
     41 H11        -1.7620   -3.8750   -1.1110 hn        1 PVE      0.324700
     42 H121       -3.4980   -4.9420   -2.4340 h1        1 PVE      0.075700
     43 H122       -2.3580   -3.8940   -3.4270 h1        1 PVE      0.075700
     44 H172       -0.0540   -3.0160   -0.0880 hn        1 PVE      0.406300
@<TRIPOS>BOND
     1    1    2 1   
     2    1    6 1   
     3    2    3 2   
     4    2    4 1   
     5    4    5 1   
     6    4   28 1   
     7    4   29 1   
     8    5    6 1   
     9    5   30 1   
    10    5   31 1   
    11    6    7 2   
    12    8    9 1   
    13    8   32 1   
    14    8   44 1   
    15    9   10 ar  
    16    9   23 ar  
    17   10   11 ar  
    18   10   33 1   
    19   11   12 ar  
    20   11   18 ar  
    21   12   13 ar  
    22   12   34 1   
    23   13   14 1   
    24   13   15 ar  
    25   14   35 1   
    26   15   16 1   
    27   15   17 ar  
    28   16   36 1   
    29   17   18 ar  
    30   17   37 1   
    31   18   19 2   
    32   19   20 1   
    33   19   23 1   
    34   20   21 1   
    35   20   26 1   
    36   20   38 1   
    37   21   22 1   
    38   21   27 1   
    39   23   24 1   
    40   24   25 1   
    41   24   41 1   
    42   25   26 1   
    43   25   42 1   
    44   25   43 1   
    45   26   39 1   
    46   26   40 1   
@<TRIPOS>SUBSTRUCTURE
     1 PVE         1 TEMP              0 ****  ****    0 ROOT
