@<TRIPOS>MOLECULE
PVE
   43    45     1     0     0
SMALL
bcc


@<TRIPOS>ATOM
      1 O23         2.9940   -1.1100   -3.0260 o         1 PVE     -0.844300
      2 C22         3.0170   -1.3940   -1.7890 c         1 PVE      0.891600
      3 O24         3.7660   -2.2920   -1.3080 o         1 PVE     -0.844300
      4 C21         2.0460   -0.6650   -0.8510 c3        1 PVE     -0.198400
      5 C20         0.6580   -0.5490   -1.4460 c3        1 PVE     -0.137400
      6 C18         0.0510   -1.9220   -1.6610 c         1 PVE      0.664100
      7 O19        -0.8900   -2.3460   -0.9580 o         1 PVE     -0.641100
      8 N17         0.5410   -2.6740   -2.7420 n         1 PVE     -0.464100
      9 C3          0.7320   -4.0690   -2.6350 ca        1 PVE     -0.047400
     10 C4          2.0000   -4.5950   -2.5350 ca        1 PVE     -0.041000
     11 C10         2.2100   -6.0030   -2.5940 ca        1 PVE     -0.088000
     12 C5          3.5200   -6.5280   -2.5650 ca        1 PVE     -0.148000
     13 C6          3.7340   -7.8880   -2.6880 ca        1 PVE      0.087100
     14 O25         4.9810   -8.4690   -2.6610 oh        1 PVE     -0.480100
     15 C7          2.6200   -8.7620   -2.8640 ca        1 PVE      0.147100
     16 O26         2.8970  -10.0960   -3.0220 oh        1 PVE     -0.481100
     17 C8          1.3250   -8.2670   -2.8690 ca        1 PVE     -0.221000
     18 C9          1.0950   -6.8740   -2.7050 ca        1 PVE      0.059700
     19 N1         -0.2080   -6.3530   -2.6440 na        1 PVE     -0.036100
     20 C14        -1.3330   -7.2930   -2.5410 c3        1 PVE     -0.142000
     21 C15        -1.6810   -8.0100   -3.9190 c         1 PVE      0.925600
     22 O16        -2.2070   -7.3170   -4.8190 o         1 PVE     -0.791300
     23 C2         -0.4260   -4.9890   -2.6810 ca        1 PVE      0.193500
     24 N11        -1.6920   -4.4820   -2.7500 nh        1 PVE     -0.243200
     25 C12        -2.8590   -5.3310   -2.7370 c3        1 PVE      0.004300
     26 C13        -2.6040   -6.6420   -2.0020 c3        1 PVE     -0.095400
     27 OXT        -1.4160   -9.2380   -3.9480 o         1 PVE     -0.791300
     28 H211        2.4470    0.3650   -0.6710 hc        1 PVE      0.046700
     29 H212        2.0070   -1.2010    0.1300 hc        1 PVE      0.046700
     30 H201        0.7260   -0.0030   -2.4260 hc        1 PVE      0.066200
     31 H202       -0.0170    0.0230   -0.7590 hc        1 PVE      0.066200
     32 H17         1.2970   -2.2220   -3.2500 hn        1 PVE      0.367500
     33 H4          2.8840   -3.9180   -2.4150 ha        1 PVE      0.235000
     34 H5          4.3640   -5.8290   -2.4480 ha        1 PVE      0.165000
     35 H25         5.6290   -7.7550   -2.5580 ho        1 PVE      0.417000
     36 H26         2.0650  -10.5460   -3.2430 ho        1 PVE      0.432000
     37 H8          0.4810   -8.9630   -3.0550 ha        1 PVE      0.214000
     38 H14        -1.0160   -8.0980   -1.8140 h1        1 PVE      0.078700
     39 H131       -3.4580   -7.3420   -2.1930 hc        1 PVE      0.061700
     40 H132       -2.5270   -6.4680   -0.8990 hc        1 PVE      0.061700
     41 H11        -1.8200   -3.5100   -2.5520 hn        1 PVE      0.328700
     42 H121       -3.7050   -4.7690   -2.2540 h1        1 PVE      0.086200
     43 H122       -3.1270   -5.5740   -3.8130 h1        1 PVE      0.086200
@<TRIPOS>BOND
     1    1    2 1   
     2    2    3 1   
     3    2    4 1   
     4    4    5 1   
     5    4   28 1   
     6    4   29 1   
     7    5    6 1   
     8    5   30 1   
     9    5   31 1   
    10    6    7 2   
    11    6    8 1   
    12    8    9 1   
    13    8   32 1   
    14    9   10 ar  
    15    9   23 ar  
    16   10   11 ar  
    17   10   33 1   
    18   11   12 ar  
    19   11   18 ar  
    20   12   13 ar  
    21   12   34 1   
    22   13   14 1   
    23   13   15 ar  
    24   14   35 1   
    25   15   16 1   
    26   15   17 ar  
    27   16   36 1   
    28   17   18 ar  
    29   17   37 1   
    30   18   19 2   
    31   19   20 1   
    32   19   23 1   
    33   20   21 1   
    34   20   26 1   
    35   20   38 1   
    36   21   22 1   
    37   21   27 1   
    38   23   24 1   
    39   24   25 1   
    40   24   41 1   
    41   25   26 1   
    42   25   42 1   
    43   25   43 1   
    44   26   39 1   
    45   26   40 1   
@<TRIPOS>SUBSTRUCTURE
     1 PVE         1 TEMP              0 ****  ****    0 ROOT
