@<TRIPOS>MOLECULE
PVE
   43    41     1     0     0
SMALL
bcc


@<TRIPOS>ATOM
      1 O23         0.5580    7.3720   -1.0440 o         1 PVE     -0.638000
      2 C22         0.9820    6.8340    0.0570 c1        1 PVE      0.326000
      3 O24         1.1980    7.5520    1.0630 os        1 PVE     -0.512000
      4 C21         1.3130    5.3820    0.0930 c3        1 PVE     -0.237000
      5 C20         0.0900    4.5650   -0.3440 c3        1 PVE     -0.159000
      6 C18         0.4940    3.1440   -0.5390 c2        1 PVE      0.316000
      7 O19         1.3820    2.8660   -1.3520 o         1 PVE     -0.395000
      8 N17        -0.2730    2.0960    0.0620 n         1 PVE     -0.343000
      9 C3         -0.0020    0.6990   -0.2890 c2        1 PVE      0.016000
     10 C4          1.3100    0.2160   -0.3290 c1        1 PVE     -0.078000
     11 C10         1.5740   -1.1780   -0.0560 c1        1 PVE     -0.083000
     12 C5          2.8650   -1.6520   -0.0750 c2        1 PVE     -0.163000
     13 C6          3.1210   -3.0150    0.2130 c1        1 PVE      0.042000
     14 O25         4.3840   -3.5580    0.1550 o         1 PVE     -0.232000
     15 C7          2.0650   -3.8740    0.5150 c2        1 PVE      0.096000
     16 O26         1.8130   -4.9320    1.4220 oh        1 PVE     -0.238000
     17 C8          0.7680   -3.3990    0.5350 c1        1 PVE     -0.210000
     18 C9          0.5100   -2.0520    0.2510 c1        1 PVE      0.088000
     19 N1         -0.7820   -1.5800    0.2910 n3        1 PVE     -0.118000
     20 C14        -1.9680   -2.5090    0.5950 c3        1 PVE     -0.111000
     21 C15        -2.0340   -3.6670   -0.4520 c2        1 PVE      0.343000
     22 O16        -2.7130   -4.7080   -0.1990 o         1 PVE     -0.525500
     23 C2         -1.0540   -0.1670    0.0150 c2        1 PVE      0.236000
     24 N11        -2.4880    0.2660   -0.1380 n3        1 PVE     -0.242000
     25 C12        -3.4180   -0.6740   -0.1560 c3        1 PVE     -0.061000
     26 C13        -3.2320   -1.7920    0.6960 c3        1 PVE     -0.174000
     27 OXT        -1.4370   -3.5480   -1.5880 o         1 PVE     -0.525500
     28 H211        2.0430    5.2070   -0.5060 hc        1 PVE      0.084000
     29 H212        1.5670    5.1300    0.9970 hc        1 PVE      0.084000
     30 H201       -0.2540    4.9220   -1.1870 hc        1 PVE      0.112500
     31 H202       -0.6100    4.6200    0.3480 hc        1 PVE      0.112500
     32 H17        -1.0060    2.3070    0.6170 hn        1 PVE      0.293000
     33 H4          2.0780    0.8650   -0.4080 ha        1 PVE      0.177000
     34 H5          3.4020   -1.4680   -0.8720 ha        1 PVE      0.142000
     35 H25         4.7210   -3.4330   -0.6610 ho        1 PVE      0.210000
     36 H26         1.7740   -5.7010    0.9770 ho        1 PVE      0.233000
     37 H8          0.7010   -3.7400   -0.3620 ha        1 PVE      0.215000
     38 H14        -1.8090   -3.0200    1.4190 h1        1 PVE      0.113000
     39 H131       -3.3250   -1.4940    1.5870 hc        1 PVE      0.101500
     40 H132       -3.9300   -2.4140    0.5190 hc        1 PVE      0.101500
     41 H11        -2.5690    0.7770   -0.8770 hn        1 PVE      0.326000
     42 H121       -3.4870   -1.0130   -1.0900 h1        1 PVE      0.139000
     43 H122       -4.3250   -0.2310    0.0920 h1        1 PVE      0.139000
@<TRIPOS>BOND
     1    1    2 1   
     2    2    4 1   
     3    4    5 1   
     4    4   28 1   
     5    4   29 1   
     6    5    6 1   
     7    5   30 1   
     8    5   31 1   
     9    6    7 1   
    10    6    8 1   
    11    8    9 1   
    12    8   32 1   
    13    9   10 1   
    14    9   23 1   
    15   10   33 1   
    16   11   12 1   
    17   11   18 1   
    18   12   13 1   
    19   12   34 1   
    20   13   15 1   
    21   14   35 1   
    22   15   16 1   
    23   15   17 1   
    24   16   36 1   
    25   17   37 1   
    26   18   19 1   
    27   19   20 1   
    28   19   23 1   
    29   20   21 1   
    30   20   26 1   
    31   20   38 1   
    32   21   22 1   
    33   21   27 1   
    34   23   24 1   
    35   24   25 1   
    36   24   41 1   
    37   25   26 1   
    38   25   42 1   
    39   25   43 1   
    40   26   39 1   
    41   26   40 1   
@<TRIPOS>SUBSTRUCTURE
     1 PVE         1 TEMP              0 ****  ****    0 ROOT
