@<TRIPOS>MOLECULE
PVE
   43    45     1     0     0
SMALL
bcc


@<TRIPOS>ATOM
      1 O23       -66.5970  -28.0350   21.3400 o         1 PVE     -0.843800
      2 C22       -67.0340  -26.9210   21.7750 c         1 PVE      0.905600
      3 O24       -66.7830  -25.8170   21.2290 o         1 PVE     -0.843800
      4 C21       -67.9180  -26.9330   23.0340 c3        1 PVE     -0.206400
      5 C20       -69.3750  -27.1870   22.7120 c3        1 PVE     -0.132400
      6 C18       -69.6600  -28.6680   22.5570 c         1 PVE      0.657100
      7 O19       -70.3910  -29.2800   23.3640 o         1 PVE     -0.648100
      8 N17       -69.1340  -29.2990   21.4210 n         1 PVE     -0.449100
      9 C3        -68.7600  -30.6610   21.4230 ca        1 PVE     -0.033400
     10 C4        -67.4370  -31.0110   21.2800 ca        1 PVE     -0.055000
     11 C10       -67.0500  -32.3750   21.1400 ca        1 PVE     -0.092000
     12 C5        -65.6940  -32.7060   20.9320 ca        1 PVE     -0.136000
     13 C6        -65.3240  -34.0260   20.7710 ca        1 PVE      0.030100
     14 O25       -64.0220  -34.4430   20.5770 oh        1 PVE     -0.520100
     15 C7        -66.3090  -35.0540   20.7930 ca        1 PVE      0.144100
     16 O26       -65.9770  -36.3770   20.6350 oh        1 PVE     -0.481100
     17 C8        -67.6490  -34.7490   20.9880 ca        1 PVE     -0.158000
     18 C9        -68.0350  -33.3960   21.1990 ca        1 PVE      0.058700
     19 N1        -69.3710  -33.0560   21.4720 na        1 PVE     -0.033100
     20 C14       -70.3400  -34.1410   21.6770 c3        1 PVE     -0.149000
     21 C15       -70.7730  -34.8550   20.3180 c         1 PVE      0.923600
     22 O16       -71.4270  -34.1770   19.4930 o         1 PVE     -0.784800
     23 C2        -69.7780  -31.7350   21.4990 ca        1 PVE      0.192500
     24 N11       -71.1000  -31.4100   21.5910 nh        1 PVE     -0.235200
     25 C12       -72.1300  -32.4120   21.7350 c3        1 PVE      0.002300
     26 C13       -71.6040  -33.6800   22.3960 c3        1 PVE     -0.095400
     27 OXT       -70.4320  -36.0580   20.2370 o         1 PVE     -0.784800
     28 H211      -67.5360  -27.7070   23.7450 hc        1 PVE      0.044200
     29 H212      -67.8340  -25.9310   23.5280 hc        1 PVE      0.044200
     30 H201      -70.0280  -26.8100   23.5430 hc        1 PVE      0.065200
     31 H202      -69.6560  -26.6400   21.7730 hc        1 PVE      0.065200
     32 H17       -68.4500  -28.7300   20.9250 hn        1 PVE      0.369500
     33 H4        -66.6530  -30.2180   21.2490 ha        1 PVE      0.225000
     34 H5        -64.9480  -31.8960   20.8950 ha        1 PVE      0.156000
     35 H25       -63.4750  -33.6530   20.4630 ho        1 PVE      0.430000
     36 H26       -65.0420  -36.4220   20.3820 ho        1 PVE      0.433000
     37 H8        -68.3970  -35.5680   20.9250 ha        1 PVE      0.226000
     38 H14       -69.8300  -34.9160   22.3200 h1        1 PVE      0.081700
     39 H131      -72.3710  -34.4920   22.3000 hc        1 PVE      0.062200
     40 H132      -71.4070  -33.5070   23.4850 hc        1 PVE      0.062200
     41 H11       -71.3390  -30.4670   21.8230 hn        1 PVE      0.326700
     42 H121      -72.9720  -31.9740   22.3390 h1        1 PVE      0.087700
     43 H122      -72.5020  -32.6790   20.6960 h1        1 PVE      0.087700
@<TRIPOS>BOND
     1    1    2 1   
     2    2    3 1   
     3    2    4 1   
     4    4    5 1   
     5    4   28 1   
     6    4   29 1   
     7    5    6 1   
     8    5   30 1   
     9    5   31 1   
    10    6    7 2   
    11    6    8 1   
    12    8    9 1   
    13    8   32 1   
    14    9   10 ar  
    15    9   23 ar  
    16   10   11 ar  
    17   10   33 1   
    18   11   12 ar  
    19   11   18 ar  
    20   12   13 ar  
    21   12   34 1   
    22   13   14 1   
    23   13   15 ar  
    24   14   35 1   
    25   15   16 1   
    26   15   17 ar  
    27   16   36 1   
    28   17   18 ar  
    29   17   37 1   
    30   18   19 2   
    31   19   20 1   
    32   19   23 1   
    33   20   21 1   
    34   20   26 1   
    35   20   38 1   
    36   21   22 1   
    37   21   27 1   
    38   23   24 1   
    39   24   25 1   
    40   24   41 1   
    41   25   26 1   
    42   25   42 1   
    43   25   43 1   
    44   26   39 1   
    45   26   40 1   
@<TRIPOS>SUBSTRUCTURE
     1 PVE         1 TEMP              0 ****  ****    0 ROOT
