@<TRIPOS>MOLECULE
PVE
   43    45     1     0     0
SMALL
bcc


@<TRIPOS>ATOM
      1 O23         3.4300   -1.9750   -2.1030 o         1 PVE     -0.843300
      2 C22         3.1230   -0.7910   -1.7510 c         1 PVE      0.905600
      3 O24         3.6830    0.2370   -2.2110 o         1 PVE     -0.843300
      4 C21         2.0030   -0.6130   -0.7100 c3        1 PVE     -0.206400
      5 C20         0.6290   -0.5940   -1.3430 c3        1 PVE     -0.132400
      6 C18         0.1120   -1.9980   -1.5940 c         1 PVE      0.657100
      7 O19        -0.8810   -2.4470   -0.9820 o         1 PVE     -0.649100
      8 N17         0.7450   -2.7360   -2.6030 ns        1 PVE     -0.449100
      9 C3          0.8440   -4.1440   -2.5540 ca        1 PVE     -0.034400
     10 C4          2.0760   -4.7430   -2.4180 ca        1 PVE     -0.052000
     11 C10         2.2160   -6.1580   -2.5040 ca        1 PVE     -0.087000
     12 C5          3.4940   -6.7540   -2.4360 ca        1 PVE     -0.156000
     13 C6          3.6400   -8.1230   -2.5610 ca        1 PVE      0.091100
     14 O25         4.8520   -8.7700   -2.4960 oh        1 PVE     -0.478100
     15 C7          2.4860   -8.9350   -2.7770 ca        1 PVE      0.147100
     16 O26         2.6970  -10.2820   -2.9250 oh        1 PVE     -0.480100
     17 C8          1.2220   -8.3700   -2.8280 ca        1 PVE     -0.217000
     18 C9          1.0620   -6.9660   -2.6740 ca        1 PVE      0.058700
     19 N1         -0.2120   -6.3730   -2.6830 na        1 PVE     -0.033100
     20 C14        -1.3910   -7.2500   -2.6750 c3        1 PVE     -0.144000
     21 C15        -1.6600   -7.9590   -4.0760 c         1 PVE      0.925600
     22 O16        -2.0420   -7.2410   -5.0270 o         1 PVE     -0.789300
     23 C2         -0.3530   -4.9990   -2.7230 ca        1 PVE      0.189500
     24 N11        -1.5760   -4.4260   -2.9270 nu        1 PVE     -0.237200
     25 C12        -2.7830   -5.2140   -3.0170 c3        1 PVE      0.001300
     26 C13        -2.6670   -6.5270   -2.2540 c3        1 PVE     -0.095400
     27 OXT        -1.4880   -9.2040   -4.0690 o         1 PVE     -0.789300
     28 H211        2.0720   -1.4330    0.0470 hc        1 PVE      0.044200
     29 H212        2.1670    0.3630   -0.1870 hc        1 PVE      0.044200
     30 H201        0.6640   -0.0190   -2.3060 hc        1 PVE      0.065200
     31 H202       -0.1050   -0.0880   -0.6620 hc        1 PVE      0.065200
     32 H17         1.6170   -2.3160   -2.9240 hn        1 PVE      0.370500
     33 H4          2.9840   -4.1160   -2.2630 ha        1 PVE      0.225000
     34 H5          4.3720   -6.1040   -2.2920 ha        1 PVE      0.157000
     35 H25         5.5380   -8.0910   -2.4030 ho        1 PVE      0.416000
     36 H26         1.8530  -10.6860   -3.1860 ho        1 PVE      0.434000
     37 H8          0.3500   -9.0220   -3.0450 ha        1 PVE      0.215000
     38 H14        -1.1810   -8.0640   -1.9200 h1        1 PVE      0.078700
     39 H131       -2.6780   -6.3450   -1.1490 hc        1 PVE      0.062700
     40 H132       -3.5380   -7.1830   -2.5140 hc        1 PVE      0.062700
     41 H11        -1.6770   -3.4520   -2.7220 hn        1 PVE      0.325700
     42 H121       -3.6400   -4.6030   -2.6200 h1        1 PVE      0.088200
     43 H122       -2.9600   -5.4530   -4.1130 h1        1 PVE      0.088200
@<TRIPOS>BOND
     1    1    2 1   
     2    2    3 1   
     3    2    4 1   
     4    4    5 1   
     5    4   28 1   
     6    4   29 1   
     7    5    6 1   
     8    5   30 1   
     9    5   31 1   
    10    6    7 2   
    11    6    8 1   
    12    8    9 1   
    13    8   32 1   
    14    9   10 ar  
    15    9   23 ar  
    16   10   11 ar  
    17   10   33 1   
    18   11   12 ar  
    19   11   18 ar  
    20   12   13 ar  
    21   12   34 1   
    22   13   14 1   
    23   13   15 ar  
    24   14   35 1   
    25   15   16 1   
    26   15   17 ar  
    27   16   36 1   
    28   17   18 ar  
    29   17   37 1   
    30   18   19 2   
    31   19   20 1   
    32   19   23 1   
    33   20   21 1   
    34   20   26 1   
    35   20   38 1   
    36   21   22 1   
    37   21   27 1   
    38   23   24 1   
    39   24   25 1   
    40   24   41 1   
    41   25   26 1   
    42   25   42 1   
    43   25   43 1   
    44   26   39 1   
    45   26   40 1   
@<TRIPOS>SUBSTRUCTURE
     1 PVE         1 TEMP              0 ****  ****    0 ROOT
