@<TRIPOS>MOLECULE
PVG
   81    84     1     0     0
SMALL
bcc


@<TRIPOS>ATOM
      1 C32         0.7820    0.7520   -0.0220 c3        1 PVG     -0.094100
      2 C31         1.8920   -0.1620    0.4400 c3        1 PVG     -0.035200
      3 C3          2.1140   -0.1040    1.8940 c2        1 PVG     -0.094400
      4 C2          2.1760   -1.1290    2.7800 ce        1 PVG     -0.185400
      5 C21         2.0490   -2.5710    2.5680 c3        1 PVG     -0.036900
      6 C1          2.4330   -0.5600    4.1560 c         1 PVG      0.679700
      7 O1          2.5840   -1.1980    5.2080 o         1 PVG     -0.627500
      8 N1          2.4060    0.8410    4.0480 n         1 PVG     -0.537900
      9 C4          2.3050    1.2240    2.6360 c3        1 PVG      0.102900
     10 C5          3.5070    2.0000    2.0880 c3        1 PVG     -0.018100
     11 C6          3.6850    3.3120    2.7430 cc        1 PVG     -0.148600
     12 N2          2.7370    4.3220    2.7130 na        1 PVG     -0.150100
     13 C7          4.8230    3.7800    3.4420 cd        1 PVG     -0.126300
     14 C41         6.0480    3.0240    3.7110 c3        1 PVG     -0.058800
     15 C8          4.5520    5.1310    3.8390 cd        1 PVG     -0.044300
     16 C51         5.4870    5.9900    4.5860 c3        1 PVG     -0.024100
     17 C52         6.7090    6.3800    3.7720 c3        1 PVG     -0.191400
     18 C53         8.0360    6.0590    4.4810 c         1 PVG      0.905600
     19 O55         9.0280    6.8000    4.2280 o         1 PVG     -0.852800
     20 O54         8.0960    5.0560    5.2550 o         1 PVG     -0.852800
     21 C9          3.2410    5.4490    3.3780 cc        1 PVG     -0.138100
     22 C10         2.5240    6.6750    3.5490 ce        1 PVG      0.062800
     23 C11         1.2700    6.9610    3.1070 cd        1 PVG      0.005600
     24 N3          0.4280    6.0700    2.3640 nd        1 PVG     -0.611300
     25 C12         0.5390    8.2490    3.2990 cd        1 PVG     -0.027200
     26 C61         1.0380    9.4440    3.9970 c3        1 PVG     -0.034200
     27 C62         0.2160    9.8070    5.2220 c3        1 PVG     -0.191400
     28 C63        -0.3620   11.2320    5.1680 c         1 PVG      0.905600
     29 O65        -0.6080   11.7580    4.0410 o         1 PVG     -0.852300
     30 O64        -0.5970   11.8070    6.2690 o         1 PVG     -0.852300
     31 C13        -0.6810    8.1030    2.6730 cc        1 PVG     -0.252800
     32 C71        -1.7680    9.0730    2.5490 c3        1 PVG     -0.057900
     33 C14        -0.7030    6.7250    2.1170 cc        1 PVG      0.449900
     34 C15        -1.8200    6.2570    1.3230 ce        1 PVG     -0.165600
     35 C16        -2.4850    5.0870    1.4160 cd        1 PVG      0.020600
     36 C17        -2.3680    3.9530    2.3830 cd        1 PVG      0.011800
     37 C81        -1.4100    3.8960    3.4900 c3        1 PVG     -0.061900
     38 C18        -3.3130    3.0130    2.0740 cc        1 PVG     -0.216400
     39 C91        -3.6090    1.7240    2.7160 c3        1 PVG     -0.015200
     40 C92        -4.4470    1.8790    3.9650 c3        1 PVG     -0.088100
     41 C19        -4.0930    3.4940    0.8840 c         1 PVG      0.701700
     42 O19        -5.0340    2.9480    0.2880 o         1 PVG     -0.645500
     43 N4         -3.5400    4.7310    0.5190 n         1 PVG     -0.512100
     44 H1          1.0370    1.8200    0.1830 hc        1 PVG      0.041367
     45 H2          0.6230    0.6310   -1.1210 hc        1 PVG      0.041367
     46 H3         -0.1740    0.5120    0.5020 hc        1 PVG      0.041367
     47 H4          2.8490    0.1220   -0.0800 hc        1 PVG      0.050200
     48 H5          1.6540   -1.2200    0.1420 hc        1 PVG      0.050200
     49 H8          1.9390   -3.0980    3.5490 hc        1 PVG      0.046700
     50 H9          1.1590   -2.8030    1.9300 hc        1 PVG      0.046700
     51 H10         2.9600   -2.9710    2.0540 hc        1 PVG      0.046700
     52 H11         2.9290    1.4190    4.6620 hn        1 PVG      0.336500
     53 H12         1.3710    1.8490    2.5170 h1        1 PVG      0.079700
     54 H13         4.4510    1.4070    2.2260 hc        1 PVG      0.063200
     55 H14         3.3450    2.1370    0.9830 hc        1 PVG      0.063200
     56 H15         1.8540    4.2670    2.2730 hn        1 PVG      0.311700
     57 H16         6.7990    3.6700    4.2530 hc        1 PVG      0.057367
     58 H17         5.8260    2.1270    4.3420 hc        1 PVG      0.057367
     59 H18         6.5100    2.6690    2.7550 hc        1 PVG      0.057367
     60 H19         5.8370    5.4240    5.4980 hc        1 PVG      0.058200
     61 H20         4.9580    6.9130    4.9440 hc        1 PVG      0.058200
     62 H21         6.6800    7.4740    3.5420 hc        1 PVG      0.032200
     63 H22         6.7230    5.8290    2.7980 hc        1 PVG      0.032200
     64 H24         3.0760    7.4560    4.1080 ha        1 PVG      0.161000
     65 H27         2.1120    9.3030    4.2890 hc        1 PVG      0.060200
     66 H28         0.9940   10.3150    3.2780 hc        1 PVG      0.060200
     67 H29         0.8440    9.7120    6.1430 hc        1 PVG      0.032200
     68 H30        -0.6550    9.1110    5.3310 hc        1 PVG      0.032200
     69 H32        -2.6870    8.7040    3.0700 hc        1 PVG      0.055367
     70 H33        -1.4660   10.0580    3.0100 hc        1 PVG      0.055367
     71 H34        -2.0230    9.2410    1.4720 hc        1 PVG      0.055367
     72 H35        -2.1350    7.0070    0.5690 ha        1 PVG      0.140000
     73 H37        -0.3880    3.6380    3.1080 hc        1 PVG      0.065700
     74 H38        -1.3500    4.8830    4.0160 hc        1 PVG      0.065700
     75 H39        -1.7140    3.1130    4.2300 hc        1 PVG      0.065700
     76 H40        -4.1550    1.0690    1.9820 hc        1 PVG      0.051700
     77 H41        -2.6440    1.2090    2.9790 hc        1 PVG      0.051700
     78 H42        -5.4260    2.3580    3.7240 hc        1 PVG      0.034367
     79 H43        -3.9190    2.5140    4.7170 hc        1 PVG      0.034367
     80 H44        -4.6420    0.8770    4.4180 hc        1 PVG      0.034367
     81 H6         -3.9170    5.3510   -0.1450 hn        1 PVG      0.328500
@<TRIPOS>BOND
     1    1    2 1   
     2    1   44 1   
     3    1   45 1   
     4    1   46 1   
     5    2    3 1   
     6    2   47 1   
     7    2   48 1   
     8    3    4 2   
     9    3    9 1   
    10    4    5 1   
    11    4    6 1   
    12    5   49 1   
    13    5   50 1   
    14    5   51 1   
    15    6    7 2   
    16    6    8 1   
    17    8    9 1   
    18    8   52 1   
    19    9   10 1   
    20    9   53 1   
    21   10   11 1   
    22   10   54 1   
    23   10   55 1   
    24   11   12 1   
    25   11   13 2   
    26   12   21 1   
    27   12   56 1   
    28   13   14 1   
    29   13   15 1   
    30   14   57 1   
    31   14   58 1   
    32   14   59 1   
    33   15   16 1   
    34   15   21 2   
    35   16   17 1   
    36   16   60 1   
    37   16   61 1   
    38   17   18 1   
    39   17   62 1   
    40   17   63 1   
    41   18   19 1   
    42   18   20 1   
    43   21   22 1   
    44   22   23 2   
    45   22   64 1   
    46   23   24 1   
    47   23   25 1   
    48   24   33 2   
    49   25   26 1   
    50   25   31 2   
    51   26   27 1   
    52   26   65 1   
    53   26   66 1   
    54   27   28 1   
    55   27   67 1   
    56   27   68 1   
    57   28   29 1   
    58   28   30 1   
    59   31   32 1   
    60   31   33 1   
    61   32   69 1   
    62   32   70 1   
    63   32   71 1   
    64   33   34 1   
    65   34   35 2   
    66   34   72 1   
    67   35   36 1   
    68   35   43 1   
    69   36   37 1   
    70   36   38 2   
    71   37   73 1   
    72   37   74 1   
    73   37   75 1   
    74   38   39 1   
    75   38   41 1   
    76   39   40 1   
    77   39   76 1   
    78   39   77 1   
    79   40   78 1   
    80   40   79 1   
    81   40   80 1   
    82   41   42 2   
    83   41   43 1   
    84   43   81 1   
@<TRIPOS>SUBSTRUCTURE
     1 PVG         1 TEMP              0 ****  ****    0 ROOT
