@<TRIPOS>MOLECULE
PVG
   81    84     1     0     0
SMALL
bcc


@<TRIPOS>ATOM
      1 C32         4.6780   -0.0140    1.9230 c3        1 PVG     -0.094100
      2 C31         5.1050   -1.4300    1.6190 c3        1 PVG     -0.035200
      3 C3          4.5570   -1.9360    0.3500 c2        1 PVG     -0.094400
      4 C2          5.2160   -2.5130   -0.6850 ce        1 PVG     -0.185400
      5 C21         6.6390   -2.8090   -0.8510 c3        1 PVG     -0.036900
      6 C1          4.2120   -2.8710   -1.7550 c         1 PVG      0.679700
      7 O1          4.4420   -3.4440   -2.8300 o         1 PVG     -0.627500
      8 N1          2.9620   -2.3770   -1.3460 n         1 PVG     -0.537900
      9 C4          3.0620   -1.8530    0.0200 c3        1 PVG      0.102900
     10 C5          2.2190   -2.5930    1.0620 c3        1 PVG     -0.018100
     11 C6          0.7690   -2.4870    0.8030 cc        1 PVG     -0.148600
     12 N2          0.0790   -1.2860    0.7660 na        1 PVG     -0.150100
     13 C7         -0.1530   -3.5440    0.6100 cd        1 PVG     -0.126300
     14 C41         0.1630   -4.9730    0.5690 c3        1 PVG     -0.058800
     15 C8         -1.4510   -2.9550    0.4620 cd        1 PVG     -0.044300
     16 C51        -2.6970   -3.7100    0.2490 c3        1 PVG     -0.024100
     17 C52        -3.1090   -4.5240    1.4640 c3        1 PVG     -0.191400
     18 C53        -3.3520   -6.0090    1.1440 c         1 PVG      0.905600
     19 O55        -4.2000   -6.6280    1.8480 o         1 PVG     -0.852800
     20 O54        -2.6780   -6.5610    0.2220 o         1 PVG     -0.852800
     21 C9         -1.2840   -1.5420    0.5570 cc        1 PVG     -0.138100
     22 C10        -2.2890   -0.5300    0.4520 ce        1 PVG      0.062800
     23 C11        -2.1130    0.8160    0.5420 cd        1 PVG      0.005600
     24 N3         -0.8610    1.4750    0.7750 nd        1 PVG     -0.611300
     25 C12        -3.1790    1.8550    0.4280 cd        1 PVG     -0.027200
     26 C61        -4.6130    1.6180    0.1990 c3        1 PVG     -0.034200
     27 C62        -5.1160    2.2120   -1.1050 c3        1 PVG     -0.191400
     28 C63        -6.2710    3.2100   -0.9150 c         1 PVG      0.905600
     29 O65        -6.3550    3.8610    0.1700 o         1 PVG     -0.852300
     30 O64        -7.0770    3.3590   -1.8780 o         1 PVG     -0.852300
     31 C13        -2.5570    3.0740    0.6020 cc        1 PVG     -0.252800
     32 C71        -3.1470    4.4110    0.6000 c3        1 PVG     -0.057900
     33 C14        -1.1130    2.7810    0.8030 cc        1 PVG      0.449900
     34 C15        -0.1700    3.8400    1.0930 ce        1 PVG     -0.165600
     35 C16         1.0430    4.0590    0.5430 cd        1 PVG      0.020600
     36 C17         1.7660    3.3700   -0.5700 cd        1 PVG      0.011800
     37 C81         1.2500    2.2190   -1.3140 c3        1 PVG     -0.061900
     38 C18         2.9570    4.0100   -0.7810 cc        1 PVG     -0.216400
     39 C91         4.0220    3.7260   -1.7540 c3        1 PVG     -0.015200
     40 C92         3.7070    4.2640   -3.1310 c3        1 PVG     -0.088100
     41 C19         3.0640    5.1520    0.1890 c         1 PVG      0.701700
     42 O19         3.9780    5.9790    0.3330 o         1 PVG     -0.645500
     43 N4          1.9000    5.1190    0.9720 n         1 PVG     -0.512100
     44 H1          4.9750    0.6760    1.0970 hc        1 PVG      0.041367
     45 H2          3.5690    0.0460    2.0490 hc        1 PVG      0.041367
     46 H3          5.1610    0.3340    2.8670 hc        1 PVG      0.041367
     47 H4          6.2280   -1.4830    1.5860 hc        1 PVG      0.050200
     48 H5          4.7660   -2.1090    2.4510 hc        1 PVG      0.050200
     49 H8          6.8540   -3.0910   -1.9130 hc        1 PVG      0.046700
     50 H9          7.2640   -1.9210   -0.5790 hc        1 PVG      0.046700
     51 H10         6.9410   -3.6630   -0.1930 hc        1 PVG      0.046700
     52 H11         2.1150   -2.8110   -1.6280 hn        1 PVG      0.336500
     53 H12         2.7520   -0.7660   -0.0080 h1        1 PVG      0.079700
     54 H13         2.4930   -3.6830    1.0850 hc        1 PVG      0.063200
     55 H14         2.4660   -2.1560    2.0690 hc        1 PVG      0.063200
     56 H15         0.4790   -0.3910    0.8900 hn        1 PVG      0.311700
     57 H16        -0.7800   -5.5820    0.4420 hc        1 PVG      0.057367
     58 H17         0.8510   -5.2000   -0.2840 hc        1 PVG      0.057367
     59 H18         0.6660   -5.2940    1.5150 hc        1 PVG      0.057367
     60 H19        -3.5270   -3.0120   -0.0390 hc        1 PVG      0.058200
     61 H20        -2.5380   -4.4210   -0.6140 hc        1 PVG      0.058200
     62 H21        -2.3090   -4.4910    2.2470 hc        1 PVG      0.032200
     63 H22        -4.0400   -4.0960    1.9120 hc        1 PVG      0.032200
     64 H24        -3.3130   -0.9160    0.2780 ha        1 PVG      0.161000
     65 H27        -4.8330    0.5190    0.2270 hc        1 PVG      0.060200
     66 H28        -5.1880    2.1000    1.0460 hc        1 PVG      0.060200
     67 H29        -4.2950    2.7660   -1.6270 hc        1 PVG      0.032200
     68 H30        -5.4600    1.3950   -1.7870 hc        1 PVG      0.032200
     69 H32        -2.9140    4.9440    1.5570 hc        1 PVG      0.055367
     70 H33        -2.7390    5.0210   -0.2440 hc        1 PVG      0.055367
     71 H34        -4.2680    4.3430    0.4840 hc        1 PVG      0.055367
     72 H35        -0.5560    4.5400    1.8620 ha        1 PVG      0.140000
     73 H37         0.1670    2.3590   -1.5620 hc        1 PVG      0.065700
     74 H38         1.8220    2.0820   -2.2670 hc        1 PVG      0.065700
     75 H39         1.3540    1.2830   -0.7060 hc        1 PVG      0.065700
     76 H40         4.9810    4.1870   -1.3870 hc        1 PVG      0.051700
     77 H41         4.1810    2.6150   -1.8180 hc        1 PVG      0.051700
     78 H42         4.5400    4.0220   -3.8330 hc        1 PVG      0.034367
     79 H43         2.7650    3.8110   -3.5250 hc        1 PVG      0.034367
     80 H44         3.5780    5.3730   -3.1000 hc        1 PVG      0.034367
     81 H6          1.6210    5.8140    1.6100 hn        1 PVG      0.328500
@<TRIPOS>BOND
     1    1    2 1   
     2    1   44 1   
     3    1   45 1   
     4    1   46 1   
     5    2    3 1   
     6    2   47 1   
     7    2   48 1   
     8    3    4 2   
     9    3    9 1   
    10    4    5 1   
    11    4    6 1   
    12    5   49 1   
    13    5   50 1   
    14    5   51 1   
    15    6    7 2   
    16    6    8 1   
    17    8    9 1   
    18    8   52 1   
    19    9   10 1   
    20    9   53 1   
    21   10   11 1   
    22   10   54 1   
    23   10   55 1   
    24   11   12 1   
    25   11   13 2   
    26   12   21 1   
    27   12   56 1   
    28   13   14 1   
    29   13   15 1   
    30   14   57 1   
    31   14   58 1   
    32   14   59 1   
    33   15   16 1   
    34   15   21 2   
    35   16   17 1   
    36   16   60 1   
    37   16   61 1   
    38   17   18 1   
    39   17   62 1   
    40   17   63 1   
    41   18   19 1   
    42   18   20 1   
    43   21   22 1   
    44   22   23 2   
    45   22   64 1   
    46   23   24 1   
    47   23   25 1   
    48   24   33 2   
    49   25   26 1   
    50   25   31 2   
    51   26   27 1   
    52   26   65 1   
    53   26   66 1   
    54   27   28 1   
    55   27   67 1   
    56   27   68 1   
    57   28   29 1   
    58   28   30 1   
    59   31   32 1   
    60   31   33 1   
    61   32   69 1   
    62   32   70 1   
    63   32   71 1   
    64   33   34 1   
    65   34   35 2   
    66   34   72 1   
    67   35   36 1   
    68   35   43 1   
    69   36   37 1   
    70   36   38 2   
    71   37   73 1   
    72   37   74 1   
    73   37   75 1   
    74   38   39 1   
    75   38   41 1   
    76   39   40 1   
    77   39   76 1   
    78   39   77 1   
    79   40   78 1   
    80   40   79 1   
    81   40   80 1   
    82   41   42 2   
    83   41   43 1   
    84   43   81 1   
@<TRIPOS>SUBSTRUCTURE
     1 PVG         1 TEMP              0 ****  ****    0 ROOT
