@<TRIPOS>MOLECULE
PVG
   81    84     1     0     0
SMALL
bcc


@<TRIPOS>ATOM
      1 C32         0.7970    0.7420   -0.0230 c3        1 PVG     -0.094100
      2 C31         1.9020   -0.1710    0.4520 c3        1 PVG     -0.035200
      3 C3          2.1130   -0.1080    1.9070 c2        1 PVG     -0.094400
      4 C2          2.1670   -1.1280    2.7990 ce        1 PVG     -0.185400
      5 C21         2.0390   -2.5710    2.5910 c3        1 PVG     -0.036900
      6 C1          2.4140   -0.5540    4.1730 c         1 PVG      0.679700
      7 O1          2.5570   -1.1880    5.2300 o         1 PVG     -0.627500
      8 N1          2.3910    0.8460    4.0590 ns        1 PVG     -0.537900
      9 C4          2.3020    1.2230    2.6450 c3        1 PVG      0.102900
     10 C5          3.5080    1.9950    2.1020 c3        1 PVG     -0.018100
     11 C6          3.6850    3.3080    2.7530 cc        1 PVG     -0.148600
     12 N2          2.7380    4.3190    2.7180 na        1 PVG     -0.150100
     13 C7          4.8220    3.7790    3.4540 cd        1 PVG     -0.126300
     14 C41         6.0460    3.0220    3.7280 c3        1 PVG     -0.058800
     15 C8          4.5520    5.1300    3.8450 cd        1 PVG     -0.044300
     16 C51         5.4850    5.9920    4.5920 c3        1 PVG     -0.024100
     17 C52         6.7080    6.3780    3.7800 c3        1 PVG     -0.191400
     18 C53         8.0340    6.0590    4.4930 c         1 PVG      0.905600
     19 O55         9.0270    6.7990    4.2400 o         1 PVG     -0.852800
     20 O54         8.0920    5.0580    5.2700 o         1 PVG     -0.852800
     21 C9          3.2410    5.4480    3.3810 cc        1 PVG     -0.138100
     22 C10         2.5250    6.6750    3.5460 ce        1 PVG      0.062800
     23 C11         1.2720    6.9600    3.1000 cd        1 PVG      0.005600
     24 N3          0.4320    6.0680    2.3570 nd        1 PVG     -0.611300
     25 C12         0.5420    8.2500    3.2860 cd        1 PVG     -0.027200
     26 C61         1.0400    9.4460    3.9820 c3        1 PVG     -0.034200
     27 C62         0.2140    9.8130    5.2040 c3        1 PVG     -0.191400
     28 C63        -0.3620   11.2380    5.1440 c         1 PVG      0.905600
     29 O65        -0.6060   11.7610    4.0150 o         1 PVG     -0.852300
     30 O64        -0.6000   11.8170    6.2430 o         1 PVG     -0.852300
     31 C13        -0.6770    8.1030    2.6570 cc        1 PVG     -0.252800
     32 C71        -1.7620    9.0730    2.5270 c3        1 PVG     -0.057900
     33 C14        -0.6980    6.7230    2.1050 cc        1 PVG      0.449900
     34 C15        -1.8130    6.2540    1.3090 ce        1 PVG     -0.165600
     35 C16        -2.4800    5.0850    1.4040 cd        1 PVG      0.020600
     36 C17        -2.3670    3.9540    2.3760 cd        1 PVG      0.011800
     37 C81        -1.4130    3.9000    3.4850 c3        1 PVG     -0.061900
     38 C18        -3.3120    3.0140    2.0670 cc        1 PVG     -0.216400
     39 C91        -3.6120    1.7280    2.7140 c3        1 PVG     -0.015200
     40 C92        -4.4540    1.8890    3.9590 c3        1 PVG     -0.088100
     41 C19        -4.0890    3.4920    0.8740 c         1 PVG      0.701700
     42 O19        -5.0290    2.9450    0.2760 o         1 PVG     -0.645500
     43 N4         -3.5320    4.7270    0.5060 ns        1 PVG     -0.512100
     44 H1          1.0530    1.8100    0.1800 hc        1 PVG      0.041367
     45 H2         -0.1630    0.5060    0.4960 hc        1 PVG      0.041367
     46 H3          0.6470    0.6170   -1.1220 hc        1 PVG      0.041367
     47 H4          2.8640    0.1090   -0.0620 hc        1 PVG      0.050200
     48 H5          1.6650   -1.2300    0.1570 hc        1 PVG      0.050200
     49 H8          1.9220   -3.0940    3.5740 hc        1 PVG      0.046700
     50 H9          1.1530   -2.8040    1.9490 hc        1 PVG      0.046700
     51 H10         2.9530   -2.9750    2.0840 hc        1 PVG      0.046700
     52 H11         2.9110    1.4260    4.6740 hn        1 PVG      0.336500
     53 H12         1.3690    1.8490    2.5160 h1        1 PVG      0.079700
     54 H13         3.3540    2.1280    0.9960 hc        1 PVG      0.063200
     55 H14         4.4510    1.4010    2.2480 hc        1 PVG      0.063200
     56 H15         1.8560    4.2630    2.2760 hn        1 PVG      0.311700
     57 H16         5.8220    2.1280    4.3620 hc        1 PVG      0.057367
     58 H17         6.5100    2.6640    2.7740 hc        1 PVG      0.057367
     59 H18         6.7970    3.6700    4.2690 hc        1 PVG      0.057367
     60 H19         5.8330    5.4280    5.5070 hc        1 PVG      0.058200
     61 H20         4.9560    6.9150    4.9470 hc        1 PVG      0.058200
     62 H21         6.6810    7.4720    3.5460 hc        1 PVG      0.032200
     63 H22         6.7250    5.8240    2.8070 hc        1 PVG      0.032200
     64 H24         3.0760    7.4570    4.1040 ha        1 PVG      0.161000
     65 H27         2.1130    9.3050    4.2770 hc        1 PVG      0.060200
     66 H28         0.9980   10.3160    3.2600 hc        1 PVG      0.060200
     67 H29         0.8400    9.7200    6.1270 hc        1 PVG      0.032200
     68 H30        -0.6570    9.1180    5.3130 hc        1 PVG      0.032200
     69 H32        -1.4620   10.0590    2.9870 hc        1 PVG      0.055367
     70 H33        -2.6830    8.7060    3.0470 hc        1 PVG      0.055367
     71 H34        -2.0150    9.2380    1.4500 hc        1 PVG      0.055367
     72 H35        -2.1250    7.0010    0.5520 ha        1 PVG      0.140000
     73 H37        -1.3530    4.8880    4.0080 hc        1 PVG      0.065700
     74 H38        -1.7190    3.1200    4.2280 hc        1 PVG      0.065700
     75 H39        -0.3900    3.6390    3.1070 hc        1 PVG      0.065700
     76 H40        -2.6490    1.2130    2.9820 hc        1 PVG      0.051700
     77 H41        -4.1570    1.0720    1.9810 hc        1 PVG      0.051700
     78 H42        -3.9270    2.5260    4.7110 hc        1 PVG      0.034367
     79 H43        -4.6520    0.8900    4.4160 hc        1 PVG      0.034367
     80 H44        -5.4310    2.3680    3.7140 hc        1 PVG      0.034367
     81 H6         -3.9070    5.3450   -0.1620 hn        1 PVG      0.328500
@<TRIPOS>BOND
     1    1    2 1   
     2    1   44 1   
     3    1   45 1   
     4    1   46 1   
     5    2    3 1   
     6    2   47 1   
     7    2   48 1   
     8    3    4 2   
     9    3    9 1   
    10    4    5 1   
    11    4    6 1   
    12    5   49 1   
    13    5   50 1   
    14    5   51 1   
    15    6    7 2   
    16    6    8 1   
    17    8    9 1   
    18    8   52 1   
    19    9   10 1   
    20    9   53 1   
    21   10   11 1   
    22   10   54 1   
    23   10   55 1   
    24   11   12 1   
    25   11   13 2   
    26   12   21 1   
    27   12   56 1   
    28   13   14 1   
    29   13   15 1   
    30   14   57 1   
    31   14   58 1   
    32   14   59 1   
    33   15   16 1   
    34   15   21 2   
    35   16   17 1   
    36   16   60 1   
    37   16   61 1   
    38   17   18 1   
    39   17   62 1   
    40   17   63 1   
    41   18   19 1   
    42   18   20 1   
    43   21   22 1   
    44   22   23 2   
    45   22   64 1   
    46   23   24 1   
    47   23   25 1   
    48   24   33 2   
    49   25   26 1   
    50   25   31 2   
    51   26   27 1   
    52   26   65 1   
    53   26   66 1   
    54   27   28 1   
    55   27   67 1   
    56   27   68 1   
    57   28   29 1   
    58   28   30 1   
    59   31   32 1   
    60   31   33 1   
    61   32   69 1   
    62   32   70 1   
    63   32   71 1   
    64   33   34 1   
    65   34   35 2   
    66   34   72 1   
    67   35   36 1   
    68   35   43 1   
    69   36   37 1   
    70   36   38 2   
    71   37   73 1   
    72   37   74 1   
    73   37   75 1   
    74   38   39 1   
    75   38   41 1   
    76   39   40 1   
    77   39   76 1   
    78   39   77 1   
    79   40   78 1   
    80   40   79 1   
    81   40   80 1   
    82   41   42 2   
    83   41   43 1   
    84   43   81 1   
@<TRIPOS>SUBSTRUCTURE
     1 PVG         1 TEMP              0 ****  ****    0 ROOT
