@<TRIPOS>MOLECULE
PVG
   81    84     1     0     0
SMALL
bcc


@<TRIPOS>ATOM
      1 C32         0.7860    0.7330   -0.0160 c3        1 PVG     -0.094100
      2 C31         1.8940   -0.1780    0.4590 c3        1 PVG     -0.035200
      3 C3          2.1100   -0.1080    1.9130 c2        1 PVG     -0.094400
      4 C2          2.1670   -1.1250    2.8080 ce        1 PVG     -0.185400
      5 C21         2.0390   -2.5690    2.6070 c3        1 PVG     -0.036900
      6 C1          2.4200   -0.5450    4.1790 c         1 PVG      0.679700
      7 O1          2.5660   -1.1750    5.2380 o         1 PVG     -0.627500
      8 N1          2.3950    0.8540    4.0600 n         1 PVG     -0.537900
      9 C4          2.3010    1.2260    2.6440 c3        1 PVG      0.102900
     10 C5          3.5050    1.9950    2.0940 c3        1 PVG     -0.018100
     11 C6          3.6850    3.3110    2.7400 cc        1 PVG     -0.148600
     12 N2          2.7370    4.3210    2.7080 na        1 PVG     -0.150100
     13 C7          4.8270    3.7840    3.4320 cd        1 PVG     -0.126300
     14 C41         6.0530    3.0300    3.6990 c3        1 PVG     -0.058800
     15 C8          4.5570    5.1370    3.8210 cd        1 PVG     -0.044300
     16 C51         5.4950    6.0010    4.5590 c3        1 PVG     -0.024100
     17 C52         6.7130    6.3870    3.7370 c3        1 PVG     -0.191400
     18 C53         8.0430    6.0700    4.4410 c         1 PVG      0.905600
     19 O55         9.0340    6.8100    4.1800 o         1 PVG     -0.852800
     20 O54         8.1070    5.0720    5.2210 o         1 PVG     -0.852800
     21 C9          3.2440    5.4520    3.3650 cc        1 PVG     -0.138100
     22 C10         2.5270    6.6790    3.5320 ce        1 PVG      0.062800
     23 C11         1.2720    6.9620    3.0920 cd        1 PVG      0.005600
     24 N3          0.4280    6.0670    2.3570 nd        1 PVG     -0.611300
     25 C12         0.5420    8.2520    3.2800 cd        1 PVG     -0.027200
     26 C61         1.0430    9.4500    3.9710 c3        1 PVG     -0.034200
     27 C62         0.2250    9.8180    5.1970 c3        1 PVG     -0.191400
     28 C63        -0.3530   11.2430    5.1380 c         1 PVG      0.905600
     29 O65        -0.6050   11.7640    4.0100 o         1 PVG     -0.852300
     30 O64        -0.5840   11.8240    6.2370 o         1 PVG     -0.852300
     31 C13        -0.6810    8.1020    2.6590 cc        1 PVG     -0.252800
     32 C71        -1.7680    9.0710    2.5340 c3        1 PVG     -0.057900
     33 C14        -0.7050    6.7210    2.1100 cc        1 PVG      0.449900
     34 C15        -1.8240    6.2490    1.3220 ce        1 PVG     -0.165600
     35 C16        -2.4890    5.0800    1.4230 cd        1 PVG      0.020600
     36 C17        -2.3690    3.9510    2.3970 cd        1 PVG      0.011800
     37 C81        -1.4080    3.9000    3.5000 c3        1 PVG     -0.061900
     38 C18        -3.3150    3.0100    2.0950 cc        1 PVG     -0.216400
     39 C91        -3.6100    1.7240    2.7460 c3        1 PVG     -0.015200
     40 C92        -4.4440    1.8870    3.9960 c3        1 PVG     -0.088100
     41 C19        -4.0990    3.4840    0.9060 c         1 PVG      0.701700
     42 O19        -5.0420    2.9350    0.3150 o         1 PVG     -0.645500
     43 N4         -3.5460    4.7190    0.5320 n         1 PVG     -0.512100
     44 H1         -0.1720    0.4980    0.5070 hc        1 PVG      0.041367
     45 H2          1.0420    1.8030    0.1820 hc        1 PVG      0.041367
     46 H3          0.6320    0.6040   -1.1140 hc        1 PVG      0.041367
     47 H4          1.6570   -1.2380    0.1680 hc        1 PVG      0.050200
     48 H5          2.8540    0.1020   -0.0600 hc        1 PVG      0.050200
     49 H8          2.9510   -2.9750    2.0990 hc        1 PVG      0.046700
     50 H9          1.1510   -2.8050    1.9690 hc        1 PVG      0.046700
     51 H10         1.9250   -3.0880    3.5920 hc        1 PVG      0.046700
     52 H11         2.9180    1.4370    4.6710 hn        1 PVG      0.336500
     53 H12         1.3670    1.8510    2.5160 h1        1 PVG      0.079700
     54 H13         4.4480    1.4020    2.2370 hc        1 PVG      0.063200
     55 H14         3.3460    2.1260    0.9880 hc        1 PVG      0.063200
     56 H15         1.8520    4.2630    2.2730 hn        1 PVG      0.311700
     57 H16         6.8070    3.6790    4.2330 hc        1 PVG      0.057367
     58 H17         6.5110    2.6700    2.7440 hc        1 PVG      0.057367
     59 H18         5.8350    2.1370    4.3370 hc        1 PVG      0.057367
     60 H19         5.8500    5.4400    5.4730 hc        1 PVG      0.058200
     61 H20         4.9680    6.9250    4.9150 hc        1 PVG      0.058200
     62 H21         6.6830    7.4800    3.5010 hc        1 PVG      0.032200
     63 H22         6.7230    5.8300    2.7660 hc        1 PVG      0.032200
     64 H24         3.0810    7.4630    4.0840 ha        1 PVG      0.161000
     65 H27         2.1180    9.3100    4.2590 hc        1 PVG      0.060200
     66 H28         0.9950   10.3180    3.2470 hc        1 PVG      0.060200
     67 H29         0.8560    9.7280    6.1160 hc        1 PVG      0.032200
     68 H30        -0.6450    9.1230    5.3130 hc        1 PVG      0.032200
     69 H32        -2.0270    9.2340    1.4570 hc        1 PVG      0.055367
     70 H33        -1.4650   10.0590    2.9900 hc        1 PVG      0.055367
     71 H34        -2.6850    8.7040    3.0590 hc        1 PVG      0.055367
     72 H35        -2.1410    6.9950    0.5660 ha        1 PVG      0.140000
     73 H37        -0.3870    3.6400    3.1170 hc        1 PVG      0.065700
     74 H38        -1.3460    4.8900    4.0210 hc        1 PVG      0.065700
     75 H39        -1.7100    3.1210    4.2460 hc        1 PVG      0.065700
     76 H40        -2.6440    1.2110    3.0090 hc        1 PVG      0.051700
     77 H41        -4.1580    1.0660    2.0170 hc        1 PVG      0.051700
     78 H42        -5.4240    2.3640    3.7550 hc        1 PVG      0.034367
     79 H43        -3.9140    2.5250    4.7430 hc        1 PVG      0.034367
     80 H44        -4.6380    0.8870    4.4550 hc        1 PVG      0.034367
     81 H6         -3.9260    5.3360   -0.1350 hn        1 PVG      0.328500
@<TRIPOS>BOND
     1    1    2 1   
     2    1   44 1   
     3    1   45 1   
     4    1   46 1   
     5    2    3 1   
     6    2   47 1   
     7    2   48 1   
     8    3    4 2   
     9    3    9 1   
    10    4    5 1   
    11    4    6 1   
    12    5   49 1   
    13    5   50 1   
    14    5   51 1   
    15    6    7 2   
    16    6    8 1   
    17    8    9 1   
    18    8   52 1   
    19    9   10 1   
    20    9   53 1   
    21   10   11 1   
    22   10   54 1   
    23   10   55 1   
    24   11   12 1   
    25   11   13 2   
    26   12   21 1   
    27   12   56 1   
    28   13   14 1   
    29   13   15 1   
    30   14   57 1   
    31   14   58 1   
    32   14   59 1   
    33   15   16 1   
    34   15   21 2   
    35   16   17 1   
    36   16   60 1   
    37   16   61 1   
    38   17   18 1   
    39   17   62 1   
    40   17   63 1   
    41   18   19 1   
    42   18   20 1   
    43   21   22 1   
    44   22   23 2   
    45   22   64 1   
    46   23   24 1   
    47   23   25 1   
    48   24   33 2   
    49   25   26 1   
    50   25   31 2   
    51   26   27 1   
    52   26   65 1   
    53   26   66 1   
    54   27   28 1   
    55   27   67 1   
    56   27   68 1   
    57   28   29 1   
    58   28   30 1   
    59   31   32 1   
    60   31   33 1   
    61   32   69 1   
    62   32   70 1   
    63   32   71 1   
    64   33   34 1   
    65   34   35 2   
    66   34   72 1   
    67   35   36 1   
    68   35   43 1   
    69   36   37 1   
    70   36   38 2   
    71   37   73 1   
    72   37   74 1   
    73   37   75 1   
    74   38   39 1   
    75   38   41 1   
    76   39   40 1   
    77   39   76 1   
    78   39   77 1   
    79   40   78 1   
    80   40   79 1   
    81   40   80 1   
    82   41   42 2   
    83   41   43 1   
    84   43   81 1   
@<TRIPOS>SUBSTRUCTURE
     1 PVG         1 TEMP              0 ****  ****    0 ROOT
