@<TRIPOS>MOLECULE
PVH
   24    24     1     0     0
SMALL
bcc


@<TRIPOS>ATOM
      1 N           0.3360   -1.9720   -0.3780 n3        1 PVH     -0.919800
      2 CA          0.7320   -0.5840   -0.3530 c3        1 PVH      0.132500
      3 C           2.2060   -0.3620   -0.0170 c         1 PVH      0.579100
      4 O           3.0190   -1.2100    0.3480 o         1 PVH     -0.505000
      5 CB         -0.0920    0.2390    0.6610 c3        1 PVH     -0.028100
      6 CG         -1.5260    0.2530    0.3060 cc        1 PVH     -0.052600
      7 ND1        -2.2660    1.4220    0.0300 na        1 PVH     -0.136100
      8 CD2        -2.4240   -0.8240    0.1880 cd        1 PVH     -0.089300
      9 CE1        -3.5630    1.0750   -0.2470 cc        1 PVH     -0.020600
     10 NE2        -3.6730   -0.2910   -0.1550 na        1 PVH     -0.132100
     11 OE          2.5980    0.9320   -0.1740 os        1 PVH     -0.443900
     12 CM          3.9830    1.2180    0.0680 c3        1 PVH      0.122700
     13 H           0.6990   -2.4270   -1.1940 hn        1 PVH      0.383800
     14 H2          0.6660   -2.4550    0.4380 hn        1 PVH      0.383800
     15 HA          0.5660   -0.1460   -1.3840 h1        1 PVH      0.096700
     16 HB2         0.0160   -0.1990    1.6930 hc        1 PVH      0.100700
     17 HB3         0.3350    1.2800    0.6870 hc        1 PVH      0.100700
     18 HD1        -1.9020    2.3500    0.0360 hn        1 PVH      0.359700
     19 HD2        -2.2480   -1.9010    0.3050 h4        1 PVH      0.251000
     20 HE1        -4.3800    1.7750   -0.4990 h5        1 PVH      0.262000
     21 HE2        -4.5070   -0.8150   -0.3110 hn        1 PVH      0.362700
     22 HM1         4.2370    0.9780    1.1290 h1        1 PVH      0.065033
     23 HM2         4.6190    0.6190   -0.6270 h1        1 PVH      0.065033
     24 HM3         4.0610    2.3130   -0.1400 h1        1 PVH      0.065033
@<TRIPOS>BOND
     1    1    2 1   
     2    1   13 1   
     3    1   14 1   
     4    2    3 1   
     5    2    5 1   
     6    2   15 1   
     7    3    4 2   
     8    3   11 1   
     9    5    6 1   
    10    5   16 1   
    11    5   17 1   
    12    6    7 1   
    13    6    8 2   
    14    7    9 2   
    15    7   18 1   
    16    8   10 1   
    17    8   19 1   
    18    9   10 1   
    19    9   20 1   
    20   10   21 1   
    21   11   12 1   
    22   12   22 1   
    23   12   23 1   
    24   12   24 1   
@<TRIPOS>SUBSTRUCTURE
     1 PVH         1 TEMP              0 ****  ****    0 ROOT
