@<TRIPOS>MOLECULE
PVL
    9     8     1     0     0
SMALL
bcc


@<TRIPOS>ATOM
      1 O2          0.5460    1.2860    0.5660 o         1 PVL     -0.495100
      2 C2          0.5060    0.1100    0.2010 c         1 PVL      0.462100
      3 C3         -0.7870   -0.6640    0.2310 c         1 PVL      0.473900
      4 O3         -1.2830   -1.1600   -0.7770 o         1 PVL     -0.486100
      5 C1          1.6930   -0.6570   -0.2720 c3        1 PVL     -0.202100
      6 H33        -1.2540   -0.7510    1.2360 h4        1 PVL      0.022200
      7 H11         1.9100   -1.4940    0.4370 hc        1 PVL      0.074700
      8 H12         1.4740   -1.0910   -1.2800 hc        1 PVL      0.074700
      9 H13         2.5920    0.0020   -0.3410 hc        1 PVL      0.074700
@<TRIPOS>BOND
     1    1    2 2   
     2    2    3 1   
     3    2    5 1   
     4    3    4 2   
     5    3    6 1   
     6    5    7 1   
     7    5    8 1   
     8    5    9 1   
@<TRIPOS>SUBSTRUCTURE
     1 PVL         1 TEMP              0 ****  ****    0 ROOT
