@<TRIPOS>MOLECULE
PVL
    9     7     1     0     0
SMALL
bcc


@<TRIPOS>ATOM
      1 O2         -1.7730   -0.0200    0.1280 o         1 PVL     -0.256000
      2 C2         -0.5580   -0.0200    0.1280 c1        1 PVL      0.173000
      3 C3          0.1980   -0.0200    1.4380 c1        1 PVL      0.142000
      4 O3          0.1600    0.9570    2.1630 o         1 PVL     -0.247000
      5 C1          0.1980   -0.0210   -1.1820 c3        1 PVL     -0.270000
      6 H33         0.6930   -0.8140    1.7160 ha        1 PVL      0.115000
      7 H11         0.5270   -0.9210   -1.3670 hc        1 PVL      0.114000
      8 H12        -0.3970    0.2630   -1.9020 hc        1 PVL      0.114000
      9 H13         0.9530    0.5960   -1.1220 hc        1 PVL      0.114000
@<TRIPOS>BOND
     1    1    2 1   
     2    2    5 1   
     3    3    4 1   
     4    3    6 1   
     5    5    7 1   
     6    5    8 1   
     7    5    9 1   
@<TRIPOS>SUBSTRUCTURE
     1 PVL         1 TEMP              0 ****  ****    0 ROOT
