@<TRIPOS>MOLECULE
PVN
   81    76     1     0     0
SMALL
bcc


@<TRIPOS>ATOM
      1 C31        -0.3960    6.1010   -1.0410 c3        1 PVN     -0.130000
      2 C32         1.0760    6.4620   -1.1210 c3        1 PVN     -0.228000
      3 C3         -0.9000    5.7380   -2.4150 c2        1 PVN     -0.039000
      4 C2         -1.2430    6.6840   -3.2630 c1        1 PVN     -0.199000
      5 C21        -1.1680    8.1460   -2.8450 c2        1 PVN     -0.162500
      6 C1         -2.1640    6.2810   -4.2230 c2        1 PVN      0.322000
      7 O1         -2.6450    6.9560   -5.1240 o         1 PVN     -0.384000
      8 N1         -2.3320    4.7700   -3.9930 n         1 PVN     -0.365000
      9 C4         -1.5740    4.4740   -2.6280 c3        1 PVN      0.016000
     10 C5         -2.4630    4.0450   -1.5020 c3        1 PVN     -0.104000
     11 C6         -1.8140    2.8610   -0.7570 c2        1 PVN     -0.083000
     12 C7         -2.4870    1.9150    0.0220 c1        1 PVN     -0.152000
     13 C41        -3.9860    1.8220    0.2120 c2        1 PVN     -0.162500
     14 N2         -0.4640    2.6140   -0.6550 n2        1 PVN     -0.160000
     15 C9         -0.2900    1.5240    0.1790 c1        1 PVN     -0.110000
     16 C8         -1.5490    1.0940    0.5960 c1        1 PVN     -0.002000
     17 C51        -1.8330   -0.0600    1.5710 c2        1 PVN     -0.108000
     18 C52        -2.8330    0.3990    2.6270 c3        1 PVN     -0.209000
     19 C53        -3.6270   -0.8060    3.1360 c2        1 PVN      0.323000
     20 O54        -3.3800   -1.2850    4.2770 o         1 PVN     -0.597500
     21 O55        -4.5980   -1.2500    2.4630 o         1 PVN     -0.597500
     22 C10         1.0750    0.9360    0.6370 c1        1 PVN      0.091000
     23 C11         1.1760   -0.3910    0.9670 c1        1 PVN     -0.149000
     24 C12         2.4250   -1.1920    1.4470 c1        1 PVN     -0.052000
     25 C61         3.4970   -0.5060    2.3420 c3        1 PVN     -0.101000
     26 C62         2.8740   -0.1200    3.6790 c3        1 PVN     -0.215000
     27 C63         3.7780    0.8860    4.3910 c2        1 PVN      0.323000
     28 O64         4.6750    1.4980    3.7450 o         1 PVN     -0.598500
     29 O65         3.6180    1.1190    5.6170 o         1 PVN     -0.598500
     30 N3          0.0950   -1.4690    0.9610 n2        1 PVN     -0.071000
     31 C14         0.6630   -2.7380    1.3940 c1        1 PVN     -0.065000
     32 C13         2.0560   -2.5660    1.6820 c1        1 PVN     -0.195000
     33 C71         2.6980   -3.3410    2.8140 c3        1 PVN     -0.141000
     34 C15         0.1490   -4.0750    0.7810 c2        1 PVN     -0.046000
     35 C16         1.0090   -4.8740    0.0280 c1        1 PVN     -0.014000
     36 C17         0.6720   -6.1330   -0.5970 c1        1 PVN     -0.010000
     37 C81        -0.0300   -7.2150    0.2070 c3        1 PVN     -0.184000
     38 N4          2.2610   -4.3740   -0.7830 n         1 PVN     -0.330000
     39 C19         2.5070   -5.5080   -1.8610 c2        1 PVN      0.337000
     40 O19         3.5470   -5.7270   -2.4370 o         1 PVN     -0.380000
     41 C18         1.4700   -6.4660   -1.5990 c2        1 PVN     -0.189000
     42 C91         1.6820   -7.9390   -1.9520 c3        1 PVN     -0.095000
     43 C92         0.6700   -8.3580   -3.0060 c3        1 PVN     -0.206000
     44 H321        1.1880    7.4150   -0.9440 hc        1 PVN      0.096333
     45 H322        1.4160    6.2540   -2.0200 hc        1 PVN      0.096333
     46 HC4        -0.9470    3.7160   -2.6980 h1        1 PVN      0.141000
     47 H211       -0.2300    8.4020   -2.7190 ha        1 PVN      0.085500
     48 H212       -1.5700    8.7070   -3.5440 ha        1 PVN      0.085500
     49 H213       -1.6560    8.2710   -2.0060 ha        1 PVN      0.085500
     50 HN1        -2.8730    4.1990   -4.4580 hn        1 PVN      0.227000
     51 H5C1       -2.5890    4.7960   -0.8790 hc        1 PVN      0.100500
     52 H5C2       -3.3310    3.7700   -1.8600 hc        1 PVN      0.100500
     53 HN2         0.1960    3.0830   -1.0640 DU        1 PVN      0.296000
     54 H411       -4.2560    2.3920    0.9600 ha        1 PVN      0.085500
     55 H412       -4.2340    0.8960    0.4030 ha        1 PVN      0.085500
     56 H413       -4.4360    2.1180   -0.6030 ha        1 PVN      0.085500
     57 H101        1.8620    1.5130    0.6890 ha        1 PVN      0.172000
     58 H511       -1.0040   -0.3300    2.0050 ha        1 PVN      0.100500
     59 H512       -2.2070   -0.8220    1.0760 ha        1 PVN      0.100500
     60 H521       -2.3520    0.8120    3.3730 hc        1 PVN      0.073000
     61 H522       -3.4450    1.0500    2.2340 hc        1 PVN      0.073000
     62 H611        4.2390   -1.1250    2.4940 hc        1 PVN      0.084500
     63 H612        3.8300    0.2990    1.8930 hc        1 PVN      0.084500
     64 H621        2.7740   -0.9180    4.2350 hc        1 PVN      0.076500
     65 H622        2.0010    0.2800    3.5270 hc        1 PVN      0.076500
     66 H151       -0.7810   -4.3220    0.8740 ha        1 PVN      0.158000
     67 H711        2.5230   -2.8860    3.6620 hc        1 PVN      0.068333
     68 H712        3.6630   -3.3930    2.6660 hc        1 PVN      0.068333
     69 H713        2.3230   -4.2460    2.8450 hc        1 PVN      0.068333
     70 HN4         2.8610   -3.7740   -0.5060 hn        1 PVN      0.264000
     71 H811       -0.5440   -6.8030    0.9340 hc        1 PVN      0.097000
     72 H812       -0.6380   -7.7170   -0.3800 hc        1 PVN      0.097000
     73 H813        0.6380   -7.8270    0.5850 hc        1 PVN      0.097000
     74 H911        2.5930   -8.0640   -2.3040 hc        1 PVN      0.085500
     75 H912        1.5650   -8.4850   -1.1540 hc        1 PVN      0.085500
     76 H921        0.4090   -9.2910   -2.8560 hc        1 PVN      0.072333
     77 H922        1.0700   -8.2710   -3.8970 hc        1 PVN      0.072333
     78 H923       -0.1200   -7.7840   -2.9460 hc        1 PVN      0.072333
     79 H31        -0.5120    5.3400   -0.4390 hc        1 PVN      0.104000
     80 H323        1.5770    5.9440   -0.4540 hc        1 PVN      0.096333
     81 HXT        -0.9030    6.8700   -0.6980 hc        1 PVN      0.104000
@<TRIPOS>BOND
     1    1    2 1   
     2    1    3 1   
     3    1   79 1   
     4    1   81 1   
     5    2   44 1   
     6    2   45 1   
     7    2   80 1   
     8    3    4 1   
     9    3    9 1   
    10    4    6 1   
    11    5   47 1   
    12    5   48 1   
    13    5   49 1   
    14    6    7 1   
    15    6    8 1   
    16    8    9 1   
    17    8   50 1   
    18    9   10 1   
    19    9   46 1   
    20   10   11 1   
    21   10   51 1   
    22   10   52 1   
    23   11   12 1   
    24   11   14 1   
    25   12   16 1   
    26   13   54 1   
    27   13   55 1   
    28   13   56 1   
    29   14   15 1   
    30   15   16 1   
    31   17   18 1   
    32   17   58 1   
    33   17   59 1   
    34   18   19 1   
    35   18   60 1   
    36   18   61 1   
    37   19   20 1   
    38   19   21 1   
    39   22   23 1   
    40   22   57 1   
    41   23   30 1   
    42   24   25 1   
    43   24   32 1   
    44   25   26 1   
    45   25   62 1   
    46   25   63 1   
    47   26   27 1   
    48   26   64 1   
    49   26   65 1   
    50   27   28 1   
    51   27   29 1   
    52   30   31 1   
    53   31   34 1   
    54   32   33 1   
    55   33   67 1   
    56   33   68 1   
    57   33   69 1   
    58   34   35 1   
    59   34   66 1   
    60   35   38 1   
    61   36   37 1   
    62   36   41 1   
    63   37   71 1   
    64   37   72 1   
    65   37   73 1   
    66   38   39 1   
    67   38   70 1   
    68   39   40 1   
    69   39   41 1   
    70   41   42 1   
    71   42   43 1   
    72   42   74 1   
    73   42   75 1   
    74   43   76 1   
    75   43   77 1   
    76   43   78 1   
@<TRIPOS>SUBSTRUCTURE
     1 PVN         1 TEMP              0 ****  ****    0 ROOT
