@<TRIPOS>MOLECULE
PVN
   81    84     1     0     0
SMALL
bcc


@<TRIPOS>ATOM
      1 C31        -0.2990   -0.2810   -0.3600 c3        1 PVN     -0.037200
      2 C32         1.1570   -0.0810   -0.7160 c3        1 PVN     -0.088100
      3 C3         -0.5750    0.0260    1.0530 c2        1 PVN     -0.092400
      4 C2         -0.7170    1.2330    1.6550 ce        1 PVN     -0.184400
      5 C21        -0.6020    2.5820    1.1010 c3        1 PVN     -0.034900
      6 C1         -1.0400    1.0080    3.1140 c         1 PVN      0.686700
      7 O1         -1.2100    1.8760    3.9850 o         1 PVN     -0.638500
      8 N1         -1.1680   -0.3700    3.3040 ns        1 PVN     -0.557900
      9 C4         -0.8120   -1.0880    2.0800 c3        1 PVN      0.111900
     10 C5          0.4100   -2.0070    2.1970 c3        1 PVN     -0.013100
     11 C6          0.1090   -3.2110    2.9980 cc        1 PVN     -0.147600
     12 C7         -0.5340   -4.3910    2.5540 cd        1 PVN     -0.127300
     13 C41        -1.0540   -4.6370    1.2080 c3        1 PVN     -0.056800
     14 N2          0.4340   -3.3600    4.3370 na        1 PVN     -0.151100
     15 C9          0.0310   -4.6330    4.7680 cc        1 PVN     -0.137100
     16 C8         -0.5840   -5.2940    3.6660 cd        1 PVN     -0.046300
     17 C51        -1.1710   -6.6440    3.6240 c3        1 PVN     -0.023100
     18 C52        -0.3690   -7.6110    2.7710 c3        1 PVN     -0.191400
     19 C53        -1.2110   -8.3110    1.6900 c         1 PVN      0.905600
     20 O54        -0.8610   -9.4730    1.3370 o         1 PVN     -0.853800
     21 O55        -2.1910   -7.6940    1.1730 o         1 PVN     -0.853800
     22 C10         0.2110   -5.1340    6.0970 ce        1 PVN      0.058800
     23 C11         0.9370   -4.5690    7.0960 cd        1 PVN      0.008600
     24 C12         1.0860   -5.0990    8.4850 cd        1 PVN     -0.030200
     25 C61         0.4570   -6.3120    9.0310 c3        1 PVN     -0.033200
     26 C62        -0.6030   -6.0100   10.0770 c3        1 PVN     -0.190400
     27 C63        -0.3260   -6.6770   11.4360 c         1 PVN      0.905600
     28 O64         0.8720   -6.9120   11.7780 o         1 PVN     -0.852800
     29 O65        -1.3210   -6.9350   12.1710 o         1 PVN     -0.852800
     30 N3          1.7060   -3.3620    6.9870 nd        1 PVN     -0.609300
     31 C14         2.2870   -3.1710    8.1680 cc        1 PVN      0.450900
     32 C13         1.9260   -4.2300    9.1480 cc        1 PVN     -0.250800
     33 C71         2.4030   -4.2930   10.5280 c3        1 PVN     -0.058900
     34 C15         3.1050   -2.0360    8.5490 ce        1 PVN     -0.164600
     35 C16         4.2420   -1.6130    7.9600 cd        1 PVN      0.017600
     36 C17         5.0310   -2.1970    6.8320 cd        1 PVN      0.013800
     37 C81         4.7100   -3.4620    6.1680 c3        1 PVN     -0.064900
     38 N4          4.9630   -0.4580    8.3920 ns        1 PVN     -0.504100
     39 C19         6.0560   -0.2280    7.5380 c         1 PVN      0.700700
     40 O19         6.8190    0.7470    7.6280 o         1 PVN     -0.643500
     41 C18         6.0980   -1.3800    6.5760 cc        1 PVN     -0.217400
     42 C91         7.1760   -1.5160    5.5870 c3        1 PVN     -0.015200
     43 C92         6.6800   -1.3740    4.1660 c3        1 PVN     -0.089100
     44 H321        1.4660    0.9750   -0.5240 hc        1 PVN      0.036700
     45 H322        1.8060   -0.7550   -0.1050 hc        1 PVN      0.036700
     46 HC4        -1.7000   -1.7130    1.7620 h1        1 PVN      0.097700
     47 H211       -0.9710    3.3380    1.8400 hc        1 PVN      0.046033
     48 H212        0.4670    2.8150    0.8600 hc        1 PVN      0.046033
     49 H213       -1.1980    2.6730    0.1580 hc        1 PVN      0.046033
     50 HN1        -1.1030   -0.8110    4.1860 hn        1 PVN      0.337500
     51 H5C1        1.2840   -1.4400    2.6130 hc        1 PVN      0.059700
     52 H5C2        0.6810   -2.3410    1.1570 hc        1 PVN      0.059700
     53 HN2         0.9440   -2.7100    4.8800 hn        1 PVN      0.312700
     54 H411       -1.4450   -5.6930    1.1220 hc        1 PVN      0.055033
     55 H412       -1.8890   -3.9290    0.9740 hc        1 PVN      0.055033
     56 H413       -0.2510   -4.4890    0.4420 hc        1 PVN      0.055033
     57 H101       -0.3060   -6.0920    6.3000 ha        1 PVN      0.160000
     58 H511       -1.2750   -7.0510    4.6640 hc        1 PVN      0.057700
     59 H512       -2.2090   -6.5650    3.1860 hc        1 PVN      0.057700
     60 H521        0.4550   -7.0730    2.2370 hc        1 PVN      0.032200
     61 H522        0.1010   -8.3920    3.4200 hc        1 PVN      0.032200
     62 H611        0.0110   -6.9230    8.2030 hc        1 PVN      0.059200
     63 H612        1.2610   -6.9380    9.5210 hc        1 PVN      0.059200
     64 H621       -0.6670   -4.9080   10.2660 hc        1 PVN      0.032200
     65 H622       -1.6040   -6.3490    9.7120 hc        1 PVN      0.032200
     66 H151        2.7090   -1.5060    9.4370 ha        1 PVN      0.143000
     67 H711        2.1750   -3.3390   11.0660 hc        1 PVN      0.056033
     68 H712        3.5110   -4.4490   10.5540 hc        1 PVN      0.056033
     69 H713        1.9060   -5.1470   11.0740 hc        1 PVN      0.056033
     70 HN4         4.5750    0.2150    8.9980 hn        1 PVN      0.326500
     71 H811        3.9120   -3.3060    5.3980 hc        1 PVN      0.066700
     72 H812        5.6160   -3.8730    5.6540 hc        1 PVN      0.066700
     73 H813        4.3400   -4.2170    6.9070 hc        1 PVN      0.066700
     74 H911        7.9610   -0.7360    5.7900 hc        1 PVN      0.051200
     75 H912        7.6620   -2.5240    5.7080 hc        1 PVN      0.051200
     76 H921        7.5240   -1.5240    3.4500 hc        1 PVN      0.034033
     77 H922        5.8890   -2.1340    3.9510 hc        1 PVN      0.034033
     78 H923        6.2480   -0.3590    3.9990 hc        1 PVN      0.034033
     79 H31        -0.5940   -1.3430   -0.5800 hc        1 PVN      0.055200
     80 H323        1.3210   -0.3120   -1.7950 hc        1 PVN      0.036700
     81 HXT        -0.9330    0.3850   -1.0090 hc        1 PVN      0.055200
@<TRIPOS>BOND
     1    1    2 1   
     2    1    3 1   
     3    1   79 1   
     4    1   81 1   
     5    2   44 1   
     6    2   45 1   
     7    2   80 1   
     8    3    4 2   
     9    3    9 1   
    10    4    5 1   
    11    4    6 1   
    12    5   47 1   
    13    5   48 1   
    14    5   49 1   
    15    6    7 2   
    16    6    8 1   
    17    8    9 1   
    18    8   50 1   
    19    9   10 1   
    20    9   46 1   
    21   10   11 1   
    22   10   51 1   
    23   10   52 1   
    24   11   12 2   
    25   11   14 1   
    26   12   13 1   
    27   12   16 1   
    28   13   54 1   
    29   13   55 1   
    30   13   56 1   
    31   14   15 1   
    32   14   53 1   
    33   15   16 2   
    34   15   22 1   
    35   16   17 1   
    36   17   18 1   
    37   17   58 1   
    38   17   59 1   
    39   18   19 1   
    40   18   60 1   
    41   18   61 1   
    42   19   20 1   
    43   19   21 1   
    44   22   23 2   
    45   22   57 1   
    46   23   24 1   
    47   23   30 1   
    48   24   25 1   
    49   24   32 2   
    50   25   26 1   
    51   25   62 1   
    52   25   63 1   
    53   26   27 1   
    54   26   64 1   
    55   26   65 1   
    56   27   28 1   
    57   27   29 1   
    58   30   31 2   
    59   31   32 1   
    60   31   34 1   
    61   32   33 1   
    62   33   67 1   
    63   33   68 1   
    64   33   69 1   
    65   34   35 2   
    66   34   66 1   
    67   35   36 1   
    68   35   38 1   
    69   36   37 1   
    70   36   41 2   
    71   37   71 1   
    72   37   72 1   
    73   37   73 1   
    74   38   39 1   
    75   38   70 1   
    76   39   40 2   
    77   39   41 1   
    78   41   42 1   
    79   42   43 1   
    80   42   74 1   
    81   42   75 1   
    82   43   76 1   
    83   43   77 1   
    84   43   78 1   
@<TRIPOS>SUBSTRUCTURE
     1 PVN         1 TEMP              0 ****  ****    0 ROOT
