@<TRIPOS>MOLECULE
PVN
   81    84     1     0     0
SMALL
bcc


@<TRIPOS>ATOM
      1 C31        -0.3350   -0.2880   -0.3490 c3        1 PVN     -0.037200
      2 C32         1.1180   -0.0810   -0.7110 c3        1 PVN     -0.088100
      3 C3         -0.6060    0.0150    1.0660 c2        1 PVN     -0.092400
      4 C2         -0.7510    1.2210    1.6710 ce        1 PVN     -0.184400
      5 C21        -0.6450    2.5710    1.1170 c3        1 PVN     -0.034900
      6 C1         -1.0660    0.9930    3.1300 c         1 PVN      0.686700
      7 O1         -1.2360    1.8580    4.0030 o         1 PVN     -0.638500
      8 N1         -1.1860   -0.3860    3.3190 n         1 PVN     -0.557900
      9 C4         -0.8330   -1.1010    2.0930 c3        1 PVN      0.111900
     10 C5          0.3950   -2.0140    2.2030 c3        1 PVN     -0.013100
     11 C6          0.1040   -3.2200    3.0040 cc        1 PVN     -0.147600
     12 C7         -0.5340   -4.4030    2.5610 cd        1 PVN     -0.127300
     13 C41        -1.0590   -4.6510    1.2180 c3        1 PVN     -0.056800
     14 N2          0.4360   -3.3680    4.3420 na        1 PVN     -0.151100
     15 C9          0.0430   -4.6440    4.7730 cc        1 PVN     -0.137100
     16 C8         -0.5740   -5.3070    3.6720 cd        1 PVN     -0.046300
     17 C51        -1.1540   -6.6600    3.6320 c3        1 PVN     -0.023100
     18 C52        -0.3510   -7.6230    2.7740 c3        1 PVN     -0.191400
     19 C53        -1.1940   -8.3260    1.6970 c         1 PVN      0.905600
     20 O54        -0.8400   -9.4850    1.3400 o         1 PVN     -0.853800
     21 O55        -2.1800   -7.7130    1.1850 o         1 PVN     -0.853800
     22 C10         0.2310   -5.1460    6.1000 ce        1 PVN      0.058800
     23 C11         0.9580   -4.5770    7.0970 cd        1 PVN      0.008600
     24 C12         1.1170   -5.1090    8.4840 cd        1 PVN     -0.030200
     25 C61         0.4980   -6.3260    9.0320 c3        1 PVN     -0.033200
     26 C62        -0.5590   -6.0320   10.0840 c3        1 PVN     -0.190400
     27 C63        -0.2700   -6.7000   11.4400 c         1 PVN      0.905600
     28 O64         0.9310   -6.9290   11.7750 o         1 PVN     -0.852800
     29 O65        -1.2600   -6.9650   12.1800 o         1 PVN     -0.852800
     30 N3          1.7190   -3.3650    6.9870 nd        1 PVN     -0.610300
     31 C14         2.3040   -3.1730    8.1650 cc        1 PVN      0.450900
     32 C13         1.9540   -4.2350    9.1450 cc        1 PVN     -0.250800
     33 C71         2.4380   -4.2970   10.5230 c3        1 PVN     -0.058900
     34 C15         3.1160   -2.0330    8.5440 ce        1 PVN     -0.164600
     35 C16         4.2460   -1.6000    7.9490 cd        1 PVN      0.017600
     36 C17         5.0320   -2.1740    6.8140 cd        1 PVN      0.013800
     37 C81         4.7180   -3.4390    6.1490 c3        1 PVN     -0.064900
     38 N4          4.9610   -0.4400    8.3810 n         1 PVN     -0.504100
     39 C19         6.0470   -0.1990    7.5210 c         1 PVN      0.700700
     40 O19         6.8030    0.7810    7.6090 o         1 PVN     -0.643500
     41 C18         6.0910   -1.3480    6.5550 cc        1 PVN     -0.217400
     42 C91         7.1650   -1.4730    5.5580 c3        1 PVN     -0.015200
     43 C92         6.6590   -1.3290    4.1410 c3        1 PVN     -0.089100
     44 H321        1.2770   -0.3090   -1.7920 hc        1 PVN      0.036700
     45 H322        1.7730   -0.7520   -0.1050 hc        1 PVN      0.036700
     46 HC4        -1.7190   -1.7300    1.7790 h1        1 PVN      0.097700
     47 H211       -1.2460    2.6600    0.1770 hc        1 PVN      0.046033
     48 H212       -1.0160    3.3250    1.8580 hc        1 PVN      0.046033
     49 H213        0.4210    2.8100    0.8720 hc        1 PVN      0.046033
     50 HN1        -1.1140   -0.8280    4.2000 hn        1 PVN      0.337500
     51 H5C1        1.2680   -1.4420    2.6150 hc        1 PVN      0.059700
     52 H5C2        0.6630   -2.3460    1.1610 hc        1 PVN      0.059700
     53 HN2         0.9450   -2.7160    4.8830 hn        1 PVN      0.312700
     54 H411       -1.4450   -5.7090    1.1330 hc        1 PVN      0.055033
     55 H412       -0.2600   -4.4980    0.4490 hc        1 PVN      0.055033
     56 H413       -1.8990   -3.9470    0.9880 hc        1 PVN      0.055033
     57 H101       -0.2790   -6.1080    6.3040 ha        1 PVN      0.160000
     58 H511       -2.1950   -6.5870    3.1990 hc        1 PVN      0.057700
     59 H512       -1.2510   -7.0690    4.6730 hc        1 PVN      0.057700
     60 H521        0.1270   -8.4010    3.4200 hc        1 PVN      0.032200
     61 H522        0.4680   -7.0790    2.2370 hc        1 PVN      0.032200
     62 H611        1.3080   -6.9480    9.5160 hc        1 PVN      0.059200
     63 H612        0.0510   -6.9390    8.2050 hc        1 PVN      0.059200
     64 H621       -1.5600   -6.3780    9.7230 hc        1 PVN      0.032200
     65 H622       -0.6290   -4.9320   10.2740 hc        1 PVN      0.032200
     66 H151        2.7210   -1.5090    9.4370 ha        1 PVN      0.143000
     67 H711        3.5470   -4.4450   10.5440 hc        1 PVN      0.056033
     68 H712        2.2050   -3.3450   11.0630 hc        1 PVN      0.056033
     69 H713        1.9500   -5.1560   11.0700 hc        1 PVN      0.056033
     70 HN4         4.5710    0.2280    8.9920 hn        1 PVN      0.326500
     71 H811        3.9130   -3.2860    5.3840 hc        1 PVN      0.066700
     72 H812        4.3570   -4.1990    6.8870 hc        1 PVN      0.066700
     73 H813        5.6230   -3.8410    5.6280 hc        1 PVN      0.066700
     74 H911        7.6590   -2.4770    5.6730 hc        1 PVN      0.051200
     75 H912        7.9440   -0.6870    5.7590 hc        1 PVN      0.051200
     76 H921        6.2180   -0.3160    3.9810 hc        1 PVN      0.034033
     77 H922        5.8720   -2.0940    3.9290 hc        1 PVN      0.034033
     78 H923        7.4990   -1.4700    3.4200 hc        1 PVN      0.034033
     79 H31        -0.6260   -1.3520   -0.5680 hc        1 PVN      0.055200
     80 H323        1.4220    0.9770   -0.5200 hc        1 PVN      0.036700
     81 HXT        -0.9760    0.3750   -0.9940 hc        1 PVN      0.055200
@<TRIPOS>BOND
     1    1    2 1   
     2    1    3 1   
     3    1   79 1   
     4    1   81 1   
     5    2   44 1   
     6    2   45 1   
     7    2   80 1   
     8    3    4 2   
     9    3    9 1   
    10    4    5 1   
    11    4    6 1   
    12    5   47 1   
    13    5   48 1   
    14    5   49 1   
    15    6    7 2   
    16    6    8 1   
    17    8    9 1   
    18    8   50 1   
    19    9   10 1   
    20    9   46 1   
    21   10   11 1   
    22   10   51 1   
    23   10   52 1   
    24   11   12 2   
    25   11   14 1   
    26   12   13 1   
    27   12   16 1   
    28   13   54 1   
    29   13   55 1   
    30   13   56 1   
    31   14   15 1   
    32   14   53 1   
    33   15   16 2   
    34   15   22 1   
    35   16   17 1   
    36   17   18 1   
    37   17   58 1   
    38   17   59 1   
    39   18   19 1   
    40   18   60 1   
    41   18   61 1   
    42   19   20 1   
    43   19   21 1   
    44   22   23 2   
    45   22   57 1   
    46   23   24 1   
    47   23   30 1   
    48   24   25 1   
    49   24   32 2   
    50   25   26 1   
    51   25   62 1   
    52   25   63 1   
    53   26   27 1   
    54   26   64 1   
    55   26   65 1   
    56   27   28 1   
    57   27   29 1   
    58   30   31 2   
    59   31   32 1   
    60   31   34 1   
    61   32   33 1   
    62   33   67 1   
    63   33   68 1   
    64   33   69 1   
    65   34   35 2   
    66   34   66 1   
    67   35   36 1   
    68   35   38 1   
    69   36   37 1   
    70   36   41 2   
    71   37   71 1   
    72   37   72 1   
    73   37   73 1   
    74   38   39 1   
    75   38   70 1   
    76   39   40 2   
    77   39   41 1   
    78   41   42 1   
    79   42   43 1   
    80   42   74 1   
    81   42   75 1   
    82   43   76 1   
    83   43   77 1   
    84   43   78 1   
@<TRIPOS>SUBSTRUCTURE
     1 PVN         1 TEMP              0 ****  ****    0 ROOT
