@<TRIPOS>MOLECULE
PVN
   81    84     1     0     0
SMALL
bcc


@<TRIPOS>ATOM
      1 C31        -0.2950   -0.2960   -0.3620 c3        1 PVN     -0.037200
      2 C32         1.1610   -0.1000   -0.7180 c3        1 PVN     -0.088100
      3 C3         -0.5710    0.0130    1.0510 c2        1 PVN     -0.092400
      4 C2         -0.7110    1.2210    1.6510 ce        1 PVN     -0.184400
      5 C21        -0.5930    2.5700    1.0950 c3        1 PVN     -0.034900
      6 C1         -1.0340    1.0000    3.1100 c         1 PVN      0.686700
      7 O1         -1.2020    1.8690    3.9800 o         1 PVN     -0.638500
      8 N1         -1.1640   -0.3780    3.3030 n         1 PVN     -0.557900
      9 C4         -0.8100   -1.0990    2.0790 c3        1 PVN      0.112900
     10 C5          0.4110   -2.0190    2.1970 c3        1 PVN     -0.013100
     11 C6          0.1090   -3.2200    3.0030 cc        1 PVN     -0.147600
     12 C7         -0.5370   -4.4000    2.5640 cd        1 PVN     -0.127300
     13 C41        -1.0610   -4.6500    1.2200 c3        1 PVN     -0.056800
     14 N2          0.4360   -3.3650    4.3420 na        1 PVN     -0.151100
     15 C9          0.0320   -4.6360    4.7780 cc        1 PVN     -0.137100
     16 C8         -0.5860   -5.2990    3.6790 cd        1 PVN     -0.046300
     17 C51        -1.1770   -6.6480    3.6430 c3        1 PVN     -0.023100
     18 C52        -0.3780   -7.6210    2.7920 c3        1 PVN     -0.191400
     19 C53        -1.2230   -8.3220    1.7150 c         1 PVN      0.905600
     20 O54        -0.8750   -9.4860    1.3640 o         1 PVN     -0.853800
     21 O55        -2.2030   -7.7050    1.1980 o         1 PVN     -0.853800
     22 C10         0.2140   -5.1330    6.1080 ce        1 PVN      0.058800
     23 C11         0.9430   -4.5660    7.1040 cd        1 PVN      0.008600
     24 C12         1.0940   -5.0920    8.4930 cd        1 PVN     -0.030200
     25 C61         0.4650   -6.3030    9.0450 c3        1 PVN     -0.033200
     26 C62        -0.5920   -5.9970   10.0930 c3        1 PVN     -0.190400
     27 C63        -0.3120   -6.6610   11.4520 c         1 PVN      0.905600
     28 O64         0.8870   -6.8970   11.7920 o         1 PVN     -0.852800
     29 O65        -1.3050   -6.9160   12.1910 o         1 PVN     -0.852800
     30 N3          1.7120   -3.3600    6.9900 nd        1 PVN     -0.610300
     31 C14         2.2960   -3.1660    8.1690 cc        1 PVN      0.450900
     32 C13         1.9370   -4.2220    9.1520 cc        1 PVN     -0.250800
     33 C71         2.4170   -4.2820   10.5310 c3        1 PVN     -0.058900
     34 C15         3.1150   -2.0310    8.5450 ce        1 PVN     -0.164600
     35 C16         4.2480   -1.6060    7.9490 cd        1 PVN      0.017600
     36 C17         5.0310   -2.1860    6.8150 cd        1 PVN      0.013800
     37 C81         4.7090   -3.4510    6.1520 c3        1 PVN     -0.064900
     38 N4          4.9690   -0.4490    8.3780 n         1 PVN     -0.504100
     39 C19         6.0560   -0.2160    7.5170 c         1 PVN      0.700700
     40 O19         6.8180    0.7600    7.6030 o         1 PVN     -0.643500
     41 C18         6.0940   -1.3670    6.5530 cc        1 PVN     -0.217400
     42 C91         7.1660   -1.5000    5.5560 c3        1 PVN     -0.015200
     43 C92         6.6600   -1.3570    4.1390 c3        1 PVN     -0.089100
     44 H321        1.4720    0.9560   -0.5270 hc        1 PVN      0.036700
     45 H322        1.3240   -0.3320   -1.7970 hc        1 PVN      0.036700
     46 HC4        -1.6990   -1.7220    1.7630 h1        1 PVN      0.097700
     47 H211       -0.9620    3.3280    1.8320 hc        1 PVN      0.046033
     48 H212       -1.1890    2.6600    0.1520 hc        1 PVN      0.046033
     49 H213        0.4760    2.8010    0.8540 hc        1 PVN      0.046033
     50 HN1        -1.0990   -0.8180    4.1850 hn        1 PVN      0.337500
     51 H5C1        1.2870   -1.4520    2.6100 hc        1 PVN      0.059700
     52 H5C2        0.6790   -2.3580    1.1580 hc        1 PVN      0.059700
     53 HN2         0.9490   -2.7140    4.8810 hn        1 PVN      0.312700
     54 H411       -1.8960   -3.9420    0.9850 hc        1 PVN      0.055033
     55 H412       -1.4530   -5.7060    1.1380 hc        1 PVN      0.055033
     56 H413       -0.2600   -4.5050    0.4520 hc        1 PVN      0.055033
     57 H101       -0.3040   -6.0900    6.3150 ha        1 PVN      0.160000
     58 H511       -2.2160   -6.5690    3.2070 hc        1 PVN      0.057700
     59 H512       -1.2790   -7.0510    4.6850 hc        1 PVN      0.057700
     60 H521        0.4470   -7.0860    2.2550 hc        1 PVN      0.032200
     61 H522        0.0910   -8.4000    3.4430 hc        1 PVN      0.032200
     62 H611        0.0160   -6.9160    8.2200 hc        1 PVN      0.059200
     63 H612        1.2700   -6.9290    9.5340 hc        1 PVN      0.059200
     64 H621       -0.6540   -4.8940   10.2790 hc        1 PVN      0.032200
     65 H622       -1.5940   -6.3360    9.7310 hc        1 PVN      0.032200
     66 H151        2.7250   -1.5030    9.4370 ha        1 PVN      0.143000
     67 H711        2.1900   -3.3260   11.0680 hc        1 PVN      0.056033
     68 H712        3.5250   -4.4380   10.5560 hc        1 PVN      0.056033
     69 H713        1.9210   -5.1350   11.0810 hc        1 PVN      0.056033
     70 HN4         4.5830    0.2230    8.9870 hn        1 PVN      0.326500
     71 H811        5.6130   -3.8600    5.6320 hc        1 PVN      0.066367
     72 H812        4.3450   -4.2080    6.8920 hc        1 PVN      0.066367
     73 H813        3.9050   -3.2960    5.3870 hc        1 PVN      0.066367
     74 H911        7.6550   -2.5060    5.6730 hc        1 PVN      0.051200
     75 H912        7.9500   -0.7180    5.7550 hc        1 PVN      0.051200
     76 H921        5.8690   -2.1180    3.9290 hc        1 PVN      0.034033
     77 H922        7.4990   -1.5030    3.4170 hc        1 PVN      0.034033
     78 H923        6.2250   -0.3420    3.9770 hc        1 PVN      0.034033
     79 H31        -0.9280    0.3710   -1.0120 hc        1 PVN      0.055200
     80 H323        1.8080   -0.7740   -0.1060 hc        1 PVN      0.036700
     81 HXT        -0.5940   -1.3580   -0.5800 hc        1 PVN      0.055200
@<TRIPOS>BOND
     1    1    2 1   
     2    1    3 1   
     3    1   79 1   
     4    1   81 1   
     5    2   44 1   
     6    2   45 1   
     7    2   80 1   
     8    3    4 2   
     9    3    9 1   
    10    4    5 1   
    11    4    6 1   
    12    5   47 1   
    13    5   48 1   
    14    5   49 1   
    15    6    7 2   
    16    6    8 1   
    17    8    9 1   
    18    8   50 1   
    19    9   10 1   
    20    9   46 1   
    21   10   11 1   
    22   10   51 1   
    23   10   52 1   
    24   11   12 2   
    25   11   14 1   
    26   12   13 1   
    27   12   16 1   
    28   13   54 1   
    29   13   55 1   
    30   13   56 1   
    31   14   15 1   
    32   14   53 1   
    33   15   16 2   
    34   15   22 1   
    35   16   17 1   
    36   17   18 1   
    37   17   58 1   
    38   17   59 1   
    39   18   19 1   
    40   18   60 1   
    41   18   61 1   
    42   19   20 1   
    43   19   21 1   
    44   22   23 2   
    45   22   57 1   
    46   23   24 1   
    47   23   30 1   
    48   24   25 1   
    49   24   32 2   
    50   25   26 1   
    51   25   62 1   
    52   25   63 1   
    53   26   27 1   
    54   26   64 1   
    55   26   65 1   
    56   27   28 1   
    57   27   29 1   
    58   30   31 2   
    59   31   32 1   
    60   31   34 1   
    61   32   33 1   
    62   33   67 1   
    63   33   68 1   
    64   33   69 1   
    65   34   35 2   
    66   34   66 1   
    67   35   36 1   
    68   35   38 1   
    69   36   37 1   
    70   36   41 2   
    71   37   71 1   
    72   37   72 1   
    73   37   73 1   
    74   38   39 1   
    75   38   70 1   
    76   39   40 2   
    77   39   41 1   
    78   41   42 1   
    79   42   43 1   
    80   42   74 1   
    81   42   75 1   
    82   43   76 1   
    83   43   77 1   
    84   43   78 1   
@<TRIPOS>SUBSTRUCTURE
     1 PVN         1 TEMP              0 ****  ****    0 ROOT
