@<TRIPOS>MOLECULE
PVN
   81    84     1     0     0
SMALL
bcc


@<TRIPOS>ATOM
      1 C31        -5.7900    3.2900    0.0810 c3        1 PVN     -0.037200
      2 C32        -6.4210    2.2900    1.0220 c3        1 PVN     -0.088100
      3 C3         -5.0360    2.6380   -1.0030 c2        1 PVN     -0.092400
      4 C2         -5.5000    2.0470   -2.1330 ce        1 PVN     -0.184400
      5 C21        -6.8730    1.8430   -2.5950 c3        1 PVN     -0.034900
      6 C1         -4.3190    1.5710   -2.9460 c         1 PVN      0.686700
      7 O1         -4.3520    0.9590   -4.0250 o         1 PVN     -0.638500
      8 N1         -3.1620    1.9920   -2.2860 n         1 PVN     -0.557900
      9 C4         -3.5030    2.6060   -1.0020 c3        1 PVN      0.111900
     10 C5         -2.9630    1.8730    0.2330 c3        1 PVN     -0.013100
     11 C6         -1.5020    2.0410    0.3670 cc        1 PVN     -0.147600
     12 C7         -0.8190    3.1490    0.9240 cd        1 PVN     -0.127300
     13 C41        -1.4350    4.3650    1.4560 c3        1 PVN     -0.056800
     14 N2         -0.5670    1.1020   -0.0390 na        1 PVN     -0.151100
     15 C9          0.7190    1.5720    0.2670 cc        1 PVN     -0.137100
     16 C8          0.5830    2.8580    0.8670 cd        1 PVN     -0.046300
     17 C51         1.6460    3.7540    1.3530 c3        1 PVN     -0.023100
     18 C52         1.6550    3.8950    2.8650 c3        1 PVN     -0.191400
     19 C53         1.6010    5.3570    3.3400 c         1 PVN      0.905600
     20 O54         2.1590    5.6360    4.4390 o         1 PVN     -0.853800
     21 O55         0.9770    6.2120    2.6410 o         1 PVN     -0.853800
     22 C10         1.9300    0.8610   -0.0070 ce        1 PVN      0.058800
     23 C11         2.0490   -0.4250   -0.4290 cd        1 PVN      0.008600
     24 C12         3.3260   -1.1370   -0.7350 cd        1 PVN     -0.030200
     25 C61         4.6830   -0.5720   -0.6610 c3        1 PVN     -0.033200
     26 C62         5.3340   -0.4120   -2.0240 c3        1 PVN     -0.190400
     27 C63         6.6690   -1.1660   -2.1540 c         1 PVN      0.905600
     28 O64         6.8600   -2.2120   -1.4640 o         1 PVN     -0.852800
     29 O65         7.5150   -0.7150   -2.9780 o         1 PVN     -0.852800
     30 N3          0.9610   -1.3360   -0.6420 nd        1 PVN     -0.610300
     31 C14         1.4990   -2.4930   -1.0180 cc        1 PVN      0.450900
     32 C13         2.9820   -2.4210   -1.0990 cc        1 PVN     -0.250800
     33 C71         3.8540   -3.5270   -1.4860 c3        1 PVN     -0.058900
     34 C15         0.7770   -3.6870   -1.4110 ce        1 PVN     -0.164600
     35 C16        -0.1190   -4.3800   -0.6800 cd        1 PVN      0.017600
     36 C17        -0.5760   -4.1960    0.7330 cd        1 PVN      0.013800
     37 C81        -0.0330   -3.1940    1.6520 c3        1 PVN     -0.064900
     38 N4         -0.8050   -5.5340   -1.1710 n         1 PVN     -0.504100
     39 C19        -1.7280   -5.9870   -0.2120 c         1 PVN      0.700700
     40 O19        -2.5140   -6.9300   -0.3910 o         1 PVN     -0.643500
     41 C18        -1.5280   -5.1380    1.0100 cc        1 PVN     -0.217400
     42 C91        -2.2700   -5.3930    2.2530 c3        1 PVN     -0.015200
     43 C92        -3.2250   -4.2740    2.5980 c3        1 PVN     -0.089100
     44 H321       -5.6360    1.6590    1.5070 hc        1 PVN      0.036700
     45 H322       -6.9910    2.8240    1.8190 hc        1 PVN      0.036700
     46 HC4        -3.1020    3.6630   -0.9950 h1        1 PVN      0.097700
     47 H211       -7.3860    1.0710   -1.9660 hc        1 PVN      0.046033
     48 H212       -7.4580    2.7950   -2.5210 hc        1 PVN      0.046033
     49 H213       -6.8780    1.4950   -3.6580 hc        1 PVN      0.046033
     50 HN1        -2.2690    1.5950   -2.4350 hn        1 PVN      0.337500
     51 H5C1       -3.4490    2.3340    1.1370 hc        1 PVN      0.059700
     52 H5C2       -3.2550    0.7900    0.2010 hc        1 PVN      0.059700
     53 HN2        -0.7740    0.2080   -0.4060 hn        1 PVN      0.312700
     54 H411       -2.1860    4.1130    2.2470 hc        1 PVN      0.055033
     55 H412       -0.6510    5.0420    1.9050 hc        1 PVN      0.055033
     56 H413       -1.9640    4.9250    0.6430 hc        1 PVN      0.055033
     57 H101        2.8550    1.4480    0.1570 ha        1 PVN      0.160000
     58 H511        2.6470    3.3920    0.9990 hc        1 PVN      0.057700
     59 H512        1.4780    4.7780    0.9050 hc        1 PVN      0.057700
     60 H521        0.7670    3.3790    3.3120 hc        1 PVN      0.032200
     61 H522        2.5730    3.4150    3.2870 hc        1 PVN      0.032200
     62 H611        4.6620    0.4160   -0.1310 hc        1 PVN      0.059200
     63 H612        5.3250   -1.2720   -0.0480 hc        1 PVN      0.059200
     64 H621        4.6630   -0.8050   -2.8300 hc        1 PVN      0.032200
     65 H622        5.5150    0.6720   -2.2330 hc        1 PVN      0.032200
     66 H151        1.0450   -4.0290   -2.4300 ha        1 PVN      0.143000
     67 H711        3.5500   -3.9370   -2.4820 hc        1 PVN      0.056033
     68 H712        4.9260   -3.1760   -1.5490 hc        1 PVN      0.056033
     69 H713        3.7930   -4.3570   -0.7380 hc        1 PVN      0.056033
     70 HN4        -0.8280   -5.7710   -2.1270 hn        1 PVN      0.326500
     71 H811       -0.5160   -2.1990    1.4710 hc        1 PVN      0.066700
     72 H812       -0.2300   -3.4900    2.7130 hc        1 PVN      0.066700
     73 H813        1.0710   -3.0770    1.5080 hc        1 PVN      0.066700
     74 H911       -2.8430   -6.3550    2.1470 hc        1 PVN      0.051200
     75 H912       -1.5380   -5.5270    3.0980 hc        1 PVN      0.051200
     76 H921       -4.0010   -4.1600    1.8040 hc        1 PVN      0.034033
     77 H922       -3.7360   -4.4920    3.5670 hc        1 PVN      0.034033
     78 H923       -2.6730   -3.3060    2.6940 hc        1 PVN      0.034033
     79 H31        -6.5960    3.9330   -0.3700 hc        1 PVN      0.055200
     80 H323       -7.1210    1.6190    0.4690 hc        1 PVN      0.036700
     81 HXT        -5.1050    3.9690    0.6600 hc        1 PVN      0.055200
@<TRIPOS>BOND
     1    1    2 1   
     2    1    3 1   
     3    1   79 1   
     4    1   81 1   
     5    2   44 1   
     6    2   45 1   
     7    2   80 1   
     8    3    4 2   
     9    3    9 1   
    10    4    5 1   
    11    4    6 1   
    12    5   47 1   
    13    5   48 1   
    14    5   49 1   
    15    6    7 2   
    16    6    8 1   
    17    8    9 1   
    18    8   50 1   
    19    9   10 1   
    20    9   46 1   
    21   10   11 1   
    22   10   51 1   
    23   10   52 1   
    24   11   12 2   
    25   11   14 1   
    26   12   13 1   
    27   12   16 1   
    28   13   54 1   
    29   13   55 1   
    30   13   56 1   
    31   14   15 1   
    32   14   53 1   
    33   15   16 2   
    34   15   22 1   
    35   16   17 1   
    36   17   18 1   
    37   17   58 1   
    38   17   59 1   
    39   18   19 1   
    40   18   60 1   
    41   18   61 1   
    42   19   20 1   
    43   19   21 1   
    44   22   23 2   
    45   22   57 1   
    46   23   24 1   
    47   23   30 1   
    48   24   25 1   
    49   24   32 2   
    50   25   26 1   
    51   25   62 1   
    52   25   63 1   
    53   26   27 1   
    54   26   64 1   
    55   26   65 1   
    56   27   28 1   
    57   27   29 1   
    58   30   31 2   
    59   31   32 1   
    60   31   34 1   
    61   32   33 1   
    62   33   67 1   
    63   33   68 1   
    64   33   69 1   
    65   34   35 2   
    66   34   66 1   
    67   35   36 1   
    68   35   38 1   
    69   36   37 1   
    70   36   41 2   
    71   37   71 1   
    72   37   72 1   
    73   37   73 1   
    74   38   39 1   
    75   38   70 1   
    76   39   40 2   
    77   39   41 1   
    78   41   42 1   
    79   42   43 1   
    80   42   74 1   
    81   42   75 1   
    82   43   76 1   
    83   43   77 1   
    84   43   78 1   
@<TRIPOS>SUBSTRUCTURE
     1 PVN         1 TEMP              0 ****  ****    0 ROOT
