@<TRIPOS>MOLECULE
PVP
   43    45     1     0     0
SMALL
bcc


@<TRIPOS>ATOM
      1 CL          0.2310    0.5460   -0.2540 cl        1 PVP     -0.052400
      2 C8          1.9100    0.3980   -0.1420 ca        1 PVP     -0.231200
      3 C9          2.5530    0.4940    1.1190 ca        1 PVP      0.464600
      4 C16         1.7380    0.7570    2.3450 c3        1 PVP     -0.158400
      5 N3          3.8930    0.3490    1.2430 nb        1 PVP     -0.692000
      6 C6          4.5910    0.1070    0.0940 cp        1 PVP      0.618000
      7 C5          6.0780   -0.0560    0.2360 cp        1 PVP      0.364300
      8 N23         6.8810    0.8280   -0.4050 nb        1 PVP     -0.632000
      9 C1          8.2070    0.6570   -0.2640 ca        1 PVP      0.393200
     10 C2          8.7890   -0.3740    0.4980 ca        1 PVP     -0.236300
     11 C3          7.9450   -1.2700    1.1540 ca        1 PVP     -0.098000
     12 C4          6.5620   -1.1160    1.0290 ca        1 PVP     -0.208300
     13 N2          4.0760    0.0030   -1.1610 nb        1 PVP     -0.702000
     14 C7          2.7220    0.1470   -1.2930 ca        1 PVP      0.646200
     15 N4          2.0890   -0.0140   -2.5650 nh        1 PVP     -0.723300
     16 C13         1.6790    1.2480   -3.1780 c3        1 PVP      0.175300
     17 C12         0.8400    1.0130   -4.4500 c3        1 PVP      0.167800
     18 N5          1.4890    0.1250   -5.4050 n3        1 PVP     -0.742600
     19 C11         1.9460   -1.1120   -4.7850 c3        1 PVP      0.167800
     20 C10         2.7900   -0.8710   -3.5160 c3        1 PVP      0.175300
     21 C14         0.6790   -0.1150   -6.5900 c3        1 PVP      0.126800
     22 C15         0.7230    1.0440   -7.5960 c3        1 PVP      0.135400
     23 O1          1.9770    1.1490   -8.2340 oh        1 PVP     -0.601800
     24 H1          0.9930   -0.0670    2.4770 hc        1 PVP      0.065367
     25 H2          2.3700    0.8200    3.2650 hc        1 PVP      0.065367
     26 H3          1.1880    1.7230    2.2220 hc        1 PVP      0.065367
     27 H4          8.8370    1.3930   -0.7960 h4        1 PVP      0.026100
     28 H5          9.8800   -0.4620    0.5710 ha        1 PVP      0.145000
     29 H6          8.3580   -2.0870    1.7640 ha        1 PVP      0.141000
     30 H7          5.8660   -1.7950    1.5380 ha        1 PVP      0.154000
     31 H8          2.5750    1.8810   -3.4420 h1        1 PVP      0.056450
     32 H9          1.0460    1.8190   -2.4460 h1        1 PVP      0.056450
     33 H10        -0.1770    0.6280   -4.1460 h1        1 PVP      0.041700
     34 H11         0.6980    2.0120   -4.9490 h1        1 PVP      0.041700
     35 H13         2.6020   -1.6480   -5.5270 h1        1 PVP      0.041700
     36 H14         1.0830   -1.7920   -4.5260 h1        1 PVP      0.041700
     37 H15         2.9720   -1.8660   -3.0250 h1        1 PVP      0.056450
     38 H16         3.7850   -0.4380   -3.8230 h1        1 PVP      0.056450
     39 H17        -0.4020   -0.3070   -6.3280 h1        1 PVP      0.044700
     40 H18         1.0740   -1.0320   -7.1140 h1        1 PVP      0.044700
     41 H19         0.4540    2.0180   -7.1090 h1        1 PVP      0.043700
     42 H20        -0.0020    0.8310   -8.4280 h1        1 PVP      0.043700
     43 H21         2.6440    1.2680   -7.5470 ho        1 PVP      0.413000
@<TRIPOS>BOND
     1    1    2 1   
     2    2    3 ar  
     3    2   14 ar  
     4    3    4 1   
     5    3    5 ar  
     6    4   24 1   
     7    4   25 1   
     8    4   26 1   
     9    5    6 ar  
    10    6    7 1   
    11    6   13 ar  
    12    7    8 ar  
    13    7   12 ar  
    14    8    9 ar  
    15    9   10 ar  
    16    9   27 1   
    17   10   11 ar  
    18   10   28 1   
    19   11   12 ar  
    20   11   29 1   
    21   12   30 1   
    22   13   14 ar  
    23   14   15 1   
    24   15   16 1   
    25   15   20 1   
    26   16   17 1   
    27   16   31 1   
    28   16   32 1   
    29   17   18 1   
    30   17   33 1   
    31   17   34 1   
    32   18   19 1   
    33   18   21 1   
    34   19   20 1   
    35   19   35 1   
    36   19   36 1   
    37   20   37 1   
    38   20   38 1   
    39   21   22 1   
    40   21   39 1   
    41   21   40 1   
    42   22   23 1   
    43   22   41 1   
    44   22   42 1   
    45   23   43 1   
@<TRIPOS>SUBSTRUCTURE
     1 PVP         1 TEMP              0 ****  ****    0 ROOT
