@<TRIPOS>MOLECULE
PVP
   43    45     1     0     0
SMALL
bcc


@<TRIPOS>ATOM
      1 Cl          0.2450    0.5750   -0.2390 cl        1 PVP     -0.052400
      2 C8          1.9240    0.4180   -0.1370 ca        1 PVP     -0.232200
      3 C9          2.5750    0.5190    1.1210 ca        1 PVP      0.464600
      4 C16         1.7680    0.7940    2.3490 c3        1 PVP     -0.158400
      5 N3          3.9140    0.3670    1.2370 nb        1 PVP     -0.692000
      6 C6          4.6050    0.1140    0.0860 cp        1 PVP      0.618000
      7 C5          6.0910   -0.0570    0.2210 cp        1 PVP      0.364300
      8 N23         6.8950    0.8190   -0.4300 nb        1 PVP     -0.632000
      9 C1          8.2220    0.6410   -0.2960 ca        1 PVP      0.393200
     10 C2          8.8020   -0.3890    0.4700 ca        1 PVP     -0.236300
     11 C3          7.9570   -1.2760    1.1360 ca        1 PVP     -0.098000
     12 C4          6.5740   -1.1140    1.0170 ca        1 PVP     -0.208300
     13 N2          4.0820    0.0050   -1.1650 nb        1 PVP     -0.702000
     14 C7          2.7280    0.1560   -1.2910 ca        1 PVP      0.646200
     15 N4          2.0870   -0.0090   -2.5580 nh        1 PVP     -0.723300
     16 C13         1.6810    1.2500   -3.1770 c3        1 PVP      0.175300
     17 C12         0.8330    1.0120   -4.4430 c3        1 PVP      0.167800
     18 N5          1.4710    0.1150   -5.3950 n3        1 PVP     -0.742600
     19 C11         1.9250   -1.1200   -4.7700 c3        1 PVP      0.167800
     20 C10         2.7780   -0.8760   -3.5080 c3        1 PVP      0.175300
     21 C14         0.6530   -0.1280   -6.5740 c3        1 PVP      0.126800
     22 C15         0.6980    1.0240   -7.5870 c3        1 PVP      0.135400
     23 O1          1.9480    1.1200   -8.2330 oh        1 PVP     -0.601800
     24 H1          2.4050    0.8590    3.2650 hc        1 PVP      0.065367
     25 H2          1.2230    1.7630    2.2230 hc        1 PVP      0.065367
     26 H3          1.0190   -0.0240    2.4900 hc        1 PVP      0.065367
     27 H4          8.8530    1.3700   -0.8360 h4        1 PVP      0.026100
     28 H5          9.8930   -0.4820    0.5370 ha        1 PVP      0.145000
     29 H6          8.3690   -2.0910    1.7480 ha        1 PVP      0.141000
     30 H7          5.8770   -1.7860    1.5340 ha        1 PVP      0.154000
     31 H8          1.0550    1.8310   -2.4440 h1        1 PVP      0.056450
     32 H9          2.5780    1.8770   -3.4500 h1        1 PVP      0.056450
     33 H10         0.6930    2.0100   -4.9460 h1        1 PVP      0.041700
     34 H11        -0.1850    0.6350   -4.1300 h1        1 PVP      0.041700
     35 H13         1.0600   -1.7940   -4.5020 h1        1 PVP      0.041700
     36 H14         2.5740   -1.6650   -5.5120 h1        1 PVP      0.041700
     37 H15         2.9570   -1.8690   -3.0110 h1        1 PVP      0.056450
     38 H16         3.7740   -0.4510   -3.8230 h1        1 PVP      0.056450
     39 H17        -0.4280   -0.3130   -6.3050 h1        1 PVP      0.044700
     40 H18         1.0400   -1.0500   -7.0950 h1        1 PVP      0.044700
     41 H19        -0.0330    0.8100   -8.4130 h1        1 PVP      0.043700
     42 H20         0.4360    2.0030   -7.1050 h1        1 PVP      0.043700
     43 H21         2.6200    1.2390   -7.5510 ho        1 PVP      0.413000
@<TRIPOS>BOND
     1    1    2 1   
     2    2    3 ar  
     3    2   14 ar  
     4    3    4 1   
     5    3    5 ar  
     6    4   24 1   
     7    4   25 1   
     8    4   26 1   
     9    5    6 ar  
    10    6    7 1   
    11    6   13 ar  
    12    7    8 ar  
    13    7   12 ar  
    14    8    9 ar  
    15    9   10 ar  
    16    9   27 1   
    17   10   11 ar  
    18   10   28 1   
    19   11   12 ar  
    20   11   29 1   
    21   12   30 1   
    22   13   14 ar  
    23   14   15 1   
    24   15   16 1   
    25   15   20 1   
    26   16   17 1   
    27   16   31 1   
    28   16   32 1   
    29   17   18 1   
    30   17   33 1   
    31   17   34 1   
    32   18   19 1   
    33   18   21 1   
    34   19   20 1   
    35   19   35 1   
    36   19   36 1   
    37   20   37 1   
    38   20   38 1   
    39   21   22 1   
    40   21   39 1   
    41   21   40 1   
    42   22   23 1   
    43   22   41 1   
    44   22   42 1   
    45   23   43 1   
@<TRIPOS>SUBSTRUCTURE
     1 PVP         1 TEMP              0 ****  ****    0 ROOT
