@<TRIPOS>MOLECULE
PVP
   43    45     1     0     0
SMALL
bcc


@<TRIPOS>ATOM
      1 CL          0.3550   -3.2890   -0.5670 cl        1 PVP     -0.052400
      2 C8         -0.6850   -1.9650   -0.4390 ca        1 PVP     -0.231200
      3 C9         -2.0790   -2.1290   -0.6490 ca        1 PVP      0.464600
      4 C16        -2.6170   -3.4750   -1.0130 c3        1 PVP     -0.158400
      5 N3         -2.9400   -1.0920   -0.5220 nb        1 PVP     -0.692000
      6 C6         -2.3990    0.1160   -0.1850 cp        1 PVP      0.618000
      7 C5         -3.3590    1.2630   -0.0440 cp        1 PVP      0.364300
      8 N23        -3.2110    2.3240   -0.8740 nb        1 PVP     -0.632000
      9 C1         -4.0800    3.3390   -0.7230 ca        1 PVP      0.393200
     10 C2         -5.1130    3.3520    0.2350 ca        1 PVP     -0.236300
     11 C3         -5.2510    2.2480    1.0750 ca        1 PVP     -0.098000
     12 C4         -4.3640    1.1770    0.9400 ca        1 PVP     -0.208300
     13 N2         -1.0820    0.3820    0.0310 nb        1 PVP     -0.702000
     14 C7         -0.2060   -0.6610   -0.0940 ca        1 PVP      0.646200
     15 N4          1.1860   -0.4860    0.1810 nh        1 PVP     -0.723300
     16 C13         2.0160   -0.4290   -1.0190 c3        1 PVP      0.175300
     17 C12         3.5180   -0.4270   -0.6700 c3        1 PVP      0.167800
     18 N5          3.8770    0.6030    0.2940 n3        1 PVP     -0.742600
     19 C11         3.0170    0.5830    1.4700 c3        1 PVP      0.167800
     20 C10         1.5160    0.5880    1.1140 c3        1 PVP      0.175300
     21 C14         5.2910    0.5800    0.6420 c3        1 PVP      0.126800
     22 C15         6.1840    1.2270   -0.4250 c3        1 PVP      0.135400
     23 O1          6.0200    2.6280   -0.4820 oh        1 PVP     -0.601800
     24 H1         -2.3720   -4.2040   -0.1990 hc        1 PVP      0.065367
     25 H2         -3.7250   -3.4610   -1.1590 hc        1 PVP      0.065367
     26 H3         -2.1350   -3.8210   -1.9610 hc        1 PVP      0.065367
     27 H4         -3.9370    4.1900   -1.4130 h4        1 PVP      0.026100
     28 H5         -5.7890    4.2130    0.3100 ha        1 PVP      0.145000
     29 H6         -6.0470    2.2150    1.8330 ha        1 PVP      0.141000
     30 H7         -4.4470    0.2860    1.5770 ha        1 PVP      0.154000
     31 H8          1.8080   -1.3370   -1.6490 h1        1 PVP      0.056450
     32 H9          1.7820    0.4890   -1.6330 h1        1 PVP      0.056450
     33 H10         3.8050   -1.4580   -0.3070 h1        1 PVP      0.041700
     34 H11         4.0850   -0.2250   -1.6210 h1        1 PVP      0.041700
     35 H13         3.2330   -0.3070    2.1300 h1        1 PVP      0.041700
     36 H14         3.2230    1.5160    2.0650 h1        1 PVP      0.041700
     37 H15         1.2460    1.6030    0.7040 h1        1 PVP      0.056450
     38 H16         0.9330    0.4210    2.0620 h1        1 PVP      0.056450
     39 H17         5.4340    1.1590    1.5980 h1        1 PVP      0.044700
     40 H18         5.6630   -0.4710    0.8160 h1        1 PVP      0.044700
     41 H19         7.2600    1.0790   -0.1370 h1        1 PVP      0.043700
     42 H20         6.0060    0.7750   -1.4370 h1        1 PVP      0.043700
     43 H21         5.0890    2.8040   -0.6640 ho        1 PVP      0.413000
@<TRIPOS>BOND
     1    1    2 1   
     2    2    3 ar  
     3    2   14 ar  
     4    3    4 1   
     5    3    5 ar  
     6    4   24 1   
     7    4   25 1   
     8    4   26 1   
     9    5    6 ar  
    10    6    7 1   
    11    6   13 ar  
    12    7    8 ar  
    13    7   12 ar  
    14    8    9 ar  
    15    9   10 ar  
    16    9   27 1   
    17   10   11 ar  
    18   10   28 1   
    19   11   12 ar  
    20   11   29 1   
    21   12   30 1   
    22   13   14 ar  
    23   14   15 1   
    24   15   16 1   
    25   15   20 1   
    26   16   17 1   
    27   16   31 1   
    28   16   32 1   
    29   17   18 1   
    30   17   33 1   
    31   17   34 1   
    32   18   19 1   
    33   18   21 1   
    34   19   20 1   
    35   19   35 1   
    36   19   36 1   
    37   20   37 1   
    38   20   38 1   
    39   21   22 1   
    40   21   39 1   
    41   21   40 1   
    42   22   23 1   
    43   22   41 1   
    44   22   42 1   
    45   23   43 1   
@<TRIPOS>SUBSTRUCTURE
     1 PVP         1 TEMP              0 ****  ****    0 ROOT
