@<TRIPOS>MOLECULE
PVP
   43    45     1     0     0
SMALL
bcc


@<TRIPOS>ATOM
      1 CL          0.2530    0.6320   -0.2420 cl        1 PVP     -0.052400
      2 C8          1.9290    0.4590   -0.1390 ca        1 PVP     -0.232200
      3 C9          2.5830    0.5680    1.1160 ca        1 PVP      0.464600
      4 C16         1.7800    0.8680    2.3410 c3        1 PVP     -0.158400
      5 N3          3.9210    0.4040    1.2330 nb        1 PVP     -0.692000
      6 C6          4.6070    0.1280    0.0850 cp        1 PVP      0.618000
      7 C5          6.0920   -0.0560    0.2200 cp        1 PVP      0.364300
      8 N23         6.9040    0.8010   -0.4450 nb        1 PVP     -0.632000
      9 C1          8.2290    0.6110   -0.3090 ca        1 PVP      0.393200
     10 C2          8.7990   -0.4130    0.4710 ca        1 PVP     -0.236300
     11 C3          7.9450   -1.2810    1.1510 ca        1 PVP     -0.098000
     12 C4          6.5640   -1.1060    1.0320 ca        1 PVP     -0.208300
     13 N2          4.0820    0.0090   -1.1650 nb        1 PVP     -0.702000
     14 C7          2.7290    0.1730   -1.2910 ca        1 PVP      0.646200
     15 N4          2.0850   -0.0010   -2.5550 nh        1 PVP     -0.723300
     16 C13         1.6910    1.2550   -3.1890 c3        1 PVP      0.175300
     17 C12         0.8400    1.0100   -4.4510 c3        1 PVP      0.167800
     18 N5          1.4670    0.0940   -5.3930 n3        1 PVP     -0.742600
     19 C11         1.9080   -1.1380   -4.7530 c3        1 PVP      0.167800
     20 C10         2.7650   -0.8870   -3.4950 c3        1 PVP      0.175300
     21 C14         0.6450   -0.1550   -6.5680 c3        1 PVP      0.126800
     22 C15         0.7000    0.9840   -7.5950 c3        1 PVP      0.135400
     23 O1          1.9510    1.0580   -8.2440 oh        1 PVP     -0.601800
     24 H1          1.2450    1.8400    2.2040 hc        1 PVP      0.065367
     25 H2          1.0230    0.0590    2.4940 hc        1 PVP      0.065367
     26 H3          2.4190    0.9380    3.2560 hc        1 PVP      0.065367
     27 H4          8.8670    1.3250   -0.8610 h4        1 PVP      0.026100
     28 H5          9.8890   -0.5170    0.5380 ha        1 PVP      0.145000
     29 H6          8.3500   -2.0910    1.7760 ha        1 PVP      0.141000
     30 H7          5.8610   -1.7630    1.5600 ha        1 PVP      0.154000
     31 H8          1.0720    1.8510   -2.4630 h1        1 PVP      0.056450
     32 H9          2.5950    1.8690   -3.4710 h1        1 PVP      0.056450
     33 H10        -0.1820    0.6480   -4.1320 h1        1 PVP      0.041700
     34 H11         0.7090    2.0020   -4.9670 h1        1 PVP      0.041700
     35 H13         1.0370   -1.7990   -4.4750 h1        1 PVP      0.041700
     36 H14         2.5500   -1.6990   -5.4890 h1        1 PVP      0.041700
     37 H15         3.7650   -0.4760   -3.8160 h1        1 PVP      0.056450
     38 H16         2.9350   -1.8760   -2.9860 h1        1 PVP      0.056450
     39 H17        -0.4370   -0.3250   -6.2950 h1        1 PVP      0.044700
     40 H18         1.0220   -1.0870   -7.0780 h1        1 PVP      0.044700
     41 H19         0.4500    1.9720   -7.1240 h1        1 PVP      0.043700
     42 H20        -0.0340    0.7680   -8.4180 h1        1 PVP      0.043700
     43 H21         2.6250    1.1800   -7.5630 ho        1 PVP      0.413000
@<TRIPOS>BOND
     1    1    2 1   
     2    2    3 ar  
     3    2   14 ar  
     4    3    4 1   
     5    3    5 ar  
     6    4   24 1   
     7    4   25 1   
     8    4   26 1   
     9    5    6 ar  
    10    6    7 1   
    11    6   13 ar  
    12    7    8 ar  
    13    7   12 ar  
    14    8    9 ar  
    15    9   10 ar  
    16    9   27 1   
    17   10   11 ar  
    18   10   28 1   
    19   11   12 ar  
    20   11   29 1   
    21   12   30 1   
    22   13   14 ar  
    23   14   15 1   
    24   15   16 1   
    25   15   20 1   
    26   16   17 1   
    27   16   31 1   
    28   16   32 1   
    29   17   18 1   
    30   17   33 1   
    31   17   34 1   
    32   18   19 1   
    33   18   21 1   
    34   19   20 1   
    35   19   35 1   
    36   19   36 1   
    37   20   37 1   
    38   20   38 1   
    39   21   22 1   
    40   21   39 1   
    41   21   40 1   
    42   22   23 1   
    43   22   41 1   
    44   22   42 1   
    45   23   43 1   
@<TRIPOS>SUBSTRUCTURE
     1 PVP         1 TEMP              0 ****  ****    0 ROOT
