@<TRIPOS>MOLECULE
PVS
   19    19     1     0     0
SMALL
bcc


@<TRIPOS>ATOM
      1 S          -0.3450   -0.1350    0.1680 s6        1 PVS      2.844000
      2 O1          0.8400   -0.7220    0.6020 o         1 PVS     -0.924000
      3 O2         -1.2760    0.1710    1.1610 o         1 PVS     -0.924000
      4 C7          0.0140    1.2490   -0.7820 c3        1 PVS     -0.921000
      5 C1         -1.1230   -1.0990   -1.0600 c3        1 PVS     -0.796000
      6 C2         -1.8260   -2.3020   -0.5910 c2        1 PVS     -0.063000
      7 C3         -1.6610   -3.4880   -1.2250 c2        1 PVS     -0.183000
      8 C4         -0.7890   -3.5930   -2.3620 c2        1 PVS      0.005000
      9 C5         -0.0960   -2.5030   -2.8160 c2        1 PVS     -0.216000
     10 C6         -0.1730   -1.2620   -2.1530 c1        1 PVS     -0.131000
     11 H2         -1.9230   -0.4040   -1.5290 h1        1 PVS      0.273000
     12 H3         -2.5070   -2.1870    0.2690 ha        1 PVS      0.156000
     13 H4         -2.1880   -4.3940   -0.8880 ha        1 PVS      0.146000
     14 H5         -0.6910   -4.5810   -2.8430 ha        1 PVS      0.137000
     15 H6          0.5730   -2.5820   -3.6880 ha        1 PVS      0.152000
     16 H7          0.5780    0.8900   -1.7220 h1        1 PVS      0.214000
     17 C8         -1.1820    1.8190   -1.3290 c1        1 PVS     -0.054000
     18 H8          0.7150    1.9500   -0.2590 h1        1 PVS      0.214000
     19 H8A        -1.1790    2.8720   -1.6330 ha        1 PVS      0.072000
@<TRIPOS>BOND
     1    1    2 1   
     2    1    3 1   
     3    1    4 1   
     4    1    5 1   
     5    4   16 1   
     6    4   17 1   
     7    4   18 1   
     8    5    6 1   
     9    5   10 1   
    10    5   11 1   
    11    6    7 1   
    12    6   12 1   
    13    7    8 1   
    14    7   13 1   
    15    8    9 1   
    16    8   14 1   
    17    9   10 1   
    18    9   15 1   
    19   17   19 1   
@<TRIPOS>SUBSTRUCTURE
     1 PVS         1 TEMP              0 ****  ****    0 ROOT
