@<TRIPOS>MOLECULE
PVS
   19    19     1     0     0
SMALL
bcc


@<TRIPOS>ATOM
      1 S           1.1820    0.3480   -0.4420 sy        1 PVS      1.434200
      2 O1          1.4090    1.7180   -0.6440 o         1 PVS     -0.658800
      3 O2          1.6310   -0.5380   -1.4350 o         1 PVS     -0.658800
      4 C7          1.8190   -0.0960    1.0360 ce        1 PVS     -0.464100
      5 C1         -0.4500    0.0870   -0.1390 ca        1 PVS     -0.373500
      6 C2         -1.0600   -1.1230   -0.4940 ca        1 PVS     -0.018500
      7 C3         -2.4160   -1.3350   -0.2610 ca        1 PVS     -0.156000
      8 C4         -3.1850   -0.3320    0.3310 ca        1 PVS     -0.067000
      9 C5         -2.5940    0.8820    0.6810 ca        1 PVS     -0.156000
     10 C6         -1.2370    1.0870    0.4450 ca        1 PVS     -0.018500
     11 H2         -0.4540   -1.9090   -0.9800 ha        1 PVS      0.153500
     12 H3         -2.8810   -2.2910   -0.5480 ha        1 PVS      0.141500
     13 H4         -4.2570   -0.4970    0.5170 ha        1 PVS      0.137000
     14 H5         -3.1990    1.6790    1.1390 ha        1 PVS      0.141500
     15 H6         -0.7730    2.0550    0.7030 ha        1 PVS      0.153500
     16 H7          1.6550    0.6280    1.8560 h4        1 PVS      0.175000
     17 C8          2.5180   -1.1980    1.3000 c2        1 PVS     -0.017000
     18 H8          2.9340   -1.4150    2.2950 ha        1 PVS      0.126500
     19 H8A         2.7280   -1.9580    0.5280 ha        1 PVS      0.126500
@<TRIPOS>BOND
     1    1    2 2   
     2    1    3 2   
     3    1    4 1   
     4    1    5 1   
     5    4   16 1   
     6    4   17 2   
     7    5    6 ar  
     8    5   10 ar  
     9    6    7 ar  
    10    6   11 1   
    11    7    8 ar  
    12    7   12 1   
    13    8    9 ar  
    14    8   13 1   
    15    9   10 ar  
    16    9   14 1   
    17   10   15 1   
    18   17   18 1   
    19   17   19 1   
@<TRIPOS>SUBSTRUCTURE
     1 PVS         1 TEMP              0 ****  ****    0 ROOT
