@<TRIPOS>MOLECULE
PVW
   25    26     1     0     0
SMALL
bcc


@<TRIPOS>ATOM
      1 C1         -0.1130    0.1920    0.3850 c3        1 PVW      0.115700
      2 O2          1.2830    0.1200    0.1530 os        1 PVW     -0.416600
      3 C3          2.0330    0.0180    1.3590 c3        1 PVW      0.107400
      4 C4          3.5130   -0.0880    0.9760 c3        1 PVW      0.084000
      5 N5          4.1010    1.1200    0.4290 n         1 PVW     -0.358300
      6 C6          4.2020    2.2630    1.2200 cc        1 PVW      0.469200
      7 C7          4.6310    3.5110    0.6610 cd        1 PVW     -0.335200
      8 C8          4.9560    3.6510   -0.7460 c         1 PVW      0.748100
      9 O9          5.3100    4.6990   -1.3120 o         1 PVW     -0.614500
     10 N10         4.8400    2.4470   -1.4600 n         1 PVW     -0.542500
     11 C11         4.4470    1.2070   -0.9310 c         1 PVW      0.565400
     12 S12         4.4660   -0.0730   -1.9090 s         1 PVW     -0.486400
     13 N13         4.6570    4.4260    1.7100 na        1 PVW     -0.265900
     14 C14         4.2530    3.7290    2.8440 cd        1 PVW      0.448400
     15 N15         3.9680    2.4220    2.5970 nc        1 PVW     -0.684000
     16 H11C       -0.3670    1.0980    0.9900 h1        1 PVW      0.035033
     17 H12C       -0.5600    0.2640   -0.6380 h1        1 PVW      0.035033
     18 H13C       -0.4740   -0.7280    0.9080 h1        1 PVW      0.035033
     19 H31C        1.8210    0.9010    2.0160 h1        1 PVW      0.045200
     20 H32C        1.7480   -0.9230    1.9040 h1        1 PVW      0.045200
     21 HA1         3.6310   -0.9120    0.2080 h1        1 PVW      0.099700
     22 HB2         4.0900   -0.3510    1.9080 h1        1 PVW      0.099700
     23 H13         4.9160    5.3760    1.6310 hn        1 PVW      0.329700
     24 H10         5.0660    2.4480   -2.4370 hn        1 PVW      0.368500
     25 H14         4.1780    4.1980    3.8340 h5        1 PVW      0.074100
@<TRIPOS>BOND
     1    1    2 1   
     2    1   16 1   
     3    1   17 1   
     4    1   18 1   
     5    2    3 1   
     6    3    4 1   
     7    3   19 1   
     8    3   20 1   
     9    4    5 1   
    10    4   21 1   
    11    4   22 1   
    12    5    6 1   
    13    5   11 1   
    14    6    7 2   
    15    6   15 1   
    16    7    8 1   
    17    7   13 1   
    18    8    9 2   
    19    8   10 1   
    20   10   11 1   
    21   10   24 1   
    22   11   12 2   
    23   13   14 1   
    24   13   23 1   
    25   14   15 2   
    26   14   25 1   
@<TRIPOS>SUBSTRUCTURE
     1 PVW         1 TEMP              0 ****  ****    0 ROOT
