@<TRIPOS>MOLECULE
PVW
   25    26     1     0     0
SMALL
bcc


@<TRIPOS>ATOM
      1 C1         -0.1070    0.1800    0.3720 c3        1 PVW      0.115700
      2 O2          1.2910    0.1150    0.1430 os        1 PVW     -0.416600
      3 C3          2.0380    0.0100    1.3510 c3        1 PVW      0.107400
      4 C4          3.5190   -0.0880    0.9700 c3        1 PVW      0.084000
      5 N5          4.1040    1.1250    0.4290 n         1 PVW     -0.358300
      6 C6          4.1980    2.2640    1.2240 cc        1 PVW      0.469200
      7 C7          4.6230    3.5170    0.6710 cd        1 PVW     -0.335200
      8 C8          4.9500    3.6640   -0.7340 c         1 PVW      0.748100
      9 O9          5.3010    4.7150   -1.2960 o         1 PVW     -0.614500
     10 N10         4.8400    2.4620   -1.4530 n         1 PVW     -0.542500
     11 C11         4.4520    1.2180   -0.9300 c         1 PVW      0.565400
     12 S12         4.4790   -0.0580   -1.9130 s         1 PVW     -0.486400
     13 N13         4.6430    4.4280    1.7240 na        1 PVW     -0.265900
     14 C14         4.2410    3.7240    2.8550 cd        1 PVW      0.448400
     15 N15         3.9620    2.4170    2.6020 nc        1 PVW     -0.684000
     16 H11C       -0.5520    0.2540   -0.6510 h1        1 PVW      0.035033
     17 H12C       -0.3660    1.0810    0.9800 h1        1 PVW      0.035033
     18 H13C       -0.4650   -0.7440    0.8900 h1        1 PVW      0.035033
     19 H31C        1.7550   -0.9340    1.8910 h1        1 PVW      0.045200
     20 H32C        1.8220    0.8900    2.0100 h1        1 PVW      0.045200
     21 HA1         3.6420   -0.9090    0.1990 h1        1 PVW      0.099700
     22 HB2         4.0960   -0.3530    1.9020 h1        1 PVW      0.099700
     23 H13         4.8990    5.3790    1.6490 hn        1 PVW      0.329700
     24 H10         5.0690    2.4680   -2.4300 hn        1 PVW      0.368500
     25 H14         4.1620    4.1890    3.8460 h5        1 PVW      0.074100
@<TRIPOS>BOND
     1    1    2 1   
     2    1   16 1   
     3    1   17 1   
     4    1   18 1   
     5    2    3 1   
     6    3    4 1   
     7    3   19 1   
     8    3   20 1   
     9    4    5 1   
    10    4   21 1   
    11    4   22 1   
    12    5    6 1   
    13    5   11 1   
    14    6    7 2   
    15    6   15 1   
    16    7    8 1   
    17    7   13 1   
    18    8    9 2   
    19    8   10 1   
    20   10   11 1   
    21   10   24 1   
    22   11   12 2   
    23   13   14 1   
    24   13   23 1   
    25   14   15 2   
    26   14   25 1   
@<TRIPOS>SUBSTRUCTURE
     1 PVW         1 TEMP              0 ****  ****    0 ROOT
