@<TRIPOS>MOLECULE
PVW
   25    26     1     0     0
SMALL
bcc


@<TRIPOS>ATOM
      1 C1         -0.1080    0.1770    0.3930 c3        1 PVW      0.115700
      2 O2          1.2880    0.1130    0.1560 os        1 PVW     -0.416600
      3 C3          2.0430    0.0100    1.3590 c3        1 PVW      0.107400
      4 C4          3.5220   -0.0870    0.9700 c3        1 PVW      0.084000
      5 N5          4.1030    1.1250    0.4240 n         1 PVW     -0.358300
      6 C6          4.2010    2.2650    1.2180 cc        1 PVW      0.469200
      7 C7          4.6220    3.5170    0.6610 cd        1 PVW     -0.335200
      8 C8          4.9410    3.6630   -0.7460 c         1 PVW      0.748100
      9 O9          5.2880    4.7140   -1.3110 o         1 PVW     -0.614500
     10 N10         4.8270    2.4610   -1.4640 ns        1 PVW     -0.542500
     11 C11         4.4420    1.2180   -0.9370 c         1 PVW      0.565400
     12 S12         4.4640   -0.0600   -1.9190 s         1 PVW     -0.486400
     13 N13         4.6480    4.4300    1.7130 na        1 PVW     -0.265900
     14 C14         4.2530    3.7270    2.8470 cd        1 PVW      0.448400
     15 N15         3.9730    2.4190    2.5970 nc        1 PVW     -0.684000
     16 H11C       -0.5590    0.2500   -0.6280 h1        1 PVW      0.035033
     17 H12C       -0.3640    1.0800    1.0020 h1        1 PVW      0.035033
     18 H13C       -0.4620   -0.7460    0.9150 h1        1 PVW      0.035033
     19 H31C        1.7640   -0.9330    1.9020 h1        1 PVW      0.045200
     20 H32C        1.8300    0.8910    2.0190 h1        1 PVW      0.045200
     21 HA1         3.6410   -0.9090    0.1990 h1        1 PVW      0.099700
     22 HB2         4.1040   -0.3510    1.8990 h1        1 PVW      0.099700
     23 H13         4.9030    5.3810    1.6360 hn        1 PVW      0.329700
     24 H10         5.0500    2.4660   -2.4420 hn        1 PVW      0.368500
     25 H14         4.1790    4.1930    3.8380 h5        1 PVW      0.074100
@<TRIPOS>BOND
     1    1    2 1   
     2    1   16 1   
     3    1   17 1   
     4    1   18 1   
     5    2    3 1   
     6    3    4 1   
     7    3   19 1   
     8    3   20 1   
     9    4    5 1   
    10    4   21 1   
    11    4   22 1   
    12    5    6 1   
    13    5   11 1   
    14    6    7 2   
    15    6   15 1   
    16    7    8 1   
    17    7   13 1   
    18    8    9 2   
    19    8   10 1   
    20   10   11 1   
    21   10   24 1   
    22   11   12 2   
    23   13   14 1   
    24   13   23 1   
    25   14   15 2   
    26   14   25 1   
@<TRIPOS>SUBSTRUCTURE
     1 PVW         1 TEMP              0 ****  ****    0 ROOT
