@<TRIPOS>MOLECULE
PVW
   25    26     1     0     0
SMALL
bcc


@<TRIPOS>ATOM
      1 C1         -3.3910   -1.4520    1.8500 c3        1 PVW      0.115700
      2 O2         -2.7110   -0.7810    0.8030 os        1 PVW     -0.416600
      3 C3         -2.0770   -1.6790   -0.1020 c3        1 PVW      0.107400
      4 C4         -1.4120   -0.8390   -1.1980 c3        1 PVW      0.084000
      5 N5         -0.2590   -0.0670   -0.7760 n         1 PVW     -0.358300
      6 C6          0.8880   -0.7210   -0.3300 cc        1 PVW      0.469200
      7 C7          1.9800    0.0130    0.2390 cd        1 PVW     -0.335200
      8 C8          1.9370    1.4540    0.4000 c         1 PVW      0.748100
      9 O9          2.8260    2.1590    0.9050 o         1 PVW     -0.614500
     10 N10         0.7510    2.0260   -0.0890 n         1 PVW     -0.542500
     11 C11        -0.3210    1.3340   -0.6740 c         1 PVW      0.565400
     12 S12        -1.5540    2.1960   -1.2520 s         1 PVW     -0.486400
     13 N13         2.9680   -0.9200    0.5430 na        1 PVW     -0.265900
     14 C14         2.4630   -2.1590    0.1610 cd        1 PVW      0.448400
     15 N15         1.2130   -2.0880   -0.3700 nc        1 PVW     -0.684000
     16 H11C       -3.8340   -0.6290    2.4650 h1        1 PVW      0.035033
     17 H12C       -4.1950   -2.1120    1.4390 h1        1 PVW      0.035033
     18 H13C       -2.6770   -2.0590    2.4600 h1        1 PVW      0.035033
     19 H31C       -1.3430   -2.3210    0.4510 h1        1 PVW      0.045200
     20 H32C       -2.8490   -2.3360   -0.5880 h1        1 PVW      0.045200
     21 HA1        -1.0680   -1.5430   -2.0080 h1        1 PVW      0.099700
     22 HB2        -2.1790   -0.1190   -1.6180 h1        1 PVW      0.099700
     23 H13         3.8440   -0.7110    0.9490 hn        1 PVW      0.329700
     24 H10         0.6460    3.0220   -0.0360 hn        1 PVW      0.368500
     25 H14         3.0280   -3.0930    0.2800 h5        1 PVW      0.074100
@<TRIPOS>BOND
     1    1    2 1   
     2    1   16 1   
     3    1   17 1   
     4    1   18 1   
     5    2    3 1   
     6    3    4 1   
     7    3   19 1   
     8    3   20 1   
     9    4    5 1   
    10    4   21 1   
    11    4   22 1   
    12    5    6 1   
    13    5   11 1   
    14    6    7 2   
    15    6   15 1   
    16    7    8 1   
    17    7   13 1   
    18    8    9 2   
    19    8   10 1   
    20   10   11 1   
    21   10   24 1   
    22   11   12 2   
    23   13   14 1   
    24   13   23 1   
    25   14   15 2   
    26   14   25 1   
@<TRIPOS>SUBSTRUCTURE
     1 PVW         1 TEMP              0 ****  ****    0 ROOT
