@<TRIPOS>MOLECULE
PVW
   25    23     1     0     0
SMALL
bcc


@<TRIPOS>ATOM
      1 C1         -3.7660   -2.1800    0.2650 c3        1 PVW      0.118700
      2 O2         -2.4380   -2.2410   -0.2470 os        1 PVW     -0.418600
      3 C3         -1.6800   -1.0630   -0.0220 c3        1 PVW      0.111400
      4 C4         -0.1440   -1.4030   -0.0960 c3        1 PVW      0.083000
      5 N5          0.6030   -0.2000   -0.4390 n         1 PVW     -0.285000
      6 C6          1.1540    0.6440    0.6260 ce        1 PVW      0.138100
      7 C7          1.9730    1.6910    0.3100 c1        1 PVW     -0.161900
      8 C8          2.3130    1.9810   -1.1370 c1        1 PVW      0.617500
      9 O9          2.9530    3.0270   -1.4340 o         1 PVW     -0.568500
     10 N10         1.7860    1.1730   -2.1540 n         1 PVW     -0.475500
     11 C11         0.9290    0.0760   -1.8240 c         1 PVW      0.557400
     12 S12         0.3100   -0.8820   -3.0270 s         1 PVW     -0.497400
     13 N13         2.3450    2.3020    1.4710 n1        1 PVW     -0.152000
     14 C14         1.7600    1.6390    2.5020 c1        1 PVW      0.181400
     15 N15         1.0210    0.6100    1.9790 ne        1 PVW     -0.508000
     16 H11C       -4.3090   -2.9350   -0.1190 h1        1 PVW      0.036033
     17 H12C       -4.1760   -1.3180    0.0150 h1        1 PVW      0.036033
     18 H13C       -3.7440   -2.2580    1.2240 h1        1 PVW      0.036033
     19 H31C       -1.9010   -0.3960   -0.7100 h1        1 PVW      0.043200
     20 H32C       -1.8960   -0.6990    0.8710 h1        1 PVW      0.043200
     21 HA1         0.0050   -2.0850   -0.7790 h1        1 PVW      0.102700
     22 HB2         0.1620   -1.7400    0.7730 h1        1 PVW      0.102700
     23 H13         2.9020    3.0450    1.5450 DU        1 PVW      0.246500
     24 H10         1.9950    1.3490   -3.0420 hn        1 PVW      0.369500
     25 H14         1.8410    1.8640    3.4490 DU        1 PVW      0.246500
@<TRIPOS>BOND
     1    1    2 1   
     2    1   16 1   
     3    1   17 1   
     4    1   18 1   
     5    2    3 1   
     6    3    4 1   
     7    3   19 1   
     8    3   20 1   
     9    4    5 1   
    10    4   21 1   
    11    4   22 1   
    12    5    6 1   
    13    5   11 1   
    14    6    7 2   
    15    6   15 1   
    16    7   13 2   
    17    8    9 2   
    18    8   10 2   
    19   10   11 1   
    20   10   24 1   
    21   11   12 2   
    22   13   14 2   
    23   14   15 2   
@<TRIPOS>SUBSTRUCTURE
     1 PVW         1 TEMP              0 ****  ****    0 ROOT
