@<TRIPOS>MOLECULE
PVZ
   50    48     1     0     0
SMALL
bcc


@<TRIPOS>ATOM
      1 C01         2.0610    2.4810   -0.0240 c3        1 PVZ     -0.203000
      2 C02         3.2440    1.6090    0.3050 c3        1 PVZ     -0.164000
      3 C03         3.4010    1.4110    1.7980 c3        1 PVZ     -0.146000
      4 C04         4.6090    0.5560    2.1130 c3        1 PVZ     -0.185000
      5 C05         4.7780    0.3550    3.6050 c3        1 PVZ     -0.131000
      6 C06         6.0960   -0.3320    3.8880 c3        1 PVZ     -0.190000
      7 C07         6.4840   -0.2850    5.3510 c3        1 PVZ     -0.138000
      8 C08         7.9680   -0.5340    5.5070 c3        1 PVZ     -0.189000
      9 C09         8.4170   -0.5220    6.9640 c3        1 PVZ     -0.106000
     10 N10         9.8600   -0.4420    7.2250 na        1 PVZ     -0.112000
     11 C11        10.6130   -1.4520    6.5030 c2        1 PVZ     -0.260000
     12 C12        11.5710   -0.8850    5.7050 c2        1 PVZ     -0.139000
     13 N13        11.5750    0.5450    5.8520 na        1 PVZ     -0.084000
     14 C14        10.5090    0.8030    6.8130 c2        1 PVZ     -0.484000
     15 C15        11.5110    1.3190    4.6020 c3        1 PVZ     -0.179000
     16 C16        12.0410    0.7010    3.3360 c1        1 PVZ     -0.061000
     17 O17        11.1190    0.7780    2.3790 oh        1 PVZ     -0.303000
     18 P18         9.1700    1.6370    1.0190 p3        1 PVZ      2.446500
     19 O19         9.9500    0.6710    0.2210 o         1 PVZ     -1.151500
     20 O20         7.8660    1.2170    1.5780 o         1 PVZ     -1.151500
     21 O21         9.4740    3.0790    0.9730 o         1 PVZ     -1.151500
     22 P22        14.4260    0.0190    2.9270 p3        1 PVZ      2.446500
     23 O23        15.1430    1.2170    3.4220 o         1 PVZ     -1.151500
     24 O24        14.4940   -1.2440    3.6980 o         1 PVZ     -1.151500
     25 O25        14.1260   -0.0620    1.4780 o         1 PVZ     -1.151500
     26 H01         2.1770    3.4910    0.4400 hc        1 PVZ      0.054333
     27 H01A        1.1150    2.0280    0.3610 hc        1 PVZ      0.054333
     28 H01B        1.9630    2.6110   -1.1290 hc        1 PVZ      0.054333
     29 H02         3.1260    0.6100   -0.1930 hc        1 PVZ      0.085500
     30 H02A        4.1830    2.0700   -0.1020 hc        1 PVZ      0.085500
     31 H03         2.4730    0.9350    2.2130 hc        1 PVZ      0.056500
     32 H03A        3.5110    2.4100    2.2960 hc        1 PVZ      0.056500
     33 H04         4.5040   -0.4410    1.6110 hc        1 PVZ      0.118000
     34 H04A        5.5510    1.0330    1.7070 hc        1 PVZ      0.118000
     35 H05         3.9220   -0.2430    4.0170 hc        1 PVZ      0.044500
     36 H05A        4.7580    1.3530    4.1180 hc        1 PVZ      0.044500
     37 H06         6.0410   -1.3990    3.5480 hc        1 PVZ      0.117000
     38 H06A        6.9030    0.1690    3.2710 hc        1 PVZ      0.117000
     39 H07         5.8980   -1.0460    5.9320 hc        1 PVZ      0.042000
     40 H07A        6.2300    0.7200    5.7810 hc        1 PVZ      0.042000
     41 H08         8.5340    0.2580    4.9440 hc        1 PVZ      0.093000
     42 H08A        8.2360   -1.5190    5.0420 hc        1 PVZ      0.093000
     43 H09         8.0250   -1.4540    7.4630 h1        1 PVZ      0.029000
     44 H09A        7.9440    0.3600    7.4790 h1        1 PVZ      0.029000
     45 H11        10.4130   -2.5040    6.6920 h4        1 PVZ      0.099000
     46 H12        12.3400   -1.3710    5.0970 h4        1 PVZ      0.175000
     47 H14         9.8180    1.6320    6.5530 h5        1 PVZ      0.025000
     48 H15        10.4650    1.7200    4.4360 h1        1 PVZ      0.070500
     49 H15A       12.1820    2.2120    4.7840 h1        1 PVZ      0.070500
     50 HO17       11.4730    0.4070    1.5300 ho        1 PVZ      0.315000
@<TRIPOS>BOND
     1    1    2 1   
     2    1   26 1   
     3    1   27 1   
     4    1   28 1   
     5    2    3 1   
     6    2   29 1   
     7    2   30 1   
     8    3    4 1   
     9    3   31 1   
    10    3   32 1   
    11    4    5 1   
    12    4   33 1   
    13    4   34 1   
    14    5    6 1   
    15    5   35 1   
    16    5   36 1   
    17    6    7 1   
    18    6   37 1   
    19    6   38 1   
    20    7    8 1   
    21    7   39 1   
    22    7   40 1   
    23    8    9 1   
    24    8   41 1   
    25    8   42 1   
    26    9   10 1   
    27    9   43 1   
    28    9   44 1   
    29   10   11 1   
    30   10   14 1   
    31   11   12 1   
    32   11   45 1   
    33   12   13 1   
    34   12   46 1   
    35   13   14 1   
    36   13   15 1   
    37   14   47 1   
    38   15   16 1   
    39   15   48 1   
    40   15   49 1   
    41   16   17 1   
    42   17   50 1   
    43   18   19 1   
    44   18   20 1   
    45   18   21 1   
    46   22   23 1   
    47   22   24 1   
    48   22   25 1   
@<TRIPOS>SUBSTRUCTURE
     1 PVZ         1 TEMP              0 ****  ****    0 ROOT
