@<TRIPOS>MOLECULE
PW1
   29    30     1     0     0
SMALL
bcc


@<TRIPOS>ATOM
      1 C6          0.0890   -0.0870   -0.0220 ca        1 PW1     -0.050000
      2 C5          1.4570    0.0140    0.1990 ca        1 PW1     -0.160000
      3 C4          1.9560    0.2030    1.5030 ca        1 PW1      0.190900
      4 F           3.2820    0.2700    1.7090 f         1 PW1     -0.082900
      5 C3          1.0530    0.3210    2.5910 ca        1 PW1      0.057100
      6 C8         -0.3330    0.2190    2.3490 ca        1 PW1      0.142900
      7 C7         -0.8170   -0.0020    1.0390 ca        1 PW1     -0.238300
      8 C2         -2.2680   -0.2330    0.8110 c3        1 PW1      0.181100
      9 N3         -3.0960    0.9510    1.2140 n4        1 PW1     -0.846600
     10 C13         3.8930    2.3380    5.7850 ca        1 PW1     -0.100500
     11 C12         3.1720    1.2550    5.2850 ca        1 PW1     -0.145000
     12 C11         2.2210    1.4930    4.2840 ca        1 PW1      0.075100
     13 C10         1.9870    2.7740    3.7760 ca        1 PW1     -0.145000
     14 O12         1.4590    0.3750    3.9080 os        1 PW1     -0.226200
     15 C9          2.7270    3.8410    4.2860 ca        1 PW1     -0.100500
     16 F2         -1.2130    0.3230    3.3740 f         1 PW1     -0.129900
     17 C14         3.6750    3.6250    5.2870 ca        1 PW1     -0.126000
     18 H21        -2.6210   -1.1100    1.4330 hx        1 PW1      0.118700
     19 H22        -2.4790   -0.4460   -0.2780 hx        1 PW1      0.118700
     20 H6         -0.2780   -0.2550   -1.0480 ha        1 PW1      0.159000
     21 H5          2.1680   -0.0700   -0.6400 ha        1 PW1      0.185000
     22 H13         4.6420    2.1730    6.5740 ha        1 PW1      0.148500
     23 H14         4.2540    4.4720    5.6860 ha        1 PW1      0.150000
     24 H9          2.5590    4.8560    3.8960 ha        1 PW1      0.148500
     25 H10         1.2400    2.9360    2.9890 ha        1 PW1      0.142500
     26 H31        -4.0880    0.7610    1.0470 hn        1 PW1      0.463467
     27 H32        -2.9530    1.1440    2.2160 hn        1 PW1      0.463467
     28 H33        -2.8150    1.7790    0.6800 hn        1 PW1      0.463467
     29 H12         3.3310    0.2360    5.6660 ha        1 PW1      0.142500
@<TRIPOS>BOND
     1    1    2 ar  
     2    1    7 ar  
     3    1   20 1   
     4    2    3 ar  
     5    2   21 1   
     6    3    4 1   
     7    3    5 ar  
     8    5    6 ar  
     9    5   14 1   
    10    6    7 ar  
    11    6   16 1   
    12    7    8 1   
    13    8    9 1   
    14    8   18 1   
    15    8   19 1   
    16    9   26 1   
    17    9   27 1   
    18    9   28 1   
    19   10   11 ar  
    20   10   17 ar  
    21   10   22 1   
    22   11   12 ar  
    23   11   29 1   
    24   12   13 ar  
    25   12   14 1   
    26   13   15 ar  
    27   13   25 1   
    28   15   17 ar  
    29   15   24 1   
    30   17   23 1   
@<TRIPOS>SUBSTRUCTURE
     1 PW1         1 TEMP              0 ****  ****    0 ROOT
