@<TRIPOS>MOLECULE
PW1
   29    30     1     0     0
SMALL
bcc


@<TRIPOS>ATOM
      1 C6          0.0540   -0.0710   -0.0190 ca        1 PW1     -0.050000
      2 C5          1.4240    0.0400    0.1790 ca        1 PW1     -0.160000
      3 C4          1.9430    0.2230    1.4760 ca        1 PW1      0.190900
      4 F           3.2730    0.3000    1.6600 f         1 PW1     -0.082900
      5 C3          1.0580    0.3250    2.5800 ca        1 PW1      0.057100
      6 C8         -0.3310    0.2120    2.3610 ca        1 PW1      0.142900
      7 C7         -0.8350   -0.0020    1.0570 ca        1 PW1     -0.238300
      8 C2         -2.2880   -0.2440    0.8510 c3        1 PW1      0.181100
      9 N3         -3.1190    0.9290    1.2780 nz        1 PW1     -0.846600
     10 C13         3.9410    2.3380    5.7370 ca        1 PW1     -0.100500
     11 C12         3.2190    1.2530    5.2420 ca        1 PW1     -0.144500
     12 C11         2.2470    1.4930    4.2610 ca        1 PW1      0.075100
     13 C10         1.9930    2.7760    3.7700 ca        1 PW1     -0.144500
     14 O12         1.4860    0.3720    3.8900 os        1 PW1     -0.226200
     15 C9          2.7340    3.8440    4.2750 ca        1 PW1     -0.100500
     16 F2         -1.1940    0.3010    3.4010 f         1 PW1     -0.129900
     17 C14         3.7030    3.6270    5.2560 ca        1 PW1     -0.125000
     18 H21        -2.5150   -0.4510   -0.2350 hx        1 PW1      0.118700
     19 H22        -2.6220   -1.1290    1.4730 hx        1 PW1      0.118700
     20 H6         -0.3290   -0.2350   -1.0410 ha        1 PW1      0.159000
     21 H5          2.1220   -0.0310   -0.6720 ha        1 PW1      0.185000
     22 H13         4.7060    2.1710    6.5110 ha        1 PW1      0.148500
     23 H14         4.2830    4.4750    5.6510 ha        1 PW1      0.150000
     24 H9          2.5510    4.8610    3.8970 ha        1 PW1      0.148500
     25 H10         1.2290    2.9390    2.9980 ha        1 PW1      0.142500
     26 H31        -4.1120    0.7320    1.1270 hn        1 PW1      0.463467
     27 H32        -2.8540    1.7640    0.7460 hn        1 PW1      0.463467
     28 H33        -2.9600    1.1160    2.2780 hn        1 PW1      0.463467
     29 H12         3.3930    0.2320    5.6110 ha        1 PW1      0.142500
@<TRIPOS>BOND
     1    1    2 ar  
     2    1    7 ar  
     3    1   20 1   
     4    2    3 ar  
     5    2   21 1   
     6    3    4 1   
     7    3    5 ar  
     8    5    6 ar  
     9    5   14 1   
    10    6    7 ar  
    11    6   16 1   
    12    7    8 1   
    13    8    9 1   
    14    8   18 1   
    15    8   19 1   
    16    9   26 1   
    17    9   27 1   
    18    9   28 1   
    19   10   11 ar  
    20   10   17 ar  
    21   10   22 1   
    22   11   12 ar  
    23   11   29 1   
    24   12   13 ar  
    25   12   14 1   
    26   13   15 ar  
    27   13   25 1   
    28   15   17 ar  
    29   15   24 1   
    30   17   23 1   
@<TRIPOS>SUBSTRUCTURE
     1 PW1         1 TEMP              0 ****  ****    0 ROOT
