@<TRIPOS>MOLECULE
PW1
   29    30     1     0     0
SMALL
bcc


@<TRIPOS>ATOM
      1 C6         -0.0880    0.0020   -0.1280 ca        1 PW1     -0.043000
      2 C5          1.2970    0.0730   -0.2100 ca        1 PW1     -0.166000
      3 C4          2.0720    0.1700    0.9640 ca        1 PW1      0.203900
      4 F           3.4120    0.2340    0.8810 f         1 PW1     -0.080900
      5 C3          1.4340    0.2000    2.2290 ca        1 PW1      0.048100
      6 C8          0.0290    0.1220    2.2950 ca        1 PW1      0.150900
      7 C7         -0.7370    0.0190    1.1100 ca        1 PW1     -0.243300
      8 C2         -2.2100   -0.1650    1.1910 c3        1 PW1      0.181100
      9 N3         -2.8860    1.0080    1.8380 n4        1 PW1     -0.846600
     10 C13         2.7890    2.5250    6.0870 ca        1 PW1     -0.104500
     11 C12         2.4340    1.3600    5.4070 ca        1 PW1     -0.146000
     12 C11         2.4470    1.3760    4.0060 ca        1 PW1      0.070100
     13 C10         2.8000    2.5190    3.2840 ca        1 PW1     -0.146000
     14 O12         2.1860    0.1410    3.3880 os        1 PW1     -0.227200
     15 C9          3.1430    3.6750    3.9850 ca        1 PW1     -0.104500
     16 F2         -0.6050    0.1500    3.4910 f         1 PW1     -0.131900
     17 C14         3.1370    3.6780    5.3810 ca        1 PW1     -0.128000
     18 H21        -2.6600   -0.3000    0.1640 hx        1 PW1      0.118700
     19 H22        -2.4510   -1.0740    1.8220 hx        1 PW1      0.118700
     20 H6         -0.6760   -0.0860   -1.0570 ha        1 PW1      0.159000
     21 H5          1.8040    0.0450   -1.1890 ha        1 PW1      0.186000
     22 H13         2.7980    2.5290    7.1880 ha        1 PW1      0.149000
     23 H14         3.4170    4.5910    5.9280 ha        1 PW1      0.150000
     24 H9          3.4320    4.5820    3.4330 ha        1 PW1      0.149000
     25 H10         2.8280    2.4970    2.1860 ha        1 PW1      0.147000
     26 H31        -3.8970    0.8540    1.8800 hn        1 PW1      0.463133
     27 H32        -2.6960    1.8630    1.3070 hn        1 PW1      0.463133
     28 H33        -2.5220    1.1290    2.7930 hn        1 PW1      0.463133
     29 H12         2.1710    0.4390    5.9470 ha        1 PW1      0.147000
@<TRIPOS>BOND
     1    1    2 ar  
     2    1    7 ar  
     3    1   20 1   
     4    2    3 ar  
     5    2   21 1   
     6    3    4 1   
     7    3    5 ar  
     8    5    6 ar  
     9    5   14 1   
    10    6    7 ar  
    11    6   16 1   
    12    7    8 1   
    13    8    9 1   
    14    8   18 1   
    15    8   19 1   
    16    9   26 1   
    17    9   27 1   
    18    9   28 1   
    19   10   11 ar  
    20   10   17 ar  
    21   10   22 1   
    22   11   12 ar  
    23   11   29 1   
    24   12   13 ar  
    25   12   14 1   
    26   13   15 ar  
    27   13   25 1   
    28   15   17 ar  
    29   15   24 1   
    30   17   23 1   
@<TRIPOS>SUBSTRUCTURE
     1 PW1         1 TEMP              0 ****  ****    0 ROOT
