@<TRIPOS>MOLECULE
PW1
   29    30     1     0     0
SMALL
bcc


@<TRIPOS>ATOM
      1 C6          2.9630   -0.9890    0.7010 ca        1 PW1     -0.043000
      2 C5          2.0580   -2.0250    0.8950 ca        1 PW1     -0.166000
      3 C4          0.7450   -1.9230    0.3910 ca        1 PW1      0.203900
      4 F          -0.1270   -2.9280    0.5770 f         1 PW1     -0.080900
      5 C3          0.3490   -0.7570   -0.3120 ca        1 PW1      0.048100
      6 C8          1.2810    0.2820   -0.5040 ca        1 PW1      0.150900
      7 C7          2.5970    0.1650    0.0030 ca        1 PW1     -0.243300
      8 C2          3.6030    1.2190   -0.2920 c3        1 PW1      0.181100
      9 N3          3.2140    2.5430    0.2960 n4        1 PW1     -0.846600
     10 C13        -3.8930    1.2730   -0.3670 ca        1 PW1     -0.104500
     11 C12        -2.7920    0.6950   -0.9970 ca        1 PW1     -0.146000
     12 C11        -1.9050   -0.0650   -0.2240 ca        1 PW1      0.070100
     13 C10        -2.0940   -0.2500    1.1490 ca        1 PW1     -0.146000
     14 O12        -0.8810   -0.7090   -0.9400 os        1 PW1     -0.227200
     15 C9         -3.1970    0.3460    1.7580 ca        1 PW1     -0.104500
     16 F2          0.9270    1.4070   -1.1700 f         1 PW1     -0.131900
     17 C14        -4.0930    1.1050    1.0040 ca        1 PW1     -0.128000
     18 H21         4.6160    0.9410    0.1220 hx        1 PW1      0.118700
     19 H22         3.6900    1.3680   -1.4110 hx        1 PW1      0.118700
     20 H6          3.9890   -1.0930    1.0930 ha        1 PW1      0.159000
     21 H5          2.3560   -2.9380    1.4360 ha        1 PW1      0.186000
     22 H13        -4.6090    1.8630   -0.9600 ha        1 PW1      0.149000
     23 H14        -4.9660    1.5660    1.4910 ha        1 PW1      0.150000
     24 H9         -3.3660    0.2040    2.8370 ha        1 PW1      0.149000
     25 H10        -1.3970   -0.8730    1.7270 ha        1 PW1      0.147000
     26 H31         2.3100    2.8400   -0.0970 hn        1 PW1      0.463133
     27 H32         3.1160    2.4640    1.3130 hn        1 PW1      0.463133
     28 H33         3.9240    3.2480    0.0780 hn        1 PW1      0.463133
     29 H12        -2.6280    0.8050   -2.0790 ha        1 PW1      0.147000
@<TRIPOS>BOND
     1    1    2 ar  
     2    1    7 ar  
     3    1   20 1   
     4    2    3 ar  
     5    2   21 1   
     6    3    4 1   
     7    3    5 ar  
     8    5    6 ar  
     9    5   14 1   
    10    6    7 ar  
    11    6   16 1   
    12    7    8 1   
    13    8    9 1   
    14    8   18 1   
    15    8   19 1   
    16    9   26 1   
    17    9   27 1   
    18    9   28 1   
    19   10   11 ar  
    20   10   17 ar  
    21   10   22 1   
    22   11   12 ar  
    23   11   29 1   
    24   12   13 ar  
    25   12   14 1   
    26   13   15 ar  
    27   13   25 1   
    28   15   17 ar  
    29   15   24 1   
    30   17   23 1   
@<TRIPOS>SUBSTRUCTURE
     1 PW1         1 TEMP              0 ****  ****    0 ROOT
