@<TRIPOS>MOLECULE
PW3
   20    20     1     0     0
SMALL
bcc


@<TRIPOS>ATOM
      1 C01        -0.0310   -0.0440   -0.0230 c3        1 PW3     -0.171100
      2 C02         1.4720    0.0620   -0.0250 c         1 PW3      0.662100
      3 N03         2.1740   -0.1080    1.1690 n         1 PW3     -0.474800
      4 C04         3.6070    0.0730    1.2050 c3        1 PW3      0.071000
      5 C05         4.0450    1.3220    2.0040 c3        1 PW3      0.072000
      6 N06         3.3190    1.5080    3.2280 ns        1 PW3     -0.566900
      7 C07         2.0780    0.9540    3.4430 c         1 PW3      0.673500
      8 C08         1.5350   -0.0910    2.4580 c3        1 PW3      0.022000
      9 O09         1.4170    1.2490    4.4580 o         1 PW3     -0.642500
     10 O10         2.0980    0.2450   -1.0870 o         1 PW3     -0.599100
     11 H01        -0.3710   -0.9760    0.4880 hc        1 PW3      0.070700
     12 H01A       -0.3830   -0.0650   -1.0850 hc        1 PW3      0.070700
     13 H01B       -0.4800    0.8440    0.4860 hc        1 PW3      0.070700
     14 H04         4.0080    0.1680    0.1560 h1        1 PW3      0.077200
     15 H04A        4.0590   -0.8440    1.6810 h1        1 PW3      0.077200
     16 H05         5.1410    1.2120    2.2450 h1        1 PW3      0.048200
     17 H05A        3.9270    2.2350    1.3500 h1        1 PW3      0.048200
     18 HN06        3.6420    2.2080    3.8550 hn        1 PW3      0.324500
     19 H08         1.6870   -1.0960    2.9520 h1        1 PW3      0.082200
     20 H08A        0.4280    0.0910    2.3670 h1        1 PW3      0.082200
@<TRIPOS>BOND
     1    1    2 1   
     2    1   11 1   
     3    1   12 1   
     4    1   13 1   
     5    2    3 1   
     6    2   10 2   
     7    3    4 1   
     8    3    8 1   
     9    4    5 1   
    10    4   14 1   
    11    4   15 1   
    12    5    6 1   
    13    5   16 1   
    14    5   17 1   
    15    6    7 1   
    16    6   18 1   
    17    7    8 1   
    18    7    9 2   
    19    8   19 1   
    20    8   20 1   
@<TRIPOS>SUBSTRUCTURE
     1 PW3         1 TEMP              0 ****  ****    0 ROOT
