@<TRIPOS>MOLECULE
PW3
   20    20     1     0     0
SMALL
bcc


@<TRIPOS>ATOM
      1 C01        -0.0330   -0.0470   -0.0210 c3        1 PW3     -0.171100
      2 C02         1.4710    0.0580   -0.0230 c         1 PW3      0.662100
      3 N03         2.1740   -0.1090    1.1710 n         1 PW3     -0.474800
      4 C04         3.6070    0.0720    1.2060 c3        1 PW3      0.071000
      5 C05         4.0460    1.3220    2.0010 c3        1 PW3      0.072000
      6 N06         3.3200    1.5120    3.2240 n         1 PW3     -0.566900
      7 C07         2.0790    0.9580    3.4420 c         1 PW3      0.673500
      8 C08         1.5350   -0.0880    2.4590 c3        1 PW3      0.022000
      9 O09         1.4180    1.2560    4.4560 o         1 PW3     -0.642500
     10 O10         2.0960    0.2380   -1.0870 o         1 PW3     -0.599100
     11 H01        -0.3850   -0.0700   -1.0820 hc        1 PW3      0.070700
     12 H01A       -0.3720   -0.9780    0.4930 hc        1 PW3      0.070700
     13 H01B       -0.4810    0.8420    0.4860 hc        1 PW3      0.070700
     14 H04         4.0070    0.1630    0.1560 h1        1 PW3      0.077200
     15 H04A        4.0580   -0.8440    1.6840 h1        1 PW3      0.077200
     16 H05         5.1420    1.2120    2.2420 h1        1 PW3      0.048200
     17 H05A        3.9280    2.2340    1.3450 h1        1 PW3      0.048200
     18 HN06        3.6440    2.2130    3.8490 hn        1 PW3      0.324500
     19 H08         0.4280    0.0940    2.3690 h1        1 PW3      0.082200
     20 H08A        1.6870   -1.0920    2.9560 h1        1 PW3      0.082200
@<TRIPOS>BOND
     1    1    2 1   
     2    1   11 1   
     3    1   12 1   
     4    1   13 1   
     5    2    3 1   
     6    2   10 2   
     7    3    4 1   
     8    3    8 1   
     9    4    5 1   
    10    4   14 1   
    11    4   15 1   
    12    5    6 1   
    13    5   16 1   
    14    5   17 1   
    15    6    7 1   
    16    6   18 1   
    17    7    8 1   
    18    7    9 2   
    19    8   19 1   
    20    8   20 1   
@<TRIPOS>SUBSTRUCTURE
     1 PW3         1 TEMP              0 ****  ****    0 ROOT
