@<TRIPOS>MOLECULE
PWF
   40    41     1     0     0
SMALL
bcc


@<TRIPOS>ATOM
      1 CAA         0.3110    0.1390    0.4230 c3        1 PWF      0.120700
      2 OAP         1.2980   -0.7770    0.8820 os        1 PWF     -0.348900
      3 CAV         1.8230   -0.5190    2.1390 ca        1 PWF      0.033100
      4 CAM         1.6670    0.6740    2.8380 ca        1 PWF     -0.141000
      5 CAT         2.5890   -1.5750    2.6910 ca        1 PWF      0.128100
      6 OAC         2.7880   -2.7680    2.0430 oh        1 PWF     -0.492100
      7 CAL         3.1870   -1.4130    3.9450 ca        1 PWF     -0.144000
      8 CAK         3.0170   -0.2200    4.6440 ca        1 PWF     -0.091000
      9 CAS         2.2590    0.8250    4.1050 ca        1 PWF     -0.100800
     10 CAE         2.0910    2.0980    4.7880 ce        1 PWF     -0.025200
     11 CAD         1.8310    2.3330    6.0790 cf        1 PWF     -0.207200
     12 CAR         1.6610    1.3370    7.1430 c         1 PWF      0.642300
     13 OAB         2.4200    0.4370    7.5130 o         1 PWF     -0.545000
     14 OAQ         0.4890    1.5170    7.8320 os        1 PWF     -0.437900
     15 CAN         0.2040    0.6230    8.9140 c3        1 PWF      0.142400
     16 CAO         0.9220    1.0730   10.1780 c3        1 PWF     -0.068100
     17 CAU         0.5810    0.1920   11.3250 ca        1 PWF     -0.081300
     18 CAI        -0.2780    0.6390   12.3350 ca        1 PWF     -0.125500
     19 CAG        -0.5850   -0.1900   13.4140 ca        1 PWF     -0.129000
     20 CAF        -0.0370   -1.4690   13.4920 ca        1 PWF     -0.130000
     21 CAH         0.8210   -1.9200   12.4890 ca        1 PWF     -0.129000
     22 CAJ         1.1300   -1.0930   11.4100 ca        1 PWF     -0.125500
     23 H1          0.7740    1.1340    0.2140 h1        1 PWF      0.045700
     24 H2         -0.5160    0.2390    1.1660 h1        1 PWF      0.045700
     25 H3         -0.0590   -0.3300   -0.5250 h1        1 PWF      0.045700
     26 H4          1.0790    1.4990    2.4110 ha        1 PWF      0.139000
     27 H5          2.2930   -2.7460    1.2090 ho        1 PWF      0.438000
     28 H6          3.7840   -2.2350    4.3670 ha        1 PWF      0.158000
     29 H7          3.4860   -0.1030    5.6370 ha        1 PWF      0.169000
     30 H8          2.1690    2.9750    4.1140 ha        1 PWF      0.132000
     31 H10         1.6950    3.3690    6.4390 ha        1 PWF      0.155000
     32 H12         0.4970   -0.4240    8.6410 h1        1 PWF      0.068200
     33 H13        -0.9100    0.7050    9.0220 h1        1 PWF      0.068200
     34 H14         2.0300    1.0430    9.9900 hc        1 PWF      0.063700
     35 H15         0.6460    2.1380   10.4010 hc        1 PWF      0.063700
     36 H16        -0.7120    1.6490   12.2790 ha        1 PWF      0.135500
     37 H17        -1.2600    0.1690   14.2050 ha        1 PWF      0.131500
     38 H18        -0.2790   -2.1220   14.3440 ha        1 PWF      0.131000
     39 H19         1.2570   -2.9280   12.5490 ha        1 PWF      0.131500
     40 H20         1.8100   -1.4460   10.6190 ha        1 PWF      0.135500
@<TRIPOS>BOND
     1    1    2 1   
     2    1   23 1   
     3    1   24 1   
     4    1   25 1   
     5    2    3 1   
     6    3    4 ar  
     7    3    5 ar  
     8    4    9 ar  
     9    4   26 1   
    10    5    6 1   
    11    5    7 ar  
    12    6   27 1   
    13    7    8 ar  
    14    7   28 1   
    15    8    9 ar  
    16    8   29 1   
    17    9   10 1   
    18   10   11 2   
    19   10   30 1   
    20   11   12 1   
    21   11   31 1   
    22   12   13 2   
    23   12   14 1   
    24   14   15 1   
    25   15   16 1   
    26   15   32 1   
    27   15   33 1   
    28   16   17 1   
    29   16   34 1   
    30   16   35 1   
    31   17   18 ar  
    32   17   22 ar  
    33   18   19 ar  
    34   18   36 1   
    35   19   20 ar  
    36   19   37 1   
    37   20   21 ar  
    38   20   38 1   
    39   21   22 ar  
    40   21   39 1   
    41   22   40 1   
@<TRIPOS>SUBSTRUCTURE
     1 PWF         1 TEMP              0 ****  ****    0 ROOT
