@<TRIPOS>MOLECULE
PWH
   34    34     1     0     0
SMALL
bcc


@<TRIPOS>ATOM
      1 CAA         2.1910   -1.2260   -0.9650 c3        1 PWH     -0.062400
      2 CAN         1.1630   -0.1830   -0.7290 c2        1 PWH     -0.109400
      3 CAB         0.1710   -0.4720    0.3340 c3        1 PWH     -0.062400
      4 CAH         1.1270    0.9580   -1.4340 c2        1 PWH     -0.188200
      5 CAL         2.1090    1.2630   -2.5040 c3        1 PWH      0.175600
      6 OAM         1.7780    2.5710   -3.0100 os        1 PWH     -0.434900
      7 CAO         2.5650    3.0440   -4.0270 c         1 PWH      0.644300
      8 OAC         3.4980    2.3330   -4.4110 o         1 PWH     -0.550000
      9 CAF         2.1690    4.3930   -4.4460 ce        1 PWH     -0.206200
     10 CAG         1.9550    4.8240   -5.6930 cf        1 PWH     -0.025200
     11 CAP         2.0410    4.0880   -6.9460 ca        1 PWH     -0.089800
     12 CAK         1.0430    4.3120   -7.9080 ca        1 PWH     -0.117000
     13 CAR         1.0970    3.6470   -9.1360 ca        1 PWH      0.103100
     14 OAE         0.0890    3.8990  -10.0360 oh        1 PWH     -0.495100
     15 CAQ         2.1660    2.7640   -9.4080 ca        1 PWH      0.055100
     16 OAD         2.1510    2.1530  -10.6440 oh        1 PWH     -0.515100
     17 CAJ         3.1630    2.5540   -8.4530 ca        1 PWH     -0.176000
     18 CAI         3.0970    3.2140   -7.2280 ca        1 PWH     -0.097000
     19 H1          3.2140   -0.8130   -0.7720 hc        1 PWH      0.043700
     20 H2          2.0350   -2.1090   -0.2990 hc        1 PWH      0.043700
     21 H3          2.1560   -1.5740   -2.0280 hc        1 PWH      0.043700
     22 H4         -0.5610    0.3620    0.4550 hc        1 PWH      0.043700
     23 H5          0.6940   -0.6290    1.3110 hc        1 PWH      0.043700
     24 H6         -0.3930   -1.4060    0.0870 hc        1 PWH      0.043700
     25 H7          0.3610    1.7290   -1.2540 ha        1 PWH      0.144000
     26 H8          3.1630    1.2840   -2.1130 h1        1 PWH      0.059200
     27 H9          2.0520    0.5240   -3.3480 h1        1 PWH      0.059200
     28 H10         2.0220    5.0780   -3.5910 ha        1 PWH      0.156000
     29 H12         1.6380    5.8790   -5.8240 ha        1 PWH      0.136000
     30 H14         0.2090    5.0010   -7.7090 ha        1 PWH      0.154000
     31 H15         0.2540    3.3620  -10.8270 ho        1 PWH      0.437000
     32 H16         2.9160    1.5620  -10.6920 ho        1 PWH      0.432000
     33 H17         3.9950    1.8670   -8.6660 ha        1 PWH      0.141000
     34 H18         3.8830    3.0380   -6.4740 ha        1 PWH      0.170000
@<TRIPOS>BOND
     1    1    2 1   
     2    1   19 1   
     3    1   20 1   
     4    1   21 1   
     5    2    3 1   
     6    2    4 2   
     7    3   22 1   
     8    3   23 1   
     9    3   24 1   
    10    4    5 1   
    11    4   25 1   
    12    5    6 1   
    13    5   26 1   
    14    5   27 1   
    15    6    7 1   
    16    7    8 2   
    17    7    9 1   
    18    9   10 2   
    19    9   28 1   
    20   10   11 1   
    21   10   29 1   
    22   11   12 ar  
    23   11   18 ar  
    24   12   13 ar  
    25   12   30 1   
    26   13   14 1   
    27   13   15 ar  
    28   14   31 1   
    29   15   16 1   
    30   15   17 ar  
    31   16   32 1   
    32   17   18 ar  
    33   17   33 1   
    34   18   34 1   
@<TRIPOS>SUBSTRUCTURE
     1 PWH         1 TEMP              0 ****  ****    0 ROOT
