@<TRIPOS>MOLECULE
PWK
   50    51     1     0     0
SMALL
bcc


@<TRIPOS>ATOM
      1 CAA        -0.4490    0.3890    0.5620 c3        1 PWK      0.110700
      2 OAO         0.9600    0.5090    0.4050 os        1 PWK     -0.303900
      3 CAU         1.7090    0.3700    1.5560 ca        1 PWK      0.104100
      4 CAK         1.1870    0.1220    2.8250 ca        1 PWK     -0.176000
      5 CAS         3.1120    0.4970    1.3870 ca        1 PWK      0.099100
      6 OAE         3.5680    0.7430    0.1130 oh        1 PWK     -0.476100
      7 CAI         3.9570    0.3730    2.4920 ca        1 PWK     -0.187000
      8 CAG         3.4210    0.1240    3.7560 ca        1 PWK     -0.123000
      9 CAQ         2.0420   -0.0010    3.9300 ca        1 PWK     -0.076300
     10 CAM         1.4650   -0.2530    5.2790 c3        1 PWK     -0.034100
     11 CAW         1.0410   -1.7120    5.4620 c3        1 PWK     -0.059700
     12 CAC         2.2620   -2.5580    5.7590 c3        1 PWK     -0.091100
     13 CAX        -0.0180   -1.8210    6.5630 c3        1 PWK     -0.059700
     14 CAD        -0.1270   -3.2300    7.1100 c3        1 PWK     -0.091100
     15 CAN        -1.3810   -1.3740    6.0320 c3        1 PWK     -0.034100
     16 CAR        -2.2960   -0.9440    7.1250 ca        1 PWK     -0.076300
     17 CAL        -2.1240    0.3190    7.7120 ca        1 PWK     -0.176000
     18 CAH        -3.3250   -1.7770    7.5640 ca        1 PWK     -0.123000
     19 CAJ        -4.1880   -1.3650    8.5810 ca        1 PWK     -0.187000
     20 CAT        -4.0240   -0.1090    9.1690 ca        1 PWK      0.099100
     21 OAF        -4.8350    0.3640   10.1730 oh        1 PWK     -0.476100
     22 CAV        -2.9790    0.7430    8.7290 ca        1 PWK      0.104100
     23 OAP        -2.9000    1.9630    9.3710 os        1 PWK     -0.303900
     24 CAB        -1.8590    2.8290    8.9360 c3        1 PWK      0.110700
     25 H1         -0.7200   -0.6260    0.9430 h1        1 PWK      0.043700
     26 H2         -0.8370    0.5360   -0.4780 h1        1 PWK      0.043700
     27 H3         -0.8410    1.1810    1.2450 h1        1 PWK      0.043700
     28 H4          0.1020    0.0200    2.9740 ha        1 PWK      0.140000
     29 H5          4.5340    0.8030    0.1570 ho        1 PWK      0.414000
     30 H6          5.0440    0.4710    2.3630 ha        1 PWK      0.135000
     31 H7          4.0950    0.0260    4.6190 ha        1 PWK      0.135000
     32 H8          2.2130    0.0130    6.0730 hc        1 PWK      0.047700
     33 H9          0.5780    0.4220    5.4260 hc        1 PWK      0.047700
     34 H10         0.5840   -2.0750    4.4980 hc        1 PWK      0.052700
     35 H11         2.6430   -2.3540    6.7890 hc        1 PWK      0.036367
     36 H12         3.0740   -2.3190    5.0270 hc        1 PWK      0.036367
     37 H13         2.0200   -3.6440    5.6770 hc        1 PWK      0.036367
     38 H14         0.2810   -1.1350    7.4060 hc        1 PWK      0.052700
     39 H15         0.7830   -3.4970    7.7000 hc        1 PWK      0.036367
     40 H16        -0.2440   -3.9680    6.2810 hc        1 PWK      0.036367
     41 H17        -1.0180   -3.3060    7.7810 hc        1 PWK      0.036367
     42 H18        -1.2480   -0.5210    5.3130 hc        1 PWK      0.047700
     43 H19        -1.8430   -2.2190    5.4550 hc        1 PWK      0.047700
     44 H20        -1.3080    0.9660    7.3590 ha        1 PWK      0.140000
     45 H21        -3.4620   -2.7690    7.1090 ha        1 PWK      0.135000
     46 H22        -4.9970   -2.0270    8.9200 ha        1 PWK      0.135000
     47 H23        -5.4920   -0.3220   10.3640 ho        1 PWK      0.414000
     48 H24        -1.9870    3.0920    7.8570 h1        1 PWK      0.043700
     49 H25        -1.9900    3.7340    9.5810 h1        1 PWK      0.043700
     50 H26        -0.8580    2.3640    9.1090 h1        1 PWK      0.043700
@<TRIPOS>BOND
     1    1    2 1   
     2    1   25 1   
     3    1   26 1   
     4    1   27 1   
     5    2    3 1   
     6    3    4 ar  
     7    3    5 ar  
     8    4    9 ar  
     9    4   28 1   
    10    5    6 1   
    11    5    7 ar  
    12    6   29 1   
    13    7    8 ar  
    14    7   30 1   
    15    8    9 ar  
    16    8   31 1   
    17    9   10 1   
    18   10   11 1   
    19   10   32 1   
    20   10   33 1   
    21   11   12 1   
    22   11   13 1   
    23   11   34 1   
    24   12   35 1   
    25   12   36 1   
    26   12   37 1   
    27   13   14 1   
    28   13   15 1   
    29   13   38 1   
    30   14   39 1   
    31   14   40 1   
    32   14   41 1   
    33   15   16 1   
    34   15   42 1   
    35   15   43 1   
    36   16   17 ar  
    37   16   18 ar  
    38   17   22 ar  
    39   17   44 1   
    40   18   19 ar  
    41   18   45 1   
    42   19   20 ar  
    43   19   46 1   
    44   20   21 1   
    45   20   22 ar  
    46   21   47 1   
    47   22   23 1   
    48   23   24 1   
    49   24   48 1   
    50   24   49 1   
    51   24   50 1   
@<TRIPOS>SUBSTRUCTURE
     1 PWK         1 TEMP              0 ****  ****    0 ROOT
