@<TRIPOS>MOLECULE
PWU
   62    66     1     0     0
SMALL
bcc


@<TRIPOS>ATOM
      1 O           1.0930   -1.4240    0.7120 o         1 PWU     -0.567000
      2 C11         1.4760   -0.3350    0.2550 c         1 PWU      0.764100
      3 O1          1.1710    0.8210    0.9240 os        1 PWU     -0.417900
      4 C12         0.4060    0.6630    2.1510 c3        1 PWU      0.157100
      5 C14         1.3490    0.3130    3.2830 c3        1 PWU     -0.113100
      6 C13        -0.2650    2.0080    2.3570 c3        1 PWU     -0.113100
      7 N1          2.2190   -0.1710   -0.9170 n         1 PWU     -0.232200
      8 C5          2.7160    1.0250   -1.5280 cc        1 PWU      0.094400
      9 C7          2.6470    2.3380   -0.9640 cc        1 PWU     -0.227100
     10 C9          2.9310    2.7770    0.3880 cc        1 PWU      0.346200
     11 N3          2.8150    4.1230    0.4780 nd        1 PWU     -0.517800
     12 N2          2.4710    4.5710   -0.7460 na        1 PWU      0.088400
     13 C10         2.2720    5.9640   -1.0620 c3        1 PWU      0.039600
     14 C8          2.3570    3.5260   -1.6650 cd        1 PWU     -0.115300
     15 C6          3.3000    0.7110   -2.7520 cd        1 PWU     -0.139200
     16 C           3.1780   -0.7130   -2.9540 ca        1 PWU     -0.244100
     17 C4          2.4970   -1.2430   -1.7980 ca        1 PWU      0.074600
     18 C3          2.2330   -2.6080   -1.6980 ca        1 PWU     -0.293300
     19 C2          2.6630   -3.4280   -2.7860 ca        1 PWU      0.646200
     20 N           3.3270   -2.9290   -3.8860 nb        1 PWU     -0.717000
     21 C1          3.5630   -1.6150   -3.9520 ca        1 PWU      0.473200
     22 N4          2.3330   -4.7980   -2.7170 nu        1 PWU     -0.717300
     23 C15         2.8480   -5.7570   -3.6150 ca        1 PWU      0.142600
     24 C20         3.4590   -6.9300   -3.1140 ca        1 PWU     -0.144000
     25 C19         3.8910   -7.9270   -3.9800 ca        1 PWU     -0.105000
     26 C18         3.7400   -7.7880   -5.3650 ca        1 PWU     -0.026000
     27 C17         3.1290   -6.6280   -5.8650 ca        1 PWU     -0.105000
     28 C16         2.6820   -5.6280   -5.0110 ca        1 PWU     -0.144000
     29 C21         4.1630   -8.8180   -6.2880 cc        1 PWU     -0.163600
     30 C23         3.5040   -9.2680   -7.4570 cd        1 PWU      0.308200
     31 N6          4.2330  -10.2750   -8.0690 nd        1 PWU     -0.666000
     32 C22         5.3420  -10.4580   -7.3030 cc        1 PWU      0.398800
     33 C24         6.4370  -11.4280   -7.5570 c3        1 PWU     -0.122400
     34 N5          5.3370   -9.5830   -6.1960 na        1 PWU     -0.191900
     35 C25         6.3590   -9.4780   -5.2100 c3        1 PWU      0.019600
     36 H12        -0.3570   -0.1500    2.0060 h1        1 PWU      0.076700
     37 H141        0.7800    0.2650    4.2420 hc        1 PWU      0.052533
     38 H142        1.8210   -0.6810    3.0890 hc        1 PWU      0.052533
     39 H143        2.1530    1.0820    3.3750 hc        1 PWU      0.052533
     40 H131        0.4990    2.8210    2.4090 hc        1 PWU      0.052533
     41 H132       -0.9590    2.2270    1.5110 hc        1 PWU      0.052533
     42 H133       -0.8420    1.9820    3.3110 hc        1 PWU      0.052533
     43 H6          3.7780    1.4110   -3.4320 ha        1 PWU      0.163000
     44 H9          3.1790    2.1530    1.2480 h4        1 PWU      0.052100
     45 H8          2.0840    3.6860   -2.7080 h4        1 PWU      0.181000
     46 H101        1.9250    6.0450   -2.1240 h1        1 PWU      0.060033
     47 H102        3.2360    6.5280   -0.9370 h1        1 PWU      0.060033
     48 H103        1.5000    6.4070   -0.3780 h1        1 PWU      0.060033
     49 H1          4.0970   -1.2720   -4.8570 h4        1 PWU      0.028100
     50 H3          1.7080   -3.0230   -0.8260 ha        1 PWU      0.178000
     51 H4          2.2460   -5.1280   -1.7770 hn        1 PWU      0.422800
     52 H20         3.5920   -7.0690   -2.0300 ha        1 PWU      0.143000
     53 H16         2.2000   -4.7340   -5.4360 ha        1 PWU      0.143000
     54 H19         4.3450   -8.8400   -3.5650 ha        1 PWU      0.136500
     55 H17         2.9980   -6.5130   -6.9530 ha        1 PWU      0.136500
     56 H23         2.5540   -8.9190   -7.8610 h4        1 PWU      0.042100
     57 H241        6.6000  -12.0730   -6.6590 hc        1 PWU      0.056367
     58 H242        7.3860  -10.8820   -7.7870 hc        1 PWU      0.056367
     59 H243        6.1790  -12.0800   -8.4280 hc        1 PWU      0.056367
     60 H251        6.3610   -8.4450   -4.7690 h1        1 PWU      0.054700
     61 H252        6.1860  -10.2260   -4.3880 h1        1 PWU      0.054700
     62 H253        7.3590   -9.6840   -5.6800 h1        1 PWU      0.054700
@<TRIPOS>BOND
     1    1    2 2   
     2    2    3 1   
     3    2    7 1   
     4    3    4 1   
     5    4    5 1   
     6    4    6 1   
     7    4   36 1   
     8    5   37 1   
     9    5   38 1   
    10    5   39 1   
    11    6   40 1   
    12    6   41 1   
    13    6   42 1   
    14    7    8 1   
    15    7   17 1   
    16    8    9 1   
    17    8   15 2   
    18    9   10 1   
    19    9   14 2   
    20   10   11 2   
    21   10   44 1   
    22   11   12 1   
    23   12   13 1   
    24   12   14 1   
    25   13   46 1   
    26   13   47 1   
    27   13   48 1   
    28   14   45 1   
    29   15   16 1   
    30   15   43 1   
    31   16   17 ar  
    32   16   21 ar  
    33   17   18 ar  
    34   18   19 ar  
    35   18   50 1   
    36   19   20 ar  
    37   19   22 1   
    38   20   21 ar  
    39   21   49 1   
    40   22   23 1   
    41   22   51 1   
    42   23   24 ar  
    43   23   28 ar  
    44   24   25 ar  
    45   24   52 1   
    46   25   26 ar  
    47   25   54 1   
    48   26   27 ar  
    49   26   29 1   
    50   27   28 ar  
    51   27   55 1   
    52   28   53 1   
    53   29   30 2   
    54   29   34 1   
    55   30   31 1   
    56   30   56 1   
    57   31   32 2   
    58   32   33 1   
    59   32   34 1   
    60   33   57 1   
    61   33   58 1   
    62   33   59 1   
    63   34   35 1   
    64   35   60 1   
    65   35   61 1   
    66   35   62 1   
@<TRIPOS>SUBSTRUCTURE
     1 PWU         1 TEMP              0 ****  ****    0 ROOT
