@<TRIPOS>MOLECULE
PWU
   62    66     1     0     0
SMALL
bcc


@<TRIPOS>ATOM
      1 O           1.4470    1.4780    0.9230 o         1 PWU     -0.551000
      2 C11         1.6140    0.5000    0.1810 c         1 PWU      0.767100
      3 O1          1.1430   -0.7270    0.5840 os        1 PWU     -0.436900
      4 C12         0.4500   -0.7610    1.8600 c3        1 PWU      0.159100
      5 C14        -0.4190   -2.0010    1.7870 c3        1 PWU     -0.112100
      6 C13         1.4640   -0.8350    2.9830 c3        1 PWU     -0.112100
      7 N1          2.2590    0.4760   -1.0570 n         1 PWU     -0.232200
      8 C5          2.6450    1.6170   -1.8380 cc        1 PWU      0.105400
      9 C7          2.5140    2.9850   -1.4420 cc        1 PWU     -0.242100
     10 C9          2.7610    3.6210   -0.1620 cc        1 PWU      0.357200
     11 N3          2.5860    4.9590   -0.2630 nd        1 PWU     -0.514800
     12 N2          2.2420    5.2170   -1.5420 na        1 PWU      0.088400
     13 C10         1.9460    6.5370   -2.0400 c3        1 PWU      0.039600
     14 C8          2.1800    4.0510   -2.3050 cd        1 PWU     -0.115300
     15 C6          3.1600    1.1880   -3.0580 cd        1 PWU     -0.149200
     16 C           3.1050   -0.2520   -3.0850 ca        1 PWU     -0.238100
     17 C4          2.5310   -0.6770   -1.8300 ca        1 PWU      0.075600
     18 C3          2.3610   -2.0350   -1.5660 ca        1 PWU     -0.289300
     19 C2          2.7680   -2.9510   -2.5830 ca        1 PWU      0.639200
     20 N           3.3240   -2.5490   -3.7770 nb        1 PWU     -0.714000
     21 C1          3.4750   -1.2410   -4.0050 ca        1 PWU      0.470200
     22 N4          2.5290   -4.3220   -2.3360 nh        1 PWU     -0.715300
     23 C15         3.0040   -5.3420   -3.1890 ca        1 PWU      0.140600
     24 C20         3.7430   -6.4210   -2.6540 ca        1 PWU     -0.144000
     25 C19         4.1350   -7.4810   -3.4630 ca        1 PWU     -0.104500
     26 C18         3.8160   -7.4950   -4.8260 ca        1 PWU     -0.026000
     27 C17         3.0790   -6.4280   -5.3610 ca        1 PWU     -0.104500
     28 C16         2.6720   -5.3670   -4.5610 ca        1 PWU     -0.144000
     29 C21         4.1940   -8.5950   -5.6880 cc        1 PWU     -0.164600
     30 C23         3.4320   -9.2000   -6.7160 cd        1 PWU      0.309200
     31 N6          4.1480  -10.2270   -7.3100 nd        1 PWU     -0.666000
     32 C22         5.3480  -10.2700   -6.6730 cc        1 PWU      0.398800
     33 C24         6.4660  -11.2030   -6.9630 c3        1 PWU     -0.122400
     34 N5          5.4170   -9.2840   -5.6660 na        1 PWU     -0.191900
     35 C25         6.5390   -9.0210   -4.8300 c3        1 PWU      0.019600
     36 H12        -0.1790    0.1670    1.9580 h1        1 PWU      0.077700
     37 H141       -1.1470   -1.9160    0.9450 hc        1 PWU      0.051700
     38 H142        0.2080   -2.9100    1.6230 hc        1 PWU      0.051700
     39 H143       -0.9770   -2.1090    2.7480 hc        1 PWU      0.051700
     40 H131        0.9310   -0.9180    3.9600 hc        1 PWU      0.051700
     41 H132        2.0910    0.0890    2.9880 hc        1 PWU      0.051700
     42 H133        2.1290   -1.7210    2.8550 hc        1 PWU      0.051700
     43 H6          3.5500    1.8260   -3.8460 ha        1 PWU      0.163000
     44 H9          3.0220    3.1360    0.7810 h4        1 PWU      0.064100
     45 H8          1.9140    4.0500   -3.3610 h4        1 PWU      0.179000
     46 H101        1.7670    6.4740   -3.1450 h1        1 PWU      0.059367
     47 H102        2.8070    7.2280   -1.8370 h1        1 PWU      0.059367
     48 H103        1.0280    6.9420   -1.5340 h1        1 PWU      0.059367
     49 H1          3.9260   -0.9750   -4.9780 h4        1 PWU      0.028100
     50 H3          1.9190   -2.3870   -0.6230 ha        1 PWU      0.168000
     51 H4          2.5920   -4.5510   -1.3630 hn        1 PWU      0.416800
     52 H20         4.0090   -6.4390   -1.5860 ha        1 PWU      0.142000
     53 H16         2.0900   -4.5470   -5.0100 ha        1 PWU      0.142000
     54 H19         4.6920   -8.3200   -3.0190 ha        1 PWU      0.137000
     55 H17         2.8170   -6.4340   -6.4310 ha        1 PWU      0.137000
     56 H23         2.4210   -8.9460   -7.0330 h4        1 PWU      0.042100
     57 H241        6.1510  -11.9570   -7.7250 hc        1 PWU      0.056367
     58 H242        7.3450  -10.6350   -7.3610 hc        1 PWU      0.056367
     59 H243        6.7760  -11.7390   -6.0310 hc        1 PWU      0.056367
     60 H251        7.4880   -9.2220   -5.3970 h1        1 PWU      0.054700
     61 H252        6.5130   -9.6860   -3.9230 h1        1 PWU      0.054700
     62 H253        6.5250   -7.9480   -4.4960 h1        1 PWU      0.054700
@<TRIPOS>BOND
     1    1    2 2   
     2    2    3 1   
     3    2    7 1   
     4    3    4 1   
     5    4    5 1   
     6    4    6 1   
     7    4   36 1   
     8    5   37 1   
     9    5   38 1   
    10    5   39 1   
    11    6   40 1   
    12    6   41 1   
    13    6   42 1   
    14    7    8 1   
    15    7   17 1   
    16    8    9 1   
    17    8   15 2   
    18    9   10 1   
    19    9   14 2   
    20   10   11 2   
    21   10   44 1   
    22   11   12 1   
    23   12   13 1   
    24   12   14 1   
    25   13   46 1   
    26   13   47 1   
    27   13   48 1   
    28   14   45 1   
    29   15   16 1   
    30   15   43 1   
    31   16   17 ar  
    32   16   21 ar  
    33   17   18 ar  
    34   18   19 ar  
    35   18   50 1   
    36   19   20 ar  
    37   19   22 1   
    38   20   21 ar  
    39   21   49 1   
    40   22   23 1   
    41   22   51 1   
    42   23   24 ar  
    43   23   28 ar  
    44   24   25 ar  
    45   24   52 1   
    46   25   26 ar  
    47   25   54 1   
    48   26   27 ar  
    49   26   29 1   
    50   27   28 ar  
    51   27   55 1   
    52   28   53 1   
    53   29   30 2   
    54   29   34 1   
    55   30   31 1   
    56   30   56 1   
    57   31   32 2   
    58   32   33 1   
    59   32   34 1   
    60   33   57 1   
    61   33   58 1   
    62   33   59 1   
    63   34   35 1   
    64   35   60 1   
    65   35   61 1   
    66   35   62 1   
@<TRIPOS>SUBSTRUCTURE
     1 PWU         1 TEMP              0 ****  ****    0 ROOT
