@<TRIPOS>MOLECULE
PWZ
   58    59     1     0     0
SMALL
bcc


@<TRIPOS>ATOM
      1 O1          1.9690   -0.9470    0.3550 o         1 PWZ     -0.851300
      2 C1          2.6230    0.1150    0.1420 c         1 PWZ      0.908600
      3 O2          3.1500    0.8140    1.0540 o         1 PWZ     -0.851300
      4 C2          2.8140    0.5800   -1.3140 c3        1 PWZ     -0.196400
      5 C3          1.5380    0.4380   -2.1070 c3        1 PWZ     -0.064400
      6 C4          1.7720    0.6470   -3.5910 c3        1 PWZ     -0.060200
      7 C5          0.5270    0.4790   -4.3770 c2        1 PWZ     -0.122200
      8 C6          0.2470    1.1680   -5.4880 c2        1 PWZ     -0.229200
      9 C7         -0.9870    0.9570   -6.2840 c3        1 PWZ     -0.029200
     10 C8         -1.5060    2.2420   -6.8920 c3        1 PWZ     -0.085700
     11 C9         -0.6710    2.7070   -8.1160 c3        1 PWZ      0.131100
     12 C10        -1.3730    1.9760   -9.2930 c3        1 PWZ     -0.117400
     13 O5         -1.0230    4.0930   -8.3570 os        1 PWZ     -0.425600
     14 C21        -2.3730    4.0790   -8.8790 c3        1 PWZ      0.120400
     15 C11        -2.7590    2.5840   -8.9460 c3        1 PWZ     -0.097700
     16 C12        -2.9350    2.0710   -7.4920 c3        1 PWZ     -0.043500
     17 C13        -3.9730    2.7980   -6.7270 c2        1 PWZ     -0.134200
     18 C14        -5.2300    2.3960   -6.5210 c2        1 PWZ     -0.219200
     19 C15        -5.8510    1.1330   -7.0210 c3        1 PWZ      0.176300
     20 O3         -6.9010    0.7070   -6.1530 oh        1 PWZ     -0.604800
     21 C16        -6.4710    1.3010   -8.4080 c3        1 PWZ     -0.065400
     22 C17        -7.5340    2.3760   -8.4410 c3        1 PWZ     -0.078400
     23 C18        -8.1580    2.4860   -9.8160 c3        1 PWZ     -0.078400
     24 C19        -9.2170    3.5680   -9.8530 c3        1 PWZ     -0.080400
     25 C20        -9.8450    3.6810  -11.2180 c3        1 PWZ     -0.092100
     26 H2          3.6200   -0.0510   -1.7680 hc        1 PWZ      0.019700
     27 H3          3.1640    1.6420   -1.3220 hc        1 PWZ      0.019700
     28 H4          1.1140   -0.5850   -1.9220 hc        1 PWZ      0.047200
     29 H5          0.7840    1.1810   -1.7390 hc        1 PWZ      0.047200
     30 H6          2.5260   -0.1050   -3.9540 hc        1 PWZ      0.039700
     31 H7          2.2150    1.6640   -3.7640 hc        1 PWZ      0.039700
     32 H8         -0.1740   -0.2780   -3.9850 ha        1 PWZ      0.120000
     33 H9          0.9370    1.9340   -5.8740 ha        1 PWZ      0.116000
     34 H10        -1.7910    0.5090   -5.6380 hc        1 PWZ      0.039700
     35 H11        -0.7730    0.2150   -7.1030 hc        1 PWZ      0.039700
     36 H12        -1.5000    3.0540   -6.1180 hc        1 PWZ      0.079700
     37 H13         0.4280    2.6450   -8.0200 h1        1 PWZ      0.101700
     38 H14        -1.3400    0.8700   -9.2070 hc        1 PWZ      0.059700
     39 H15        -0.9940    2.2970  -10.2860 hc        1 PWZ      0.059700
     40 H16        -3.0140    4.6750   -8.1880 h1        1 PWZ      0.045700
     41 H17        -2.3430    4.5510   -9.8920 h1        1 PWZ      0.045700
     42 H18        -3.5960    2.3490   -9.6260 hc        1 PWZ      0.074700
     43 H19        -3.1870    0.9760   -7.5390 hc        1 PWZ      0.057700
     44 H20        -3.6370    3.7550   -6.2860 ha        1 PWZ      0.129000
     45 H21        -5.9180    3.0230   -5.9260 ha        1 PWZ      0.130000
     46 H22        -5.0790    0.3080   -7.0680 h1        1 PWZ      0.038700
     47 H23        -6.5210    0.6450   -5.2690 ho        1 PWZ      0.404000
     48 H24        -5.6480    1.5480   -9.1280 hc        1 PWZ      0.045700
     49 H25        -6.9210    0.3210   -8.7130 hc        1 PWZ      0.045700
     50 H26        -7.0820    3.3610   -8.1500 hc        1 PWZ      0.050200
     51 H27        -8.3230    2.1350   -7.6800 hc        1 PWZ      0.050200
     52 H28        -7.3630    2.7130  -10.5740 hc        1 PWZ      0.036200
     53 H29        -8.6170    1.5030  -10.1010 hc        1 PWZ      0.036200
     54 H30        -8.7570    4.5510   -9.5670 hc        1 PWZ      0.039200
     55 H31       -10.0090    3.3400   -9.0910 hc        1 PWZ      0.039200
     56 H32       -10.6220    4.4830  -11.2230 hc        1 PWZ      0.030033
     57 H33       -10.3310    2.7180  -11.5100 hc        1 PWZ      0.030033
     58 H34        -9.0750    3.9310  -11.9870 hc        1 PWZ      0.030033
@<TRIPOS>BOND
     1    1    2 1   
     2    2    3 1   
     3    2    4 1   
     4    4    5 1   
     5    4   26 1   
     6    4   27 1   
     7    5    6 1   
     8    5   28 1   
     9    5   29 1   
    10    6    7 1   
    11    6   30 1   
    12    6   31 1   
    13    7    8 2   
    14    7   32 1   
    15    8    9 1   
    16    8   33 1   
    17    9   10 1   
    18    9   34 1   
    19    9   35 1   
    20   10   11 1   
    21   10   16 1   
    22   10   36 1   
    23   11   12 1   
    24   11   13 1   
    25   11   37 1   
    26   12   15 1   
    27   12   38 1   
    28   12   39 1   
    29   13   14 1   
    30   14   15 1   
    31   14   40 1   
    32   14   41 1   
    33   15   16 1   
    34   15   42 1   
    35   16   17 1   
    36   16   43 1   
    37   17   18 2   
    38   17   44 1   
    39   18   19 1   
    40   18   45 1   
    41   19   20 1   
    42   19   21 1   
    43   19   46 1   
    44   20   47 1   
    45   21   22 1   
    46   21   48 1   
    47   21   49 1   
    48   22   23 1   
    49   22   50 1   
    50   22   51 1   
    51   23   24 1   
    52   23   52 1   
    53   23   53 1   
    54   24   25 1   
    55   24   54 1   
    56   24   55 1   
    57   25   56 1   
    58   25   57 1   
    59   25   58 1   
@<TRIPOS>SUBSTRUCTURE
     1 PWZ         1 TEMP              0 ****  ****    0 ROOT
