@<TRIPOS>MOLECULE
PWZ
   58    59     1     0     0
SMALL
bcc


@<TRIPOS>ATOM
      1 O1          1.2230   -2.0500   -0.0370 o         1 PWZ     -0.851300
      2 C1          1.5880   -0.8670    0.2260 c         1 PWZ      0.908600
      3 O2          1.6350   -0.3870    1.3940 o         1 PWZ     -0.851300
      4 C2          2.0270    0.0410   -0.9380 c3        1 PWZ     -0.196400
      5 C3          1.1040   -0.1020   -2.1230 c3        1 PWZ     -0.064400
      6 C4          1.6610    0.5820   -3.3570 c3        1 PWZ     -0.060200
      7 C5          0.7750    0.4140   -4.5320 c2        1 PWZ     -0.123200
      8 C6          0.6390    1.3230   -5.5020 c2        1 PWZ     -0.229200
      9 C7         -0.2250    1.1150   -6.6900 c3        1 PWZ     -0.029200
     10 C8         -0.8420    2.4060   -7.1870 c3        1 PWZ     -0.085700
     11 C9          0.1690    3.2940   -7.9630 c3        1 PWZ      0.131100
     12 C10         0.0170    2.7750   -9.4190 c3        1 PWZ     -0.117400
     13 O5         -0.4180    4.6180   -8.0430 os        1 PWZ     -0.425600
     14 C21        -1.5240    4.5110   -8.9720 c3        1 PWZ      0.119400
     15 C11        -1.5140    3.0370   -9.4360 c3        1 PWZ     -0.097700
     16 C12        -1.9600    2.1510   -8.2420 c3        1 PWZ     -0.039500
     17 C13        -3.3150    2.4670   -7.7330 c2        1 PWZ     -0.139200
     18 C14        -4.3750    1.6800   -7.9330 c2        1 PWZ     -0.219200
     19 C15        -5.7480    1.9540   -7.4110 c3        1 PWZ      0.175300
     20 O3         -5.8060    3.0840   -6.5470 oh        1 PWZ     -0.602800
     21 C16        -6.7160    2.2350   -8.5620 c3        1 PWZ     -0.069400
     22 C17        -8.1540    2.1690   -8.0970 c3        1 PWZ     -0.080400
     23 C18        -9.1100    2.5050   -9.2210 c3        1 PWZ     -0.078400
     24 C19       -10.5500    2.4270   -8.7600 c3        1 PWZ     -0.080400
     25 C20       -11.5070    2.7640   -9.8740 c3        1 PWZ     -0.092100
     26 H2          3.0680   -0.2540   -1.2240 hc        1 PWZ      0.019700
     27 H3          2.0540    1.1030   -0.5890 hc        1 PWZ      0.019700
     28 H4          0.1020    0.3350   -1.8730 hc        1 PWZ      0.047200
     29 H5          0.9480   -1.1960   -2.3240 hc        1 PWZ      0.047200
     30 H6          2.6650    0.1370   -3.6030 hc        1 PWZ      0.039700
     31 H7          1.8300    1.6710   -3.1410 hc        1 PWZ      0.039700
     32 H8          0.2200   -0.5400   -4.5660 ha        1 PWZ      0.120000
     33 H9          1.1790    2.2820   -5.4660 ha        1 PWZ      0.117000
     34 H10        -1.0470    0.3890   -6.4460 hc        1 PWZ      0.040200
     35 H11         0.3870    0.6530   -7.5130 hc        1 PWZ      0.040200
     36 H12        -1.2490    2.9890   -6.3200 hc        1 PWZ      0.078700
     37 H13         1.1790    3.3930   -7.5270 h1        1 PWZ      0.100700
     38 H14         0.5710    3.3930  -10.1570 hc        1 PWZ      0.059700
     39 H15         0.2850    1.7040   -9.5340 hc        1 PWZ      0.059700
     40 H16        -1.3190    5.2150   -9.8150 h1        1 PWZ      0.046700
     41 H17        -2.4540    4.8060   -8.4320 h1        1 PWZ      0.046700
     42 H18        -2.0490    2.8430  -10.3820 hc        1 PWZ      0.074700
     43 H19        -1.9210    1.0770   -8.5750 hc        1 PWZ      0.055700
     44 H20        -3.4050    3.4030   -7.1540 ha        1 PWZ      0.135000
     45 H21        -4.2980    0.7440   -8.5100 ha        1 PWZ      0.124000
     46 H22        -6.0980    1.0440   -6.8380 h1        1 PWZ      0.039700
     47 H23        -5.1900    2.9120   -5.8240 ho        1 PWZ      0.407000
     48 H24        -6.4990    3.2520   -8.9790 hc        1 PWZ      0.049200
     49 H25        -6.5380    1.4810   -9.3710 hc        1 PWZ      0.049200
     50 H26        -8.3790    1.1410   -7.7050 hc        1 PWZ      0.047700
     51 H27        -8.2960    2.8870   -7.2460 hc        1 PWZ      0.047700
     52 H28        -8.8930    3.5370   -9.6020 hc        1 PWZ      0.037200
     53 H29        -8.9500    1.7960  -10.0760 hc        1 PWZ      0.037200
     54 H30       -10.7050    3.1340   -7.9020 hc        1 PWZ      0.039700
     55 H31       -10.7640    1.3940   -8.3780 hc        1 PWZ      0.039700
     56 H32       -12.5610    2.7010   -9.5130 hc        1 PWZ      0.030367
     57 H33       -11.3240    3.8000  -10.2500 hc        1 PWZ      0.030367
     58 H34       -11.3830    2.0550  -10.7280 hc        1 PWZ      0.030367
@<TRIPOS>BOND
     1    1    2 1   
     2    2    3 1   
     3    2    4 1   
     4    4    5 1   
     5    4   26 1   
     6    4   27 1   
     7    5    6 1   
     8    5   28 1   
     9    5   29 1   
    10    6    7 1   
    11    6   30 1   
    12    6   31 1   
    13    7    8 2   
    14    7   32 1   
    15    8    9 1   
    16    8   33 1   
    17    9   10 1   
    18    9   34 1   
    19    9   35 1   
    20   10   11 1   
    21   10   16 1   
    22   10   36 1   
    23   11   12 1   
    24   11   13 1   
    25   11   37 1   
    26   12   15 1   
    27   12   38 1   
    28   12   39 1   
    29   13   14 1   
    30   14   15 1   
    31   14   40 1   
    32   14   41 1   
    33   15   16 1   
    34   15   42 1   
    35   16   17 1   
    36   16   43 1   
    37   17   18 2   
    38   17   44 1   
    39   18   19 1   
    40   18   45 1   
    41   19   20 1   
    42   19   21 1   
    43   19   46 1   
    44   20   47 1   
    45   21   22 1   
    46   21   48 1   
    47   21   49 1   
    48   22   23 1   
    49   22   50 1   
    50   22   51 1   
    51   23   24 1   
    52   23   52 1   
    53   23   53 1   
    54   24   25 1   
    55   24   54 1   
    56   24   55 1   
    57   25   56 1   
    58   25   57 1   
    59   25   58 1   
@<TRIPOS>SUBSTRUCTURE
     1 PWZ         1 TEMP              0 ****  ****    0 ROOT
