@<TRIPOS>MOLECULE
PWZ
   58    59     1     0     0
SMALL
bcc


@<TRIPOS>ATOM
      1 O1          8.7680    0.6840    2.4090 o         1 PWZ     -0.851800
      2 C1          8.7740    1.1750    1.2430 c         1 PWZ      0.908600
      3 O2          9.6140    2.0320    0.8430 o         1 PWZ     -0.851800
      4 C2          7.7150    0.6900    0.2360 c3        1 PWZ     -0.196400
      5 C3          6.3540    0.5900    0.8790 c3        1 PWZ     -0.063400
      6 C4          5.3560   -0.1180   -0.0190 c3        1 PWZ     -0.060200
      7 C5          4.0270   -0.2450    0.6250 c2        1 PWZ     -0.125200
      8 C6          2.8670   -0.1760   -0.0350 c2        1 PWZ     -0.227200
      9 C7          1.5450   -0.2850    0.6300 c3        1 PWZ     -0.031200
     10 C8          0.5860   -1.1680   -0.1390 c3        1 PWZ     -0.083700
     11 C9          1.0390   -2.6530   -0.1750 c3        1 PWZ      0.134100
     12 C10         0.3940   -3.2260    1.1160 c3        1 PWZ     -0.114400
     13 O5          0.2670   -3.2970   -1.2200 os        1 PWZ     -0.426600
     14 C21        -1.0880   -3.3930   -0.7190 c3        1 PWZ      0.120400
     15 C11        -1.0330   -2.7760    0.6980 c3        1 PWZ     -0.100700
     16 C12        -0.8120   -1.2470    0.5460 c3        1 PWZ     -0.042500
     17 C13        -1.8780   -0.5660   -0.2250 c2        1 PWZ     -0.134200
     18 C14        -2.8460    0.1570    0.3450 c2        1 PWZ     -0.226200
     19 C15        -3.9170    0.8650   -0.4190 c3        1 PWZ      0.171300
     20 O3         -4.0340    0.4100   -1.7600 oh        1 PWZ     -0.594800
     21 C16        -5.2560    0.7520    0.3120 c3        1 PWZ     -0.105400
     22 C17        -6.3160    1.6000   -0.3570 c3        1 PWZ     -0.080400
     23 C18        -7.6670    1.4090    0.2980 c3        1 PWZ     -0.078400
     24 C19        -8.7240    2.2690   -0.3620 c3        1 PWZ     -0.080400
     25 C20       -10.0730    2.0800    0.2820 c3        1 PWZ     -0.092100
     26 H2          7.6850    1.3880   -0.6370 hc        1 PWZ      0.020200
     27 H3          8.0370   -0.3150   -0.1380 hc        1 PWZ      0.020200
     28 H4          6.4570    0.0390    1.8520 hc        1 PWZ      0.047200
     29 H5          5.9760    1.6180    1.1190 hc        1 PWZ      0.047200
     30 H6          5.2740    0.4280   -0.9960 hc        1 PWZ      0.039700
     31 H7          5.7390   -1.1510   -0.2510 hc        1 PWZ      0.039700
     32 H8          4.0520   -0.4070    1.7160 ha        1 PWZ      0.119000
     33 H9          2.8360   -0.0080   -1.1230 ha        1 PWZ      0.119000
     34 H10         1.6620   -0.6760    1.6760 hc        1 PWZ      0.042200
     35 H11         1.0970    0.7440    0.7110 hc        1 PWZ      0.042200
     36 H12         0.4850   -0.7930   -1.1910 hc        1 PWZ      0.072700
     37 H13         2.1110   -2.8360   -0.3750 h1        1 PWZ      0.110700
     38 H14         0.4950   -4.3290    1.1950 hc        1 PWZ      0.062200
     39 H15         0.7590   -2.7380    2.0440 hc        1 PWZ      0.062200
     40 H16        -1.7530   -2.8400   -1.4220 h1        1 PWZ      0.042700
     41 H17        -1.3580   -4.4760   -0.6940 h1        1 PWZ      0.042700
     42 H18        -1.8660   -3.0610    1.3630 hc        1 PWZ      0.072700
     43 H19        -0.7470   -0.8010    1.5770 hc        1 PWZ      0.058700
     44 H20        -1.8260   -0.6710   -1.3230 ha        1 PWZ      0.137000
     45 H21        -2.8960    0.2960    1.4370 ha        1 PWZ      0.126000
     46 H22        -3.6350    1.9540   -0.5350 h1        1 PWZ      0.083700
     47 H23        -4.2200   -0.5360   -1.7250 ho        1 PWZ      0.396000
     48 H24        -5.5800   -0.3210    0.3250 hc        1 PWZ      0.043700
     49 H25        -5.1210    1.0800    1.3750 hc        1 PWZ      0.043700
     50 H26        -6.0200    2.6810   -0.3040 hc        1 PWZ      0.048200
     51 H27        -6.3740    1.3260   -1.4440 hc        1 PWZ      0.048200
     52 H28        -7.9680    0.3310    0.2340 hc        1 PWZ      0.037200
     53 H29        -7.5980    1.6690    1.3870 hc        1 PWZ      0.037200
     54 H30        -8.4220    3.3480   -0.2950 hc        1 PWZ      0.039700
     55 H31        -8.7870    2.0120   -1.4520 hc        1 PWZ      0.039700
     56 H32       -10.4020    1.0160    0.2030 hc        1 PWZ      0.031033
     57 H33       -10.0350    2.3550    1.3640 hc        1 PWZ      0.031033
     58 H34       -10.8360    2.7240   -0.2190 hc        1 PWZ      0.031033
@<TRIPOS>BOND
     1    1    2 1   
     2    2    3 1   
     3    2    4 1   
     4    4    5 1   
     5    4   26 1   
     6    4   27 1   
     7    5    6 1   
     8    5   28 1   
     9    5   29 1   
    10    6    7 1   
    11    6   30 1   
    12    6   31 1   
    13    7    8 2   
    14    7   32 1   
    15    8    9 1   
    16    8   33 1   
    17    9   10 1   
    18    9   34 1   
    19    9   35 1   
    20   10   11 1   
    21   10   16 1   
    22   10   36 1   
    23   11   12 1   
    24   11   13 1   
    25   11   37 1   
    26   12   15 1   
    27   12   38 1   
    28   12   39 1   
    29   13   14 1   
    30   14   15 1   
    31   14   40 1   
    32   14   41 1   
    33   15   16 1   
    34   15   42 1   
    35   16   17 1   
    36   16   43 1   
    37   17   18 2   
    38   17   44 1   
    39   18   19 1   
    40   18   45 1   
    41   19   20 1   
    42   19   21 1   
    43   19   46 1   
    44   20   47 1   
    45   21   22 1   
    46   21   48 1   
    47   21   49 1   
    48   22   23 1   
    49   22   50 1   
    50   22   51 1   
    51   23   24 1   
    52   23   52 1   
    53   23   53 1   
    54   24   25 1   
    55   24   54 1   
    56   24   55 1   
    57   25   56 1   
    58   25   57 1   
    59   25   58 1   
@<TRIPOS>SUBSTRUCTURE
     1 PWZ         1 TEMP              0 ****  ****    0 ROOT
