@<TRIPOS>MOLECULE
PX1
   36    38     1     0     0
SMALL
bcc


@<TRIPOS>ATOM
      1 C1          0.0550   -0.0210    0.0010 cc        1 PX1     -0.343400
      2 C          -0.7480    0.5980   -0.9040 c2        1 PX1      0.128100
      3 O          -0.2200    1.4630   -1.8170 oh        1 PX1     -0.466100
      4 C2          1.5210    0.1410    0.0310 cc        1 PX1      0.436600
      5 N2          2.2300    0.0940   -1.0400 n2        1 PX1     -0.694100
      6 C3          2.0900    0.3490    1.4160 c         1 PX1      0.447000
      7 O3          3.0670    1.0870    1.5880 o         1 PX1     -0.515100
      8 C4          1.4530   -0.4140    2.4980 cd        1 PX1     -0.202400
      9 O5         -0.2660   -1.7530    3.3320 os        1 PX1     -0.387800
     10 C6         -1.9640   -3.1350    4.2150 ca        1 PX1     -0.200600
     11 C7         -3.1960   -3.8210    4.0610 ca        1 PX1      0.182600
     12 C8         -3.8940   -3.7180    2.8290 ca        1 PX1     -0.164000
     13 C9         -3.3990   -2.9820    1.7650 ca        1 PX1     -0.156900
     14 C'         -4.1670   -2.9420    0.4990 c         1 PX1      0.580500
     15 O'         -5.3710   -3.2040    0.4490 o         1 PX1     -0.529100
     16 N10        -1.6690   -1.5060    0.8410 nd        1 PX1     -0.643000
     17 C11        -0.5260   -0.8950    1.0280 cc        1 PX1      0.425800
     18 C12         0.2530   -1.0090    2.2770 cc        1 PX1      0.196400
     19 C13        -1.4840   -2.3930    3.1250 ca        1 PX1      0.276700
     20 C14        -2.1700   -2.2860    1.8910 ca        1 PX1      0.239300
     21 C15         2.1750   -0.5180    3.7840 c3        1 PX1     -0.046900
     22 C16        -1.2030   -3.2050    5.4830 c3        1 PX1     -0.048800
     23 N7         -3.6870   -4.6430    5.0670 nv        1 PX1     -0.828200
     24 H          -1.8430    0.4570   -0.9220 h4        1 PX1      0.149000
     25 HA         -0.9450    1.7690   -2.3830 ho        1 PX1      0.426000
     26 H2          3.2100    0.2470   -0.9040 hn        1 PX1      0.403400
     27 H8         -4.8600   -4.2370    2.6980 ha        1 PX1      0.160000
     28 H9         -3.5930   -2.6750   -0.4150 h4        1 PX1      0.029200
     29 H151        2.8110    0.3880    3.9470 hc        1 PX1      0.056033
     30 H152        1.4570   -0.6200    4.6360 hc        1 PX1      0.056033
     31 H153        2.8390   -1.4190    3.7780 hc        1 PX1      0.056033
     32 H161       -0.9160   -4.2630    5.7080 hc        1 PX1      0.052367
     33 H162       -0.2660   -2.5960    5.4310 hc        1 PX1      0.052367
     34 H163       -1.8190   -2.8150    6.3330 hc        1 PX1      0.052367
     35 H7N1       -4.6530   -4.8700    5.0080 hn        1 PX1      0.410800
     36 H7N2       -3.3490   -4.4660    5.9850 hn        1 PX1      0.410800
@<TRIPOS>BOND
     1    1    2 2   
     2    1    4 1   
     3    1   17 1   
     4    2    3 1   
     5    2   24 1   
     6    3   25 1   
     7    4    5 2   
     8    4    6 1   
     9    5   26 1   
    10    6    7 2   
    11    6    8 1   
    12    8   18 2   
    13    8   21 1   
    14    9   18 1   
    15    9   19 1   
    16   10   11 ar  
    17   10   19 ar  
    18   10   22 1   
    19   11   12 ar  
    20   11   23 1   
    21   12   13 ar  
    22   12   27 1   
    23   13   14 1   
    24   13   20 ar  
    25   14   15 2   
    26   14   28 1   
    27   16   17 2   
    28   16   20 1   
    29   17   18 1   
    30   19   20 ar  
    31   21   29 1   
    32   21   30 1   
    33   21   31 1   
    34   22   32 1   
    35   22   33 1   
    36   22   34 1   
    37   23   35 1   
    38   23   36 1   
@<TRIPOS>SUBSTRUCTURE
     1 PX1         1 TEMP              0 ****  ****    0 ROOT
