@<TRIPOS>MOLECULE
PX1
   36    38     1     0     0
SMALL
bcc


@<TRIPOS>ATOM
      1 C1          0.0510   -0.0150   -0.0020 cc        1 PX1     -0.343400
      2 C          -0.7540    0.6080   -0.9010 c2        1 PX1      0.128100
      3 O          -0.2290    1.4760   -1.8130 oh        1 PX1     -0.466100
      4 C2          1.5170    0.1390    0.0230 cc        1 PX1      0.436600
      5 N2          2.2190    0.0950   -1.0530 n2        1 PX1     -0.694100
      6 C3          2.0990    0.3340    1.4050 c         1 PX1      0.447000
      7 O3          3.1030    1.0380    1.5660 o         1 PX1     -0.515100
      8 C4          1.4480   -0.4020    2.4960 cd        1 PX1     -0.202400
      9 O5         -0.2870   -1.7080    3.3460 os        1 PX1     -0.387800
     10 C6         -1.9610   -3.1270    4.2170 ca        1 PX1     -0.200600
     11 C7         -3.1800   -3.8350    4.0570 ca        1 PX1      0.182600
     12 C8         -3.8690   -3.7530    2.8180 ca        1 PX1     -0.164000
     13 C9         -3.3760   -3.0140    1.7530 ca        1 PX1     -0.156900
     14 C'         -4.1320   -2.9980    0.4800 c         1 PX1      0.580500
     15 O'         -5.3310   -3.2810    0.4200 o         1 PX1     -0.529100
     16 N10        -1.6650   -1.5130    0.8350 nd        1 PX1     -0.643000
     17 C11        -0.5290   -0.8900    1.0250 cc        1 PX1      0.425800
     18 C12         0.2420   -0.9900    2.2790 cc        1 PX1      0.196400
     19 C13        -1.4860   -2.3810    3.1280 ca        1 PX1      0.276700
     20 C14        -2.1620   -2.2950    1.8870 ca        1 PX1      0.239300
     21 C15         2.1420   -0.4900    3.7990 c3        1 PX1     -0.046900
     22 C16        -1.2090   -3.1800    5.4910 c3        1 PX1     -0.048800
     23 N7         -3.6660   -4.6580    5.0640 nh        1 PX1     -0.828200
     24 H          -1.8500    0.4700   -0.9140 h4        1 PX1      0.149000
     25 HA         -0.9560    1.7850   -2.3750 ho        1 PX1      0.426000
     26 H2          3.2020    0.2410   -0.9220 hn        1 PX1      0.403400
     27 H8         -4.8240   -4.2890    2.6810 ha        1 PX1      0.160000
     28 H9         -3.5550   -2.7270   -0.4310 h4        1 PX1      0.029200
     29 H151        2.2660   -1.5620    4.0980 hc        1 PX1      0.056033
     30 H152        3.1470   -0.0040    3.7490 hc        1 PX1      0.056033
     31 H153        1.5350    0.0180    4.5900 hc        1 PX1      0.056033
     32 H161       -0.2710   -2.5720    5.4380 hc        1 PX1      0.052367
     33 H162       -0.9230   -4.2360    5.7310 hc        1 PX1      0.052367
     34 H163       -1.8310   -2.7800    6.3310 hc        1 PX1      0.052367
     35 H7N1       -4.6270   -4.9040    4.9970 hn        1 PX1      0.410800
     36 H7N2       -3.3410   -4.4680    5.9840 hn        1 PX1      0.410800
@<TRIPOS>BOND
     1    1    2 2   
     2    1    4 1   
     3    1   17 1   
     4    2    3 1   
     5    2   24 1   
     6    3   25 1   
     7    4    5 2   
     8    4    6 1   
     9    5   26 1   
    10    6    7 2   
    11    6    8 1   
    12    8   18 2   
    13    8   21 1   
    14    9   18 1   
    15    9   19 1   
    16   10   11 ar  
    17   10   19 ar  
    18   10   22 1   
    19   11   12 ar  
    20   11   23 1   
    21   12   13 ar  
    22   12   27 1   
    23   13   14 1   
    24   13   20 ar  
    25   14   15 2   
    26   14   28 1   
    27   16   17 2   
    28   16   20 1   
    29   17   18 1   
    30   19   20 ar  
    31   21   29 1   
    32   21   30 1   
    33   21   31 1   
    34   22   32 1   
    35   22   33 1   
    36   22   34 1   
    37   23   35 1   
    38   23   36 1   
@<TRIPOS>SUBSTRUCTURE
     1 PX1         1 TEMP              0 ****  ****    0 ROOT
