@<TRIPOS>MOLECULE
PX1
   37    39     1     0     0
SMALL
bcc


@<TRIPOS>ATOM
      1 C1          0.1020   -0.0870   -0.0290 cc        1 PX1     -0.389400
      2 C          -0.6650    0.4060   -1.0500 c2        1 PX1      0.191100
      3 O          -0.1160    1.2270   -1.9750 oh        1 PX1     -0.441100
      4 C2          1.5530    0.1700    0.0730 cc        1 PX1      0.432600
      5 N2          2.3210    0.1090   -0.9530 n2        1 PX1     -0.673100
      6 C3          2.0180    0.4850    1.4720 c         1 PX1      0.430000
      7 O3          2.8760    1.3410    1.6940 o         1 PX1     -0.466100
      8 C4          1.4130   -0.3420    2.5400 cd        1 PX1     -0.114400
      9 O5         -0.2280   -1.8170    3.3100 os        1 PX1     -0.385800
     10 C6         -1.9500   -3.1540    4.1970 ca        1 PX1     -0.096600
     11 C7         -3.2010   -3.7910    4.0220 ca        1 PX1     -0.093400
     12 C8         -3.9210   -3.6800    2.8280 ca        1 PX1     -0.063000
     13 C9         -3.4200   -2.9290    1.7630 ca        1 PX1     -0.209900
     14 C'         -4.2270   -2.8540    0.5170 c         1 PX1      0.582500
     15 O'         -5.3510   -3.3540    0.4600 o         1 PX1     -0.506100
     16 N10        -1.6590   -1.5100    0.8340 nd        1 PX1     -0.723000
     17 C11        -0.4980   -0.9110    1.0130 cc        1 PX1      0.537800
     18 C12         0.2610   -1.0070    2.2750 cc        1 PX1      0.122400
     19 C13        -1.4650   -2.4080    3.1150 ca        1 PX1      0.233700
     20 C14        -2.1750   -2.2690    1.8860 ca        1 PX1      0.397300
     21 C15         2.1220   -0.4150    3.8320 c3        1 PX1     -0.066900
     22 C16        -1.1880   -3.2740    5.4600 c3        1 PX1     -0.084800
     23 N7         -3.7490   -4.5840    5.1210 n4        1 PX1     -0.692000
     24 H          -1.7460    0.1890   -1.1410 h4        1 PX1      0.156000
     25 HA         -0.8020    1.4670   -2.6210 ho        1 PX1      0.447000
     26 H2          3.2840    0.3310   -0.7910 hn        1 PX1      0.419400
     27 H8         -4.9020   -4.1750    2.6860 ha        1 PX1      0.180000
     28 H9         -3.7620   -2.3340   -0.3470 h4        1 PX1      0.055200
     29 H151        1.4190   -0.6630    4.6660 hc        1 PX1      0.071033
     30 H152        2.9100   -1.2110    3.7870 hc        1 PX1      0.071033
     31 H153        2.6250    0.5620    4.0520 hc        1 PX1      0.071033
     32 H161       -0.2520   -2.6550    5.4250 hc        1 PX1      0.072700
     33 H162       -1.7950   -2.9170    6.3290 hc        1 PX1      0.072700
     34 H163       -0.8810   -4.3360    5.6370 hc        1 PX1      0.072700
     35 H7N1       -3.9560   -3.9680    5.9160 hn        1 PX1      0.463133
     36 H7N2       -3.0570   -5.2840    5.4140 hn        1 PX1      0.463133
     37 H73        -4.6090   -5.0560    4.8200 hn        1 PX1      0.463133
@<TRIPOS>BOND
     1    1    2 2   
     2    1    4 1   
     3    1   17 1   
     4    2    3 1   
     5    2   24 1   
     6    3   25 1   
     7    4    5 2   
     8    4    6 1   
     9    5   26 1   
    10    6    7 2   
    11    6    8 1   
    12    8   18 2   
    13    8   21 1   
    14    9   18 1   
    15    9   19 1   
    16   10   11 ar  
    17   10   19 ar  
    18   10   22 1   
    19   11   12 ar  
    20   11   23 1   
    21   12   13 ar  
    22   12   27 1   
    23   13   14 1   
    24   13   20 ar  
    25   14   15 2   
    26   14   28 1   
    27   16   17 2   
    28   16   20 1   
    29   17   18 1   
    30   19   20 ar  
    31   21   29 1   
    32   21   30 1   
    33   21   31 1   
    34   22   32 1   
    35   22   33 1   
    36   22   34 1   
    37   23   35 1   
    38   23   36 1   
    39   23   37 1   
@<TRIPOS>SUBSTRUCTURE
     1 PX1         1 TEMP              0 ****  ****    0 ROOT
