@<TRIPOS>MOLECULE
PX1
   36    38     1     0     0
SMALL
bcc


@<TRIPOS>ATOM
      1 C1          2.3250   -1.0620   -0.1500 cc        1 PX1     -0.343400
      2 C           2.5130   -2.2840   -0.7120 c2        1 PX1      0.127100
      3 O           3.7720   -2.7880   -0.8650 oh        1 PX1     -0.466100
      4 C2          3.4210   -0.2320    0.3820 cc        1 PX1      0.436600
      5 N2          4.3530   -0.7320    1.1130 n2        1 PX1     -0.693100
      6 C3          3.3340    1.2300    0.0070 c         1 PX1      0.447000
      7 O3          4.3650    1.8960   -0.1490 o         1 PX1     -0.516100
      8 C4          1.9860    1.8040   -0.0880 cd        1 PX1     -0.201400
      9 O5         -0.3390    1.5990   -0.1320 os        1 PX1     -0.387800
     10 C6         -2.6920    1.4540   -0.0040 ca        1 PX1     -0.200600
     11 C7         -3.8730    0.6760    0.1010 ca        1 PX1      0.182600
     12 C8         -3.7630   -0.7380    0.1790 ca        1 PX1     -0.164000
     13 C9         -2.5350   -1.3790    0.1720 ca        1 PX1     -0.156900
     14 C'         -2.4940   -2.8550    0.2870 c         1 PX1      0.580500
     15 O'         -3.4660   -3.5650    0.0170 o         1 PX1     -0.529100
     16 N10        -0.0880   -1.2570    0.0180 nd        1 PX1     -0.641000
     17 C11         0.9740   -0.4940   -0.0570 cc        1 PX1      0.424800
     18 C12         0.9060    0.9800   -0.0830 cc        1 PX1      0.196400
     19 C13        -1.4600    0.7820   -0.0180 ca        1 PX1      0.275700
     20 C14        -1.3390   -0.6260    0.0640 ca        1 PX1      0.239300
     21 C15         1.8640    3.2750   -0.1820 c3        1 PX1     -0.044900
     22 C16        -2.7550    2.9320   -0.0880 c3        1 PX1     -0.048800
     23 N7         -5.1200    1.2780    0.2010 nh        1 PX1     -0.829200
     24 H           1.6780   -2.8990   -1.0910 h4        1 PX1      0.149000
     25 HA          3.6870   -3.6740   -1.2510 ho        1 PX1      0.426000
     26 H2          5.0620   -0.0830    1.3950 hn        1 PX1      0.403400
     27 H8         -4.6740   -1.3580    0.2510 ha        1 PX1      0.160000
     28 H9         -1.5380   -3.2940    0.6470 h4        1 PX1      0.029200
     29 H151        2.7700    3.7730    0.2430 hc        1 PX1      0.055367
     30 H152        1.7670    3.5790   -1.2550 hc        1 PX1      0.055367
     31 H153        0.9560    3.6320    0.3660 hc        1 PX1      0.055367
     32 H161       -3.2650    3.3520    0.8150 hc        1 PX1      0.052367
     33 H162       -1.7320    3.3810   -0.1470 hc        1 PX1      0.052367
     34 H163       -3.3240    3.2480   -0.9990 hc        1 PX1      0.052367
     35 H7N1       -5.1890    2.2070   -0.1450 hn        1 PX1      0.410800
     36 H7N2       -5.9010    0.6950    0.0070 hn        1 PX1      0.410800
@<TRIPOS>BOND
     1    1    2 2   
     2    1    4 1   
     3    1   17 1   
     4    2    3 1   
     5    2   24 1   
     6    3   25 1   
     7    4    5 2   
     8    4    6 1   
     9    5   26 1   
    10    6    7 2   
    11    6    8 1   
    12    8   18 2   
    13    8   21 1   
    14    9   18 1   
    15    9   19 1   
    16   10   11 ar  
    17   10   19 ar  
    18   10   22 1   
    19   11   12 ar  
    20   11   23 1   
    21   12   13 ar  
    22   12   27 1   
    23   13   14 1   
    24   13   20 ar  
    25   14   15 2   
    26   14   28 1   
    27   16   17 2   
    28   16   20 1   
    29   17   18 1   
    30   19   20 ar  
    31   21   29 1   
    32   21   30 1   
    33   21   31 1   
    34   22   32 1   
    35   22   33 1   
    36   22   34 1   
    37   23   35 1   
    38   23   36 1   
@<TRIPOS>SUBSTRUCTURE
     1 PX1         1 TEMP              0 ****  ****    0 ROOT
