@<TRIPOS>MOLECULE
PX2
   87    86     1     0     0
SMALL
bcc


@<TRIPOS>ATOM
      1 O1         -4.3470   -1.0020    3.1540 o         1 PX2     -0.916500
      2 O2         -4.8970   -2.5230    1.2930 o         1 PX2     -0.916500
      3 P1         -3.7730   -1.8480    2.0440 p5        1 PX2      1.313900
      4 O3         -2.8590   -2.8970    2.6310 o         1 PX2     -0.916500
      5 O4         -2.9540   -0.9310    1.0520 os        1 PX2     -0.555200
      6 C1         -1.5830   -1.1980    0.8680 c3        1 PX2      0.230400
      7 C2         -0.9950   -0.1840   -0.0880 c3        1 PX2      0.074100
      8 C3          0.3980    0.1890    0.3670 c3        1 PX2      0.129400
      9 O5          0.3520    0.6340    1.7030 os        1 PX2     -0.465900
     10 C4          1.6160    0.8760    2.2660 c         1 PX2      0.678100
     11 O6          2.6210    0.6180    1.6350 o         1 PX2     -0.596000
     12 C5          1.7250    1.4350    3.6670 c3        1 PX2     -0.207400
     13 C6          2.9530    0.8650    4.3440 c3        1 PX2     -0.077400
     14 C7          3.1680    1.5620    5.6690 c3        1 PX2     -0.068400
     15 C8          4.1160    0.7460    6.5200 c3        1 PX2     -0.077400
     16 C9          4.3820    1.4740    7.8190 c3        1 PX2     -0.078400
     17 C10         4.9270    0.5010    8.8400 c3        1 PX2     -0.078400
     18 C11         5.0910    1.2040   10.1690 c3        1 PX2     -0.078400
     19 C12         5.2690    0.1770   11.2640 c3        1 PX2     -0.079400
     20 C13         5.3950    0.8790   12.5990 c3        1 PX2     -0.079400
     21 C14         5.4000   -0.1480   13.7100 c3        1 PX2     -0.080400
     22 C15         5.2720    0.5530   15.0450 c3        1 PX2     -0.090100
     23 O7         -0.9340   -0.7380   -1.3800 os        1 PX2     -0.417900
     24 C16        -1.8670   -0.1930   -2.2780 c         1 PX2      0.630100
     25 O8         -2.2970    0.9290   -2.1010 o         1 PX2     -0.581000
     26 C17        -2.3490   -1.0100   -3.4570 c3        1 PX2     -0.139400
     27 C18        -2.2140   -0.1940   -4.7250 c3        1 PX2     -0.076400
     28 C19        -3.1640   -0.7310   -5.7730 c3        1 PX2     -0.078400
     29 C20        -2.6910   -0.3060   -7.1470 c3        1 PX2     -0.078400
     30 C21        -3.8060   -0.5110   -8.1490 c3        1 PX2     -0.079400
     31 C22        -3.2230   -0.5810   -9.5440 c3        1 PX2     -0.078400
     32 C23        -4.3150   -0.3260  -10.5600 c3        1 PX2     -0.079400
     33 C24        -3.9000   -0.8950  -11.9000 c3        1 PX2     -0.079400
     34 C25        -4.7000   -0.2310  -12.9990 c3        1 PX2     -0.079400
     35 C26        -4.4520   -0.9490  -14.3080 c3        1 PX2     -0.080400
     36 C27        -4.9360   -0.0880  -15.4550 c3        1 PX2     -0.091100
     37 H2         -1.1200   -1.1410    1.7290 h1        1 PX2      0.014700
     38 H3         -1.4730   -2.0980    0.4970 h1        1 PX2      0.014700
     39 H4         -1.5590    0.6140   -0.1030 h1        1 PX2      0.110700
     40 H5          0.7470    0.9050   -0.2040 h1        1 PX2      0.040700
     41 H6          0.9830   -0.5940    0.3030 h1        1 PX2      0.040700
     42 H7          1.8000    2.4100    3.6240 hc        1 PX2      0.139700
     43 H8          0.9280    1.1910    4.1790 hc        1 PX2      0.139700
     44 H9          3.7340    1.0030    3.7720 hc        1 PX2      0.063700
     45 H10         2.8250   -0.0930    4.4960 hc        1 PX2      0.063700
     46 H11         2.3110    1.6540    6.1320 hc        1 PX2      0.040200
     47 H12         3.5510    2.4490    5.5130 hc        1 PX2      0.040200
     48 H13         3.7150   -0.1250    6.7110 hc        1 PX2      0.040200
     49 H14         4.9590    0.6190    6.0390 hc        1 PX2      0.040200
     50 H15         3.5480    1.8630    8.1510 hc        1 PX2      0.035200
     51 H16         5.0350    2.1860    7.6660 hc        1 PX2      0.035200
     52 H17         5.7950    0.1650    8.5390 hc        1 PX2      0.036200
     53 H18         4.3050   -0.2470    8.9420 hc        1 PX2      0.036200
     54 H19         5.8770    1.7850   10.1360 hc        1 PX2      0.036200
     55 H20         4.2960    1.7430   10.3530 hc        1 PX2      0.036200
     56 H21         4.4940   -0.4200   11.2810 hc        1 PX2      0.036700
     57 H22         6.0780   -0.3450   11.0930 hc        1 PX2      0.036700
     58 H23         4.6380    1.4870   12.7200 hc        1 PX2      0.037200
     59 H24         6.2290    1.3880   12.6220 hc        1 PX2      0.037200
     60 H25         4.6470   -0.7610   13.5910 hc        1 PX2      0.036200
     61 H26         6.2380   -0.6510   13.6850 hc        1 PX2      0.036200
     62 H27         4.4610    1.1030   15.0490 hc        1 PX2      0.026700
     63 H28         5.2180   -0.1140   15.7600 hc        1 PX2      0.026700
     64 H29         6.0550    1.1250   15.1890 hc        1 PX2      0.026700
     65 H30        -1.8090   -1.8220   -3.5330 hc        1 PX2      0.071700
     66 H31        -3.2870   -1.2530   -3.3240 hc        1 PX2      0.071700
     67 H32        -1.2950   -0.2560   -5.0550 hc        1 PX2      0.050700
     68 H33        -2.4300    0.7400   -4.5360 hc        1 PX2      0.050700
     69 H34        -4.0610   -0.3750   -5.6130 hc        1 PX2      0.037200
     70 H35        -3.1870   -1.7070   -5.7240 hc        1 PX2      0.037200
     71 H36        -1.9170   -0.8450   -7.4060 hc        1 PX2      0.038700
     72 H37        -2.4390    0.6390   -7.1270 hc        1 PX2      0.038700
     73 H38        -4.2750   -1.3450   -7.9490 hc        1 PX2      0.037700
     74 H39        -4.4340    0.2370   -8.0960 hc        1 PX2      0.037700
     75 H40        -2.5230    0.0960   -9.6400 hc        1 PX2      0.038200
     76 H41        -2.8400   -1.4690   -9.6930 hc        1 PX2      0.038200
     77 H42        -4.4610    0.6370  -10.6460 hc        1 PX2      0.038200
     78 H43        -5.1420   -0.7560  -10.2650 hc        1 PX2      0.038200
     79 H44        -4.0680   -1.8580  -11.9110 hc        1 PX2      0.038200
     80 H45        -2.9470   -0.7280  -12.0440 hc        1 PX2      0.038200
     81 H46        -5.6530   -0.2730  -12.7800 hc        1 PX2      0.038700
     82 H47        -4.4260    0.7040  -13.0830 hc        1 PX2      0.038700
     83 H48        -3.4940   -1.1180  -14.4100 hc        1 PX2      0.037200
     84 H49        -4.9360   -1.7990  -14.3110 hc        1 PX2      0.037200
     85 H50        -5.8660    0.1770  -15.2940 hc        1 PX2      0.029700
     86 H51        -4.8810   -0.5970  -16.2910 hc        1 PX2      0.029700
     87 H52        -4.3740    0.7120  -15.5230 hc        1 PX2      0.029700
@<TRIPOS>BOND
     1    1    3 1   
     2    2    3 1   
     3    3    4 1   
     4    3    5 1   
     5    5    6 1   
     6    6    7 1   
     7    6   37 1   
     8    6   38 1   
     9    7    8 1   
    10    7   23 1   
    11    7   39 1   
    12    8    9 1   
    13    8   40 1   
    14    8   41 1   
    15    9   10 1   
    16   10   11 2   
    17   10   12 1   
    18   12   13 1   
    19   12   42 1   
    20   12   43 1   
    21   13   14 1   
    22   13   44 1   
    23   13   45 1   
    24   14   15 1   
    25   14   46 1   
    26   14   47 1   
    27   15   16 1   
    28   15   48 1   
    29   15   49 1   
    30   16   17 1   
    31   16   50 1   
    32   16   51 1   
    33   17   18 1   
    34   17   52 1   
    35   17   53 1   
    36   18   19 1   
    37   18   54 1   
    38   18   55 1   
    39   19   20 1   
    40   19   56 1   
    41   19   57 1   
    42   20   21 1   
    43   20   58 1   
    44   20   59 1   
    45   21   22 1   
    46   21   60 1   
    47   21   61 1   
    48   22   62 1   
    49   22   63 1   
    50   22   64 1   
    51   23   24 1   
    52   24   25 2   
    53   24   26 1   
    54   26   27 1   
    55   26   65 1   
    56   26   66 1   
    57   27   28 1   
    58   27   67 1   
    59   27   68 1   
    60   28   29 1   
    61   28   69 1   
    62   28   70 1   
    63   29   30 1   
    64   29   71 1   
    65   29   72 1   
    66   30   31 1   
    67   30   73 1   
    68   30   74 1   
    69   31   32 1   
    70   31   75 1   
    71   31   76 1   
    72   32   33 1   
    73   32   77 1   
    74   32   78 1   
    75   33   34 1   
    76   33   79 1   
    77   33   80 1   
    78   34   35 1   
    79   34   81 1   
    80   34   82 1   
    81   35   36 1   
    82   35   83 1   
    83   35   84 1   
    84   36   85 1   
    85   36   86 1   
    86   36   87 1   
@<TRIPOS>SUBSTRUCTURE
     1 PX2         1 TEMP              0 ****  ****    0 ROOT
