@<TRIPOS>MOLECULE
PX2
   87    86     1     0     0
SMALL
bcc


@<TRIPOS>ATOM
      1 O1          0.9270    1.8090    2.2180 o         1 PX2     -0.915167
      2 O2          3.0540    3.2000    2.1310 o         1 PX2     -0.915167
      3 P1          2.2240    2.1100    1.5250 p5        1 PX2      1.323900
      4 O3          2.9740    0.9230    0.9600 o         1 PX2     -0.915167
      5 O4          1.7050    2.8250    0.0180 os        1 PX2     -0.564200
      6 C1          0.6160    3.6380    0.1070 c3        1 PX2      0.234400
      7 C2         -0.3840    3.4410   -1.0650 c3        1 PX2      0.091100
      8 C3          0.2680    3.2990   -2.4390 c3        1 PX2      0.144400
      9 O5          0.7590    1.9740   -2.6200 os        1 PX2     -0.457900
     10 C4          2.1330    1.8200   -2.6950 c         1 PX2      0.697100
     11 O6          2.7420    2.6690   -3.3590 o         1 PX2     -0.613000
     12 C5          2.6190    0.6220   -1.9780 c3        1 PX2     -0.218400
     13 C6          4.0200    0.2140   -2.3590 c3        1 PX2     -0.037400
     14 C7          4.6100   -0.6520   -1.2650 c3        1 PX2     -0.115400
     15 C8          6.0940   -0.8650   -1.4640 c3        1 PX2     -0.064400
     16 C9          6.6750   -1.7040   -0.3450 c3        1 PX2     -0.082400
     17 C10         8.1690   -1.8870   -0.5060 c3        1 PX2     -0.076400
     18 C11         8.7450   -2.7250    0.6160 c3        1 PX2     -0.080400
     19 C12        10.2400   -2.9050    0.4620 c3        1 PX2     -0.078400
     20 C13        10.8140   -3.7430    1.5830 c3        1 PX2     -0.079400
     21 C14        12.3100   -3.9220    1.4320 c3        1 PX2     -0.080400
     22 C15        12.8850   -4.7560    2.5470 c3        1 PX2     -0.090100
     23 O7         -1.1410    2.2600   -0.7430 os        1 PX2     -0.348900
     24 C16        -2.3630    2.0950   -1.2840 c         1 PX2      0.630100
     25 O8         -2.8690    2.9620   -2.0150 o         1 PX2     -0.624000
     26 C17        -2.9760    0.7830   -0.8820 c3        1 PX2     -0.139400
     27 C18        -4.4770    0.8980   -0.7360 c3        1 PX2     -0.074400
     28 C19        -5.0970   -0.4530   -0.4520 c3        1 PX2     -0.079400
     29 C20        -6.5980   -0.3430   -0.2820 c3        1 PX2     -0.077400
     30 C21        -7.2210   -1.6930   -0.0010 c3        1 PX2     -0.079400
     31 C22        -8.7200   -1.5830    0.1700 c3        1 PX2     -0.078400
     32 C23        -9.3430   -2.9340    0.4510 c3        1 PX2     -0.079400
     33 C24       -10.8430   -2.8250    0.6230 c3        1 PX2     -0.078400
     34 C25       -11.4650   -4.1750    0.9040 c3        1 PX2     -0.079400
     35 C26       -12.9660   -4.0670    1.0760 c3        1 PX2     -0.080400
     36 C27       -13.5900   -5.4100    1.3560 c3        1 PX2     -0.091100
     37 H2          0.9150    4.7290    0.0130 h1        1 PX2      0.012700
     38 H3          0.0620    3.4710    1.0760 h1        1 PX2      0.012700
     39 H4         -1.0880    4.3190   -1.1040 h1        1 PX2      0.023700
     40 H5          1.0870    4.0560   -2.5380 h1        1 PX2      0.042700
     41 H6         -0.5010    3.4400   -3.2470 h1        1 PX2      0.042700
     42 H7          1.8960   -0.2220   -2.0890 hc        1 PX2      0.152700
     43 H8          2.6000    0.9190   -0.8380 hc        1 PX2      0.152700
     44 H9          4.0250   -0.3370   -3.3370 hc        1 PX2      0.013200
     45 H10         4.6480    1.1340   -2.4940 hc        1 PX2      0.013200
     46 H11         4.0880   -1.6440   -1.2480 hc        1 PX2      0.090200
     47 H12         4.4040   -0.1530   -0.2650 hc        1 PX2      0.090200
     48 H13         6.6120    0.1300   -1.4900 hc        1 PX2      0.016700
     49 H14         6.2870   -1.3650   -2.4500 hc        1 PX2      0.016700
     50 H15         6.1730   -2.7070   -0.3290 hc        1 PX2      0.048200
     51 H16         6.4540   -1.2080    0.6370 hc        1 PX2      0.048200
     52 H17         8.6690   -0.8830   -0.5180 hc        1 PX2      0.029200
     53 H18         8.3870   -2.3770   -1.4910 hc        1 PX2      0.029200
     54 H19         8.2450   -3.7300    0.6290 hc        1 PX2      0.040700
     55 H20         8.5230   -2.2340    1.6000 hc        1 PX2      0.040700
     56 H21        10.7380   -1.8990    0.4510 hc        1 PX2      0.033700
     57 H22        10.4610   -3.3930   -0.5240 hc        1 PX2      0.033700
     58 H23        10.3150   -4.7480    1.5950 hc        1 PX2      0.039200
     59 H24        10.5920   -3.2530    2.5680 hc        1 PX2      0.039200
     60 H25        12.8060   -2.9150    1.4200 hc        1 PX2      0.034700
     61 H26        12.5290   -4.4090    0.4450 hc        1 PX2      0.034700
     62 H27        12.6960   -4.2740    3.5370 hc        1 PX2      0.027033
     63 H28        12.4190   -5.7710    2.5600 hc        1 PX2      0.027033
     64 H29        13.9880   -4.8750    2.4170 hc        1 PX2      0.027033
     65 H30        -2.7120    0.0350   -1.6750 hc        1 PX2      0.084200
     66 H31        -2.5040    0.4420    0.0800 hc        1 PX2      0.084200
     67 H32        -4.7160    1.6070    0.0990 hc        1 PX2      0.047200
     68 H33        -4.9120    1.3330   -1.6740 hc        1 PX2      0.047200
     69 H34        -4.8650   -1.1590   -1.2930 hc        1 PX2      0.040700
     70 H35        -4.6430   -0.8860    0.4780 hc        1 PX2      0.040700
     71 H36        -6.8280    0.3610    0.5610 hc        1 PX2      0.036700
     72 H37        -7.0500    0.0960   -1.2100 hc        1 PX2      0.036700
     73 H38        -6.9890   -2.3960   -0.8440 hc        1 PX2      0.039200
     74 H39        -6.7660   -2.1300    0.9270 hc        1 PX2      0.039200
     75 H40        -8.9510   -0.8800    1.0140 hc        1 PX2      0.036700
     76 H41        -9.1740   -1.1460   -0.7580 hc        1 PX2      0.036700
     77 H42        -9.1110   -3.6370   -0.3920 hc        1 PX2      0.039200
     78 H43        -8.8890   -3.3710    1.3790 hc        1 PX2      0.039200
     79 H44       -11.0740   -2.1220    1.4660 hc        1 PX2      0.037700
     80 H45       -11.2970   -2.3870   -0.3050 hc        1 PX2      0.037700
     81 H46       -11.2340   -4.8790    0.0610 hc        1 PX2      0.038700
     82 H47       -11.0110   -4.6130    1.8320 hc        1 PX2      0.038700
     83 H48       -13.1940   -3.3620    1.9190 hc        1 PX2      0.037200
     84 H49       -13.4170   -3.6280    0.1480 hc        1 PX2      0.037200
     85 H50       -14.6950   -5.3080    1.4800 hc        1 PX2      0.029367
     86 H51       -13.3930   -6.1190    0.5160 hc        1 PX2      0.029367
     87 H52       -13.1690   -5.8520    2.2910 hc        1 PX2      0.029367
@<TRIPOS>BOND
     1    1    3 1   
     2    2    3 1   
     3    3    4 1   
     4    3    5 1   
     5    5    6 1   
     6    6    7 1   
     7    6   37 1   
     8    6   38 1   
     9    7    8 1   
    10    7   23 1   
    11    7   39 1   
    12    8    9 1   
    13    8   40 1   
    14    8   41 1   
    15    9   10 1   
    16   10   11 2   
    17   10   12 1   
    18   12   13 1   
    19   12   42 1   
    20   12   43 1   
    21   13   14 1   
    22   13   44 1   
    23   13   45 1   
    24   14   15 1   
    25   14   46 1   
    26   14   47 1   
    27   15   16 1   
    28   15   48 1   
    29   15   49 1   
    30   16   17 1   
    31   16   50 1   
    32   16   51 1   
    33   17   18 1   
    34   17   52 1   
    35   17   53 1   
    36   18   19 1   
    37   18   54 1   
    38   18   55 1   
    39   19   20 1   
    40   19   56 1   
    41   19   57 1   
    42   20   21 1   
    43   20   58 1   
    44   20   59 1   
    45   21   22 1   
    46   21   60 1   
    47   21   61 1   
    48   22   62 1   
    49   22   63 1   
    50   22   64 1   
    51   23   24 1   
    52   24   25 2   
    53   24   26 1   
    54   26   27 1   
    55   26   65 1   
    56   26   66 1   
    57   27   28 1   
    58   27   67 1   
    59   27   68 1   
    60   28   29 1   
    61   28   69 1   
    62   28   70 1   
    63   29   30 1   
    64   29   71 1   
    65   29   72 1   
    66   30   31 1   
    67   30   73 1   
    68   30   74 1   
    69   31   32 1   
    70   31   75 1   
    71   31   76 1   
    72   32   33 1   
    73   32   77 1   
    74   32   78 1   
    75   33   34 1   
    76   33   79 1   
    77   33   80 1   
    78   34   35 1   
    79   34   81 1   
    80   34   82 1   
    81   35   36 1   
    82   35   83 1   
    83   35   84 1   
    84   36   85 1   
    85   36   86 1   
    86   36   87 1   
@<TRIPOS>SUBSTRUCTURE
     1 PX2         1 TEMP              0 ****  ****    0 ROOT
