@<TRIPOS>MOLECULE
PX2
   87    86     1     0     0
SMALL
bcc


@<TRIPOS>ATOM
      1 O1         -2.4390   -1.0940   -0.3660 o         1 PX2     -0.840500
      2 O2         -0.7030   -1.9560    1.4130 o         1 PX2     -0.840500
      3 P1         -1.2030   -1.7960    0.0310 p5        1 PX2      1.431800
      4 O3         -1.2140   -3.3150   -0.5810 oh        1 PX2     -0.791400
      5 O4          0.0440   -1.2030   -0.8770 os        1 PX2     -0.591200
      6 C1          1.3230   -1.7020   -0.6340 c3        1 PX2      0.189400
      7 C2          1.8560   -2.4070   -1.8940 c3        1 PX2      0.118100
      8 C3          3.3700   -2.3190   -2.0690 c3        1 PX2      0.143400
      9 O5          4.0220   -2.8780   -0.9430 os        1 PX2     -0.477900
     10 C4          5.4350   -2.9360   -1.0260 c2        1 PX2      0.430100
     11 O6          5.9040   -2.4080   -2.0730 o         1 PX2     -0.574000
     12 C5          6.0350   -3.5590    0.0530 c2        1 PX2     -0.599200
     13 C6          7.4870   -3.7100    0.1400 c3        1 PX2      0.076800
     14 C7          8.0610   -3.0410    1.3830 c3        1 PX2     -0.084400
     15 C8          9.5590   -3.2350    1.4830 c3        1 PX2     -0.077400
     16 C9         10.1270   -2.5670    2.7170 c3        1 PX2     -0.079400
     17 C10        11.6260   -2.7600    2.8150 c3        1 PX2     -0.078400
     18 C11        12.1910   -2.0910    4.0500 c3        1 PX2     -0.079400
     19 C12        13.6890   -2.2850    4.1470 c3        1 PX2     -0.078400
     20 C13        14.2540   -1.6160    5.3810 c3        1 PX2     -0.079400
     21 C14        15.7520   -1.8090    5.4790 c3        1 PX2     -0.080400
     22 C15        16.3190   -1.1440    6.7070 c3        1 PX2     -0.091100
     23 O7          1.4430   -3.7870   -1.7600 os        1 PX2     -0.411900
     24 C16         1.1960   -4.5020   -2.8830 c         1 PX2      0.647100
     25 O8          1.3930   -4.0180   -4.0030 o         1 PX2     -0.583000
     26 C17         0.6740   -5.8790   -2.5790 c3        1 PX2     -0.126400
     27 C18        -0.8370   -5.8930   -2.6890 c3        1 PX2     -0.097400
     28 C19        -1.3920   -7.2560   -2.3370 c3        1 PX2     -0.070400
     29 C20        -2.9030   -7.2620   -2.4200 c3        1 PX2     -0.082400
     30 C21        -3.4700   -8.6160   -2.0500 c3        1 PX2     -0.076400
     31 C22        -4.9820   -8.6180   -2.1310 c3        1 PX2     -0.080400
     32 C23        -5.5520   -9.9700   -1.7580 c3        1 PX2     -0.078400
     33 C24        -7.0640   -9.9710   -1.8390 c3        1 PX2     -0.079400
     34 C25        -7.6350  -11.3220   -1.4660 c3        1 PX2     -0.078400
     35 C26        -9.1470  -11.3240   -1.5460 c3        1 PX2     -0.081400
     36 C27        -9.7210  -12.6670   -1.1750 c3        1 PX2     -0.091100
     37 H2          2.0120   -0.8380   -0.4190 h1        1 PX2      0.051700
     38 H3          1.3210   -2.4040    0.2440 h1        1 PX2      0.051700
     39 H4          1.3670   -1.9680   -2.8090 h1        1 PX2      0.070700
     40 H5          3.6650   -1.2410   -2.1810 h1        1 PX2      0.032700
     41 H6          3.6710   -2.8740   -2.9980 h1        1 PX2      0.032700
     42 H7         -0.4270   -3.8000   -0.3530 ho        1 PX2      0.429000
     43 H8          5.4220   -3.9520    0.8650 ha        1 PX2      0.100000
     44 H9          7.7750   -4.8010    0.1800 hc        1 PX2     -0.008800
     45 H10         7.9820   -3.2750   -0.7700 hc        1 PX2     -0.008800
     46 H11         7.5650   -3.4630    2.2950 hc        1 PX2      0.028700
     47 H12         7.8220   -1.9460    1.3510 hc        1 PX2      0.028700
     48 H13         9.7960   -4.3310    1.5090 hc        1 PX2      0.025700
     49 H14        10.0520   -2.8130    0.5680 hc        1 PX2      0.025700
     50 H15         9.6340   -2.9880    3.6320 hc        1 PX2      0.034700
     51 H16         9.8910   -1.4700    2.6900 hc        1 PX2      0.034700
     52 H17        12.1190   -2.3390    1.9000 hc        1 PX2      0.033200
     53 H18        11.8610   -3.8570    2.8410 hc        1 PX2      0.033200
     54 H19        11.9550   -0.9950    4.0230 hc        1 PX2      0.037700
     55 H20        11.6970   -2.5120    4.9640 hc        1 PX2      0.037700
     56 H21        13.9250   -3.3820    4.1730 hc        1 PX2      0.036200
     57 H22        14.1830   -1.8640    3.2310 hc        1 PX2      0.036200
     58 H23        14.0180   -0.5190    5.3550 hc        1 PX2      0.038200
     59 H24        13.7600   -2.0370    6.2960 hc        1 PX2      0.038200
     60 H25        16.2440   -1.3880    4.5620 hc        1 PX2      0.036200
     61 H26        15.9860   -2.9060    5.5040 hc        1 PX2      0.036200
     62 H27        15.8580   -1.5670    7.6320 hc        1 PX2      0.027700
     63 H28        17.4230   -1.2980    6.7600 hc        1 PX2      0.027700
     64 H29        16.1160   -0.0450    6.6880 hc        1 PX2      0.027700
     65 H30         0.9880   -6.1730   -1.5430 hc        1 PX2      0.061200
     66 H31         1.1320   -6.5960   -3.3070 hc        1 PX2      0.061200
     67 H32        -1.1370   -5.6190   -3.7340 hc        1 PX2      0.077700
     68 H33        -1.2680   -5.1110   -2.0010 hc        1 PX2      0.077700
     69 H34        -1.0720   -7.5340   -1.2980 hc        1 PX2      0.029200
     70 H35        -0.9720   -8.0310   -3.0310 hc        1 PX2      0.029200
     71 H36        -3.2230   -6.9900   -3.4600 hc        1 PX2      0.049200
     72 H37        -3.3150   -6.4770   -1.7310 hc        1 PX2      0.049200
     73 H38        -3.0560   -9.4000   -2.7380 hc        1 PX2      0.032700
     74 H39        -3.1490   -8.8850   -1.0100 hc        1 PX2      0.032700
     75 H40        -5.3030   -8.3480   -3.1710 hc        1 PX2      0.041700
     76 H41        -5.3940   -7.8330   -1.4440 hc        1 PX2      0.041700
     77 H42        -5.1390  -10.7550   -2.4450 hc        1 PX2      0.035700
     78 H43        -5.2310  -10.2390   -0.7180 hc        1 PX2      0.035700
     79 H44        -7.3850   -9.7010   -2.8790 hc        1 PX2      0.039700
     80 H45        -7.4760   -9.1850   -1.1520 hc        1 PX2      0.039700
     81 H46        -7.3140  -11.5920   -0.4250 hc        1 PX2      0.036700
     82 H47        -7.2220  -12.1080   -2.1520 hc        1 PX2      0.036700
     83 H48        -9.5570  -10.5360   -0.8590 hc        1 PX2      0.038200
     84 H49        -9.4660  -11.0520   -2.5870 hc        1 PX2      0.038200
     85 H50       -10.8350  -12.6460   -1.2400 hc        1 PX2      0.028033
     86 H51        -9.3420  -13.4610   -1.8630 hc        1 PX2      0.028033
     87 H52        -9.4330  -12.9430   -0.1320 hc        1 PX2      0.028033
@<TRIPOS>BOND
     1    1    3 1   
     2    2    3 1   
     3    3    4 1   
     4    3    5 1   
     5    4   42 1   
     6    5    6 1   
     7    6    7 1   
     8    6   37 1   
     9    6   38 1   
    10    7    8 1   
    11    7   23 1   
    12    7   39 1   
    13    8    9 1   
    14    8   40 1   
    15    8   41 1   
    16    9   10 1   
    17   10   11 1   
    18   10   12 2   
    19   12   13 1   
    20   12   43 1   
    21   13   14 1   
    22   13   44 1   
    23   13   45 1   
    24   14   15 1   
    25   14   46 1   
    26   14   47 1   
    27   15   16 1   
    28   15   48 1   
    29   15   49 1   
    30   16   17 1   
    31   16   50 1   
    32   16   51 1   
    33   17   18 1   
    34   17   52 1   
    35   17   53 1   
    36   18   19 1   
    37   18   54 1   
    38   18   55 1   
    39   19   20 1   
    40   19   56 1   
    41   19   57 1   
    42   20   21 1   
    43   20   58 1   
    44   20   59 1   
    45   21   22 1   
    46   21   60 1   
    47   21   61 1   
    48   22   62 1   
    49   22   63 1   
    50   22   64 1   
    51   23   24 1   
    52   24   25 2   
    53   24   26 1   
    54   26   27 1   
    55   26   65 1   
    56   26   66 1   
    57   27   28 1   
    58   27   67 1   
    59   27   68 1   
    60   28   29 1   
    61   28   69 1   
    62   28   70 1   
    63   29   30 1   
    64   29   71 1   
    65   29   72 1   
    66   30   31 1   
    67   30   73 1   
    68   30   74 1   
    69   31   32 1   
    70   31   75 1   
    71   31   76 1   
    72   32   33 1   
    73   32   77 1   
    74   32   78 1   
    75   33   34 1   
    76   33   79 1   
    77   33   80 1   
    78   34   35 1   
    79   34   81 1   
    80   34   82 1   
    81   35   36 1   
    82   35   83 1   
    83   35   84 1   
    84   36   85 1   
    85   36   86 1   
    86   36   87 1   
@<TRIPOS>SUBSTRUCTURE
     1 PX2         1 TEMP              0 ****  ****    0 ROOT
