@<TRIPOS>MOLECULE
PX2
   87    86     1     0     0
SMALL
bcc


@<TRIPOS>ATOM
      1 O1          2.1820   -1.4760    1.2120 o         1 PX2     -0.915167
      2 O2          3.7630    0.5140    1.1050 o         1 PX2     -0.915167
      3 P1          3.5360   -0.9430    0.8400 p5        1 PX2      1.323900
      4 O3          4.7100   -1.8660    1.0830 o         1 PX2     -0.915167
      5 O4          3.5160   -1.0100   -0.9050 os        1 PX2     -0.564200
      6 C1          2.3250   -0.6950   -1.4840 c3        1 PX2      0.234400
      7 C2          1.9630   -1.6260   -2.6730 c3        1 PX2      0.091100
      8 C3          3.1280   -1.9440   -3.6080 c3        1 PX2      0.144400
      9 O5          3.9520   -2.9610   -3.0460 os        1 PX2     -0.457900
     10 C4          5.2320   -2.5920   -2.6680 c         1 PX2      0.697100
     11 O6          5.8350   -1.8390   -3.4430 o         1 PX2     -0.613000
     12 C5          5.6570   -3.2120   -1.3950 c3        1 PX2     -0.218400
     13 C6          7.1460   -3.1520   -1.1590 c3        1 PX2     -0.037400
     14 C7          7.4320   -3.3220    0.3200 c3        1 PX2     -0.115400
     15 C8          8.8730   -3.0020    0.6480 c3        1 PX2     -0.064400
     16 C9          9.1340   -3.1430    2.1320 c3        1 PX2     -0.082400
     17 C10        10.5610   -2.7810    2.4830 c3        1 PX2     -0.076400
     18 C11        10.8160   -2.9210    3.9690 c3        1 PX2     -0.080400
     19 C12        12.2410   -2.5540    4.3230 c3        1 PX2     -0.078400
     20 C13        12.4940   -2.6940    5.8090 c3        1 PX2     -0.079400
     21 C14        13.9190   -2.3260    6.1650 c3        1 PX2     -0.080400
     22 C15        14.1750   -2.4640    7.6440 c3        1 PX2     -0.090100
     23 O7          1.4470   -2.8340   -2.0850 os        1 PX2     -0.348900
     24 C16         0.6270   -3.6190   -2.8100 c         1 PX2      0.630100
     25 O8          0.2700   -3.2980   -3.9550 o         1 PX2     -0.623000
     26 C17         0.2370   -4.8600   -2.0560 c3        1 PX2     -0.139400
     27 C18        -1.1710   -5.2920   -2.3980 c3        1 PX2     -0.074400
     28 C19        -1.5100   -6.6080   -1.7310 c3        1 PX2     -0.079400
     29 C20        -2.9260   -7.0360   -2.0510 c3        1 PX2     -0.077400
     30 C21        -3.2650   -8.3550   -1.3890 c3        1 PX2     -0.079400
     31 C22        -4.6810   -8.7830   -1.7070 c3        1 PX2     -0.078400
     32 C23        -5.0200  -10.1020   -1.0450 c3        1 PX2     -0.079400
     33 C24        -6.4360  -10.5310   -1.3640 c3        1 PX2     -0.078400
     34 C25        -6.7740  -11.8500   -0.7020 c3        1 PX2     -0.079400
     35 C26        -8.1900  -12.2800   -1.0200 c3        1 PX2     -0.080400
     36 C27        -8.5310  -13.5930   -0.3630 c3        1 PX2     -0.091100
     37 H2          1.4830   -0.7380   -0.7330 h1        1 PX2      0.012700
     38 H3          2.3650    0.3340   -1.9630 h1        1 PX2      0.012700
     39 H4          1.1470   -1.1480   -3.2850 h1        1 PX2      0.023700
     40 H5          2.7430   -2.3770   -4.5710 h1        1 PX2      0.042700
     41 H6          3.7110   -1.0070   -3.8020 h1        1 PX2      0.042700
     42 H7          5.1090   -2.5940   -0.5540 hc        1 PX2      0.152700
     43 H8          5.2660   -4.2550   -1.3150 hc        1 PX2      0.152700
     44 H9          7.5350   -2.1590   -1.5080 hc        1 PX2      0.013200
     45 H10         7.6780   -3.9430   -1.7520 hc        1 PX2      0.013200
     46 H11         6.7260   -2.6450    0.8990 hc        1 PX2      0.090200
     47 H12         7.2010   -4.3740    0.6280 hc        1 PX2      0.090200
     48 H13         9.5620   -3.6800    0.0780 hc        1 PX2      0.016700
     49 H14         9.1030   -1.9510    0.3270 hc        1 PX2      0.016700
     50 H15         8.9240   -4.1970    2.4520 hc        1 PX2      0.048200
     51 H16         8.4230   -2.4790    2.6930 hc        1 PX2      0.048200
     52 H17        11.2700   -3.4410    1.9160 hc        1 PX2      0.029200
     53 H18        10.7680   -1.7250    2.1650 hc        1 PX2      0.029200
     54 H19        10.6100   -3.9770    4.2870 hc        1 PX2      0.040700
     55 H20        10.1050   -2.2610    4.5320 hc        1 PX2      0.040700
     56 H21        12.4460   -1.4980    4.0050 hc        1 PX2      0.033700
     57 H22        12.9520   -3.2120    3.7570 hc        1 PX2      0.033700
     58 H23        11.7830   -2.0350    6.3740 hc        1 PX2      0.039200
     59 H24        12.2890   -3.7500    6.1270 hc        1 PX2      0.039200
     60 H25        14.6280   -2.9840    5.5970 hc        1 PX2      0.034700
     61 H26        14.1220   -1.2700    5.8450 hc        1 PX2      0.034700
     62 H27        13.4930   -1.7970    8.2250 hc        1 PX2      0.027033
     63 H28        15.2290   -2.1880    7.8860 hc        1 PX2      0.027033
     64 H29        14.0000   -3.5160    7.9770 hc        1 PX2      0.027033
     65 H30         0.9740   -5.6610   -2.3290 hc        1 PX2      0.084200
     66 H31         0.3400   -4.6630   -0.9540 hc        1 PX2      0.084200
     67 H32        -1.2740   -5.3850   -3.5110 hc        1 PX2      0.047200
     68 H33        -1.8950   -4.5020   -2.0640 hc        1 PX2      0.047200
     69 H34        -1.3870   -6.5080   -0.6200 hc        1 PX2      0.040700
     70 H35        -0.7910   -7.3990   -2.0730 hc        1 PX2      0.040700
     71 H36        -3.0490   -7.1300   -3.1620 hc        1 PX2      0.036700
     72 H37        -3.6430   -6.2460   -1.7050 hc        1 PX2      0.036700
     73 H38        -3.1410   -8.2590   -0.2780 hc        1 PX2      0.039200
     74 H39        -2.5470   -9.1440   -1.7340 hc        1 PX2      0.039200
     75 H40        -4.8050   -8.8770   -2.8180 hc        1 PX2      0.036700
     76 H41        -5.3990   -7.9940   -1.3610 hc        1 PX2      0.036700
     77 H42        -4.3010  -10.8910   -1.3910 hc        1 PX2      0.039200
     78 H43        -4.8960  -10.0070    0.0660 hc        1 PX2      0.039200
     79 H44        -6.5590  -10.6250   -2.4750 hc        1 PX2      0.037700
     80 H45        -7.1540   -9.7410   -1.0180 hc        1 PX2      0.037700
     81 H46        -6.0560  -12.6390   -1.0470 hc        1 PX2      0.038700
     82 H47        -6.6510  -11.7550    0.4090 hc        1 PX2      0.038700
     83 H48        -8.3120  -12.3720   -2.1310 hc        1 PX2      0.037200
     84 H49        -8.9070  -11.4890   -0.6750 hc        1 PX2      0.037200
     85 H50        -9.5790  -13.8910   -0.6100 hc        1 PX2      0.029367
     86 H51        -8.4390  -13.5130    0.7470 hc        1 PX2      0.029367
     87 H52        -7.8430  -14.3990   -0.7140 hc        1 PX2      0.029367
@<TRIPOS>BOND
     1    1    3 1   
     2    2    3 1   
     3    3    4 1   
     4    3    5 1   
     5    5    6 1   
     6    6    7 1   
     7    6   37 1   
     8    6   38 1   
     9    7    8 1   
    10    7   23 1   
    11    7   39 1   
    12    8    9 1   
    13    8   40 1   
    14    8   41 1   
    15    9   10 1   
    16   10   11 2   
    17   10   12 1   
    18   12   13 1   
    19   12   42 1   
    20   12   43 1   
    21   13   14 1   
    22   13   44 1   
    23   13   45 1   
    24   14   15 1   
    25   14   46 1   
    26   14   47 1   
    27   15   16 1   
    28   15   48 1   
    29   15   49 1   
    30   16   17 1   
    31   16   50 1   
    32   16   51 1   
    33   17   18 1   
    34   17   52 1   
    35   17   53 1   
    36   18   19 1   
    37   18   54 1   
    38   18   55 1   
    39   19   20 1   
    40   19   56 1   
    41   19   57 1   
    42   20   21 1   
    43   20   58 1   
    44   20   59 1   
    45   21   22 1   
    46   21   60 1   
    47   21   61 1   
    48   22   62 1   
    49   22   63 1   
    50   22   64 1   
    51   23   24 1   
    52   24   25 2   
    53   24   26 1   
    54   26   27 1   
    55   26   65 1   
    56   26   66 1   
    57   27   28 1   
    58   27   67 1   
    59   27   68 1   
    60   28   29 1   
    61   28   69 1   
    62   28   70 1   
    63   29   30 1   
    64   29   71 1   
    65   29   72 1   
    66   30   31 1   
    67   30   73 1   
    68   30   74 1   
    69   31   32 1   
    70   31   75 1   
    71   31   76 1   
    72   32   33 1   
    73   32   77 1   
    74   32   78 1   
    75   33   34 1   
    76   33   79 1   
    77   33   80 1   
    78   34   35 1   
    79   34   81 1   
    80   34   82 1   
    81   35   36 1   
    82   35   83 1   
    83   35   84 1   
    84   36   85 1   
    85   36   86 1   
    86   36   87 1   
@<TRIPOS>SUBSTRUCTURE
     1 PX2         1 TEMP              0 ****  ****    0 ROOT
