@<TRIPOS>MOLECULE
PX3
   65    64     1     0     0
SMALL
bcc


@<TRIPOS>ATOM
      1 C1         -3.4250   -0.5580    1.5390 c2        1 PX3      0.110000
      2 C2          1.8150   -0.4150    0.9680 c1        1 PX3      0.162000
      3 C3         -2.2540   -1.0660    2.1760 c3        1 PX3     -0.178000
      4 C4          0.6090   -0.1550    1.4450 c2        1 PX3     -0.416000
      5 C5          1.8830    0.2580    6.7590 ca        1 PX3     -0.144000
      6 C6         -6.3450   -0.3250    4.9910 c3        1 PX3     -0.024000
      7 C7         -5.6410    2.0420    5.3770 c2        1 PX3     -0.156000
      8 C8          1.2630    0.7420    7.9130 ca        1 PX3     -0.056000
      9 C9         -6.4290   -1.1200    3.8000 c1        1 PX3     -0.038000
     10 C10        -5.4510    3.2090    4.7600 c2        1 PX3     -0.181000
     11 C11        -1.3650   -0.1500    2.9210 c2        1 PX3     -0.282000
     12 C12         1.1750   -2.0030    7.2880 ca        1 PX3     -0.219000
     13 C13        -5.2920    0.7370    4.8460 c2        1 PX3     -0.093000
     14 C14         0.0680   -0.4330    2.7550 c2        1 PX3     -0.126000
     15 C24        -4.1060    0.4160    4.2690 c2        1 PX3     -0.093000
     16 C15         1.8490   -1.1010    6.4440 ca        1 PX3     -0.051000
     17 C16         0.6250   -0.1470    8.7740 ca        1 PX3     -0.103000
     18 C17         0.5990   -1.5280    8.4850 ca        1 PX3      0.124000
     19 C18        -6.4370   -1.7230    2.7710 c1        1 PX3     -0.151000
     20 C20         2.3480   -3.3010    2.5680 c2        1 PX3     -0.227000
     21 C21        -1.7830    0.8810    3.7210 c2        1 PX3      0.217000
     22 C23        -0.8730   -0.0390   10.6530 c1        1 PX3      0.000000
     23 C26         0.7590   -0.9160    3.8300 c2        1 PX3     -0.012000
     24 C27         2.6320   -1.5770    5.2550 c3        1 PX3     -0.032000
     25 C28         2.8020   -1.9070    2.8660 c3        1 PX3     -0.032000
     26 N32        -3.0940    1.3250    3.9480 n7        1 PX3     -0.248000
     27 N33         2.1060   -1.2210    3.9380 n3        1 PX3     -0.248000
     28 O34         1.2580   -4.3700    7.7880 o         1 PX3     -0.291000
     29 O35        -0.8970    1.7180    4.3620 oh        1 PX3     -0.259000
     30 O36         0.7290   -3.8700    5.7420 oh        1 PX3     -0.282000
     31 O37         0.0900    0.4150    9.9670 os        1 PX3      0.001000
     32 O38        -0.0470   -2.3290    9.3860 oh        1 PX3     -0.264000
     33 O39        -6.5080   -2.4250    1.6170 os        1 PX3      0.058000
     34 H1         -1.6580   -1.4900    1.2740 hc        1 PX3      0.208000
     35 H2         -3.5470    0.5240    1.3580 ha        1 PX3      0.222000
     36 H3         -2.4750   -1.9980    2.7850 hc        1 PX3      0.208000
     37 H4         -0.0620    0.4050    0.7580 ha        1 PX3      0.176000
     38 H5          2.4200    0.9580    6.0990 ha        1 PX3      0.157000
     39 H8          1.2920    1.8150    8.1620 ha        1 PX3      0.172000
     40 H6         -6.1050   -0.9830    5.8770 hc        1 PX3      0.143500
     41 H9         -7.3480    0.1530    5.1920 hc        1 PX3      0.143500
     42 H7         -6.1170    2.0080    6.3760 ha        1 PX3      0.149000
     43 H10        -5.0290    3.3070    3.7500 ha        1 PX3      0.128500
     44 H241       -3.8990   -0.6370    3.9930 h4        1 PX3      0.131000
     45 H242        0.4520    3.1850    5.6860 ha        1 PX3      0.002000
     46 H261        0.1930   -0.9660    4.7890 h4        1 PX3      0.136000
     47 H262       -0.0020    1.5710    4.0030 ho        1 PX3      0.268000
     48 H32         0.7130    2.6200    5.9580 ha        1 PX3      0.002000
     49 H271        3.6600   -1.1050    5.3130 h1        1 PX3      0.115000
     50 H272        2.7790   -2.6970    5.3190 h1        1 PX3      0.115000
     51 H191        2.1150   -4.8670    1.1460 ha        1 PX3      0.128000
     52 H192        2.7300   -3.2530    0.4660 ha        1 PX3      0.128000
     53 H20         2.0130   -3.8970    3.4350 ha        1 PX3      0.136000
     54 H281        3.9010   -1.9400    3.1390 h1        1 PX3      0.139000
     55 H282        2.7740   -1.2640    1.9010 h1        1 PX3      0.139000
     56 H231        0.2920   -3.2410    9.3170 ho        1 PX3      0.269000
     57 H232       -1.4390   -0.9570   10.4110 ha        1 PX3      0.074000
     58 H251       -4.3000   -1.3020    1.1670 ha        1 PX3      0.222000
     59 H252       -5.6670   -2.8730   -0.1160 ha        1 PX3      0.139000
     60 H253       -5.7420    4.1610    5.2290 ha        1 PX3      0.128500
     61 C19         2.3960   -3.8230    1.3450 c2        1 PX3     -0.182000
     62 C25        -5.4910   -2.2590    0.7960 c1        1 PX3     -0.076000
     63 H322       -3.1410    2.2010    4.4470 hn        1 PX3      0.247000
     64 H331        0.5310   -3.1100    5.1760 ho        1 PX3      0.223000
     65 C22         1.0850   -3.4450    6.9920 c2        1 PX3      0.343000
@<TRIPOS>BOND
     1    1    3 1   
     2    1   35 1   
     3    1   58 1   
     4    2    4 1   
     5    3   11 1   
     6    3   34 1   
     7    3   36 1   
     8    4   14 1   
     9    4   37 1   
    10    5    8 1   
    11    5   16 1   
    12    5   38 1   
    13    6    9 1   
    14    6   13 1   
    15    6   40 1   
    16    6   41 1   
    17    7   10 1   
    18    7   13 1   
    19    7   42 1   
    20    8   17 1   
    21    8   39 1   
    22    9   19 1   
    23   10   43 1   
    24   10   60 1   
    25   11   14 1   
    26   11   21 1   
    27   12   16 1   
    28   12   18 1   
    29   12   65 1   
    30   13   15 1   
    31   14   23 1   
    32   15   26 1   
    33   15   44 1   
    34   16   24 1   
    35   17   18 1   
    36   17   31 1   
    37   18   32 1   
    38   19   33 1   
    39   20   25 1   
    40   20   53 1   
    41   20   61 1   
    42   21   26 1   
    43   21   29 1   
    44   22   31 1   
    45   22   57 1   
    46   23   27 1   
    47   23   46 1   
    48   24   27 1   
    49   24   49 1   
    50   24   50 1   
    51   25   27 1   
    52   25   54 1   
    53   25   55 1   
    54   26   63 1   
    55   28   65 1   
    56   29   47 1   
    57   30   64 1   
    58   30   65 1   
    59   32   56 1   
    60   33   62 1   
    61   45   48 1   
    62   51   61 1   
    63   52   61 1   
    64   59   62 1   
@<TRIPOS>SUBSTRUCTURE
     1 PX3         1 TEMP              0 ****  ****    0 ROOT
