@<TRIPOS>MOLECULE
PX3
   65    66     1     0     0
SMALL
bcc


@<TRIPOS>ATOM
      1 C1         -1.1690   -0.5990   -0.1340 c2        1 PX3     -0.109000
      2 C2          2.8530   -0.4470    0.5640 c1        1 PX3      0.312000
      3 C3         -1.1930   -1.2470    1.0330 c2        1 PX3     -0.229000
      4 C4          1.6660   -0.9510    0.8630 c2        1 PX3     -0.480000
      5 C5          3.0740   -0.0320    7.7380 ca        1 PX3     -0.131000
      6 C6         -5.3100    0.4470    2.5310 c2        1 PX3     -0.071000
      7 C7         -4.4040    2.2050    3.9900 c2        1 PX3     -0.181000
      8 C8          2.7920    0.2420    9.0760 ca        1 PX3     -0.045000
      9 C9         -5.4920   -0.7710    2.0850 c1        1 PX3     -0.244000
     10 C10        -4.9570    3.0440    4.8630 c2        1 PX3     -0.197000
     11 C11        -0.4020   -0.8970    2.2060 c2        1 PX3      0.090000
     12 C12         0.9270   -1.1250    7.4530 ca        1 PX3     -0.174000
     13 C13        -4.7690    0.7630    3.8870 c3        1 PX3     -0.043000
     14 C14         0.9670   -0.8240    2.1390 c2        1 PX3     -0.170000
     15 C24        -3.5530   -0.1270    4.2260 c3        1 PX3     -0.037000
     16 C15         2.1660   -0.7140    6.9180 ca        1 PX3     -0.073000
     17 C16         1.5830   -0.1810    9.6180 ca        1 PX3     -0.084000
     18 C17         0.6550   -0.8780    8.8190 ca        1 PX3      0.117000
     19 C18        -5.5200   -1.9170    1.5180 c1        1 PX3     -0.187000
     20 C20        -0.2160   -2.8850    4.1280 c3        1 PX3     -0.224000
     21 C21        -1.2240   -0.5650    3.4740 c3        1 PX3      0.218000
     22 C23         0.2840    0.2500   11.5950 c1        1 PX3      0.020000
     23 C26         1.9420   -0.6230    3.1890 c1        1 PX3      0.164000
     24 C27         2.7040   -0.9620    5.5270 c3        1 PX3     -0.060000
     25 C28         1.2570   -2.6320    4.4260 c3        1 PX3     -0.139000
     26 N32        -2.5650   -0.1270    3.1750 n3        1 PX3     -0.378000
     27 N33         1.6450   -1.1830    4.5000 n4        1 PX3     -0.079000
     28 O34        -0.5500   -2.9890    6.9420 o         1 PX3     -0.296000
     29 O35        -0.5020    0.5370    4.0560 oh        1 PX3     -0.365000
     30 O36        -0.7960   -1.1170    5.7550 os        1 PX3     -0.299000
     31 O37         1.3870    0.0480   11.0100 os        1 PX3      0.005000
     32 O38        -0.5150   -1.2380    9.4340 oh        1 PX3     -0.252000
     33 O39        -6.4590   -2.8400    1.2390 os        1 PX3      0.106000
     34 H1         -1.8100   -0.9070   -0.9750 ha        1 PX3      0.144000
     35 H2         -0.5380    0.2830   -0.3190 ha        1 PX3      0.144000
     36 H3         -1.8700   -2.1110    1.1860 ha        1 PX3      0.162000
     37 H4          1.1390   -1.5220    0.0660 ha        1 PX3      0.211000
     38 H5          4.0450    0.2940    7.3260 ha        1 PX3      0.160000
     39 H8          3.5200    0.7770    9.7110 ha        1 PX3      0.184000
     40 H6         -5.5510    1.3170    1.8930 ha        1 PX3      0.153000
     41 H9         -5.5630    0.5160    4.6530 hc        1 PX3      0.115000
     42 H7         -3.6340    2.5400    3.2750 ha        1 PX3      0.133000
     43 H10        -5.7330    2.7390    5.5780 ha        1 PX3      0.121000
     44 H241       -3.9510   -1.1680    4.4170 h1        1 PX3      0.077000
     45 H242       -3.0780    0.2440    5.1770 h1        1 PX3      0.077000
     46 H261        1.4660    1.7230    3.4840 ha        1 PX3      0.008500
     47 H262        1.7520    1.6120    4.0910 ha        1 PX3      0.008500
     48 H32        -2.9300   -0.4180    2.2910 hn        1 PX3      0.231000
     49 H271        3.3040   -0.0620    5.1890 hx        1 PX3      0.160000
     50 H272        3.3960   -1.8540    5.5460 hx        1 PX3      0.160000
     51 H191       -2.1910   -2.2130    4.6760 h1        1 PX3      0.148000
     52 H192       -0.5050   -3.8160    4.6960 hc        1 PX3      0.144500
     53 H20         1.5210   -3.1160    5.4130 hx        1 PX3      0.150000
     54 H281        1.8950   -3.1180    3.6320 hx        1 PX3      0.150000
     55 H282       -0.3600   -3.1170    3.0380 hc        1 PX3      0.144500
     56 H231       -0.8830   -2.0290    9.0020 ho        1 PX3      0.254000
     57 H232       -0.7030    0.2790   11.0980 ha        1 PX3      0.081000
     58 H251       -6.7690   -3.6010    3.1720 h4        1 PX3      0.158000
     59 H252       -7.3260   -4.6220    1.6370 h4        1 PX3      0.158000
     60 H253       -4.6730    4.1040    4.9130 ha        1 PX3      0.121000
     61 C19        -1.1680   -1.7680    4.5230 c3        1 PX3     -0.021000
     62 C25        -6.8970   -3.7130    2.0900 c2        1 PX3     -0.104000
     63 H322       -1.0790    1.0280    4.6570 ho        1 PX3      0.258000
     64 H331        0.8540   -0.5940    4.8580 hn        1 PX3      0.284000
     65 C22        -0.1330   -1.8540    6.7220 c2        1 PX3      0.340000
@<TRIPOS>BOND
     1    1    3 1   
     2    1   34 1   
     3    1   35 1   
     4    2    4 1   
     5    3   11 1   
     6    3   36 1   
     7    4   14 1   
     8    4   37 1   
     9    5    8 1   
    10    5   16 1   
    11    5   38 1   
    12    6    9 1   
    13    6   13 1   
    14    6   40 1   
    15    7   10 1   
    16    7   13 1   
    17    7   42 1   
    18    8   17 1   
    19    8   39 1   
    20    9   19 1   
    21   10   43 1   
    22   10   60 1   
    23   11   14 1   
    24   11   21 1   
    25   12   16 1   
    26   12   18 1   
    27   12   65 1   
    28   13   15 1   
    29   13   41 1   
    30   14   23 1   
    31   15   26 1   
    32   15   44 1   
    33   15   45 1   
    34   16   24 1   
    35   17   18 1   
    36   17   31 1   
    37   18   32 1   
    38   19   33 1   
    39   20   25 1   
    40   20   52 1   
    41   20   55 1   
    42   20   61 1   
    43   21   26 1   
    44   21   29 1   
    45   21   61 1   
    46   22   31 1   
    47   22   57 1   
    48   23   27 1   
    49   24   27 1   
    50   24   49 1   
    51   24   50 1   
    52   25   27 1   
    53   25   53 1   
    54   25   54 1   
    55   26   48 1   
    56   27   64 1   
    57   28   65 1   
    58   29   63 1   
    59   30   61 1   
    60   30   65 1   
    61   32   56 1   
    62   33   62 1   
    63   46   47 1   
    64   51   61 1   
    65   58   62 1   
    66   59   62 1   
@<TRIPOS>SUBSTRUCTURE
     1 PX3         1 TEMP              0 ****  ****    0 ROOT
