@<TRIPOS>MOLECULE
PX3
   65    64     1     0     0
SMALL
bcc


@<TRIPOS>ATOM
      1 C1         -0.4810    2.2160    2.2200 c2        1 PX3     -0.224000
      2 C2          1.4050   -1.9100   -0.3120 c1        1 PX3      0.303000
      3 C3         -0.5920    1.0110    1.6590 c2        1 PX3     -0.104000
      4 C4          0.4180   -1.4440    0.4320 c2        1 PX3     -0.491000
      5 C5          1.7390    0.7500    5.9390 ca        1 PX3     -0.118000
      6 C6         -5.0460    0.8480    2.8530 c2        1 PX3     -0.126000
      7 C7         -4.4610    2.3220    4.7690 c2        1 PX3     -0.196000
      8 C8          1.2670    1.4110    7.0780 ca        1 PX3     -0.093000
      9 C9         -5.8550   -0.0470    2.3440 c1        1 PX3     -0.189000
     10 C10        -4.9950    3.4100    4.2200 c2        1 PX3     -0.187000
     11 C11        -0.5540   -0.2550    2.3790 c2        1 PX3     -0.287000
     12 C12         1.5070   -1.3910    7.0640 ca        1 PX3     -0.122000
     13 C13        -4.7190    0.9290    4.3060 c3        1 PX3     -0.048000
     14 C14         0.3570   -1.2560    1.8700 c2        1 PX3      0.289000
     15 C24        -3.5210    0.0100    4.6200 c3        1 PX3     -0.054000
     16 C15         1.8640   -0.6390    5.9320 ca        1 PX3     -0.067000
     17 C16         0.9110    0.6730    8.1970 ca        1 PX3     -0.139000
     18 C17         1.0130   -0.7350    8.2060 ca        1 PX3      0.164000
     19 C18        -6.4600   -1.0080    1.7630 c1        1 PX3     -0.172000
     20 C20         2.3630   -5.9730    5.3480 c1        1 PX3     -0.232000
     21 C21        -1.4060   -0.5010    3.4500 c2        1 PX3      0.262000
     22 C23         0.5620    2.4430    9.7790 c1        1 PX3      0.034000
     23 C26         1.1630   -1.9970    2.6490 cu        1 PX3     -0.279000
     24 C27         2.4490   -1.3140    4.7300 c3        1 PX3     -0.064000
     25 C28         2.0500   -3.1010    2.9610 cx        1 PX3     -0.018000
     26 N32        -2.2930    0.4200    3.9730 n3        1 PX3     -0.311000
     27 N33         1.5010   -2.2110    4.0350 n4        1 PX3     -0.025000
     28 O34         2.6210   -3.5300    7.4890 o         1 PX3     -0.308000
     29 O35        -1.2990   -1.7450    4.0400 oh        1 PX3     -0.287000
     30 O36         0.6290   -3.5390    6.5240 oh        1 PX3     -0.345000
     31 O37         0.3770    1.2490    9.3850 os        1 PX3     -0.035000
     32 O38         0.6480   -1.5040    9.2710 oh        1 PX3     -0.226000
     33 O39        -7.6700   -1.2640    1.2460 os        1 PX3      0.111000
     34 H1         -0.5140    3.1350    1.6190 ha        1 PX3      0.123000
     35 H2         -0.3380    2.3740    3.2970 ha        1 PX3      0.123000
     36 H3         -0.6950    0.9160    0.5620 ha        1 PX3      0.134000
     37 H4         -0.5090   -1.1490   -0.1190 ha        1 PX3      0.228000
     38 H5          2.0160    1.3380    5.0500 ha        1 PX3      0.159000
     39 H8          1.1780    2.5100    7.0790 ha        1 PX3      0.161000
     40 H6         -4.5590    1.5960    2.2030 ha        1 PX3      0.138000
     41 H9         -5.5830    0.5230    4.9120 hc        1 PX3      0.126000
     42 H7         -3.8100    2.3960    5.6570 ha        1 PX3      0.124000
     43 H10        -5.6600    3.3760    3.3450 ha        1 PX3      0.125500
     44 H241       -3.8110   -1.0380    4.3150 h1        1 PX3      0.096500
     45 H242       -3.3370    0.0180    5.7340 h1        1 PX3      0.096500
     46 H261       -3.0800   -2.9440    6.2640 ha        1 PX3      0.002500
     47 H262       -3.3330   -2.3160    6.2310 ha        1 PX3      0.002500
     48 H32        -2.3610    1.2780    3.4550 hn        1 PX3      0.251000
     49 H271        2.8220   -0.5460    3.9910 hx        1 PX3      0.148000
     50 H272        3.3250   -1.9520    5.0590 hx        1 PX3      0.148000
     51 H191        1.3990   -6.8110    3.4850 ha        1 PX3      0.233000
     52 H192        0.7570   -4.4980    6.6460 ho        1 PX3      0.266000
     53 H20         2.8360   -5.6120    6.2320 ha        1 PX3      0.233000
     54 H281        1.6880   -4.1590    2.9640 hx        1 PX3      0.166000
     55 H282        3.1470   -3.0300    2.7710 hx        1 PX3      0.166000
     56 H231        0.3670   -0.9220   10.0000 ho        1 PX3      0.264000
     57 H232        1.1730    3.1780    9.2190 ha        1 PX3      0.058000
     58 H251       -8.7290   -1.5460    3.0420 h4        1 PX3      0.162500
     59 H252       -4.8060    4.4160    4.6190 ha        1 PX3      0.125500
     60 H253       -9.4580   -2.1920    1.3770 h4        1 PX3      0.162500
     61 C19         1.8510   -6.4000    4.3540 c1        1 PX3     -0.232000
     62 C25        -8.6870   -1.6540    1.9520 c2        1 PX3     -0.104000
     63 H322       -1.9940   -1.8910    4.7050 ho        1 PX3      0.257000
     64 H331        0.7570   -2.5650    4.6450 hn        1 PX3      0.284000
     65 C22         1.6750   -2.8560    7.0860 c2        1 PX3      0.355000
@<TRIPOS>BOND
     1    1    3 1   
     2    1   34 1   
     3    1   35 1   
     4    2    4 1   
     5    3   11 1   
     6    3   36 1   
     7    4   14 1   
     8    4   37 1   
     9    5    8 1   
    10    5   16 1   
    11    5   38 1   
    12    6    9 1   
    13    6   13 1   
    14    6   40 1   
    15    7   10 1   
    16    7   13 1   
    17    7   42 1   
    18    8   17 1   
    19    8   39 1   
    20    9   19 1   
    21   10   43 1   
    22   10   59 1   
    23   11   14 1   
    24   11   21 1   
    25   12   16 1   
    26   12   18 1   
    27   12   65 1   
    28   13   15 1   
    29   13   41 1   
    30   14   23 1   
    31   15   26 1   
    32   15   44 1   
    33   15   45 1   
    34   16   24 1   
    35   17   18 1   
    36   17   31 1   
    37   18   32 1   
    38   19   33 1   
    39   20   53 1   
    40   20   61 1   
    41   21   26 1   
    42   21   29 1   
    43   22   31 1   
    44   22   57 1   
    45   23   25 1   
    46   23   27 1   
    47   24   27 1   
    48   24   49 1   
    49   24   50 1   
    50   25   27 1   
    51   25   54 1   
    52   25   55 1   
    53   26   48 1   
    54   27   64 1   
    55   28   65 1   
    56   29   63 1   
    57   30   52 1   
    58   30   65 1   
    59   32   56 1   
    60   33   62 1   
    61   46   47 1   
    62   51   61 1   
    63   58   62 1   
    64   60   62 1   
@<TRIPOS>SUBSTRUCTURE
     1 PX3         1 TEMP              0 ****  ****    0 ROOT
