@<TRIPOS>MOLECULE
PX3
   63    66     1     0     0
SMALL
bcc


@<TRIPOS>ATOM
      1 C1         -0.9080   -5.1930    1.3330 ca        1 PX3     -0.145000
      2 C2         -2.2760   -5.0230    1.1130 ca        1 PX3     -0.130000
      3 C3         -0.0920   -4.0790    1.4960 ca        1 PX3     -0.095000
      4 C4         -2.8140   -3.7420    1.0520 ca        1 PX3     -0.140000
      5 C5         -2.7260    2.2520    1.7070 ca        1 PX3     -0.145000
      6 C6          3.0490    0.0560   -1.1820 ca        1 PX3     -0.082000
      7 C7          3.9200   -0.5450    0.9960 ca        1 PX3     -0.082000
      8 C8         -1.9710    3.2870    2.2850 ca        1 PX3     -0.141000
      9 C9          4.2750   -0.2470   -1.7640 ca        1 PX3     -0.195500
     10 C10         5.1590   -0.8510    0.4280 ca        1 PX3     -0.195500
     11 C11        -0.6310   -2.7850    1.4320 ca        1 PX3     -0.097600
     12 C12        -1.3090    2.1700   -0.3020 ca        1 PX3     -0.067600
     13 C13         2.8710   -0.0840    0.2020 ca        1 PX3     -0.125300
     14 C14        -1.9990   -2.6090    1.2050 ca        1 PX3     -0.044300
     15 C24         1.5450    0.2810    0.8140 c3        1 PX3      0.131300
     16 C15        -2.4170    1.7170    0.4560 ca        1 PX3     -0.073300
     17 C16        -0.8980    3.7360    1.5450 ca        1 PX3      0.040100
     18 C17        -0.5690    3.1840    0.2790 ca        1 PX3      0.054100
     19 C18         5.3300   -0.6980   -0.9510 ca        1 PX3      0.103100
     20 C20        -3.3040   -1.0130   -2.5620 c2        1 PX3     -0.146200
     21 C21         0.3290   -1.6600    1.6860 c         1 PX3      0.657700
     22 C23         0.9480    4.8150    0.7660 c3        1 PX3      0.318200
     23 C26        -2.6460   -1.2530    1.1590 c3        1 PX3      0.207100
     24 C27        -3.3130    0.6700   -0.1450 c3        1 PX3      0.208100
     25 C28        -3.3420   -1.5370   -1.1600 c3        1 PX3      0.200000
     26 N32         0.5450   -0.7480    0.6950 n         1 PX3     -0.523900
     27 N33        -2.7230   -0.6640   -0.1710 n3        1 PX3     -0.715600
     28 O34         0.0090    0.7940   -1.7430 o         1 PX3     -0.825300
     29 O35         0.9360   -1.6130    2.7850 o         1 PX3     -0.661100
     30 O36        -1.7600    1.8320   -2.6220 o         1 PX3     -0.825300
     31 O37         0.0140    4.7410    1.8660 os        1 PX3     -0.353900
     32 O38         0.5670    3.8320   -0.2140 os        1 PX3     -0.317900
     33 O39         6.5130   -0.9640   -1.6260 os        1 PX3     -0.336900
     34 H1         -0.4770   -6.2030    1.3790 ha        1 PX3      0.123000
     35 H2         -2.9270   -5.9000    0.9870 ha        1 PX3      0.120000
     36 H3          0.9850   -4.1990    1.6900 ha        1 PX3      0.144000
     37 H4         -3.8920   -3.6070    0.8750 ha        1 PX3      0.128000
     38 H5         -3.5900    1.8610    2.2650 ha        1 PX3      0.118000
     39 H8         -2.2210    3.7060    3.2650 ha        1 PX3      0.134000
     40 H6          2.1980    0.4070   -1.8000 ha        1 PX3      0.170000
     41 H9          4.4300   -0.1400   -2.8460 ha        1 PX3      0.131000
     42 H7          3.7680   -0.6750    2.0780 ha        1 PX3      0.170000
     43 H10         5.9750   -1.2090    1.0680 ha        1 PX3      0.131000
     44 H241        1.6970    0.5270    1.9040 h1        1 PX3      0.078700
     45 H242        1.1430    1.1940    0.2720 h1        1 PX3      0.078700
     46 H261       -3.6730   -1.3480    1.6300 h1        1 PX3      0.041200
     47 H262       -2.0510   -0.5330    1.7950 h1        1 PX3      0.041200
     48 H32         0.0120   -0.7480   -0.1550 hn        1 PX3      0.374500
     49 H271       -4.3000    0.6670    0.4090 h1        1 PX3      0.054200
     50 H272       -3.5090    0.9860   -1.2150 h1        1 PX3      0.054200
     51 H191       -4.9640   -2.1550   -3.2830 ha        1 PX3      0.096500
     52 H192       -4.1150   -1.0770   -4.5240 ha        1 PX3      0.096500
     53 H20        -2.5060   -0.2730   -2.7920 ha        1 PX3      0.206000
     54 H281       -4.4100   -1.7850   -0.8760 h1        1 PX3      0.026700
     55 H282       -2.7610   -2.5070   -1.1540 h1        1 PX3      0.026700
     56 H231        0.8750    5.8310    0.3060 h2        1 PX3      0.054700
     57 H232        1.9690    4.5660    1.1480 h2        1 PX3      0.054700
     58 H251        7.8840   -0.7190   -0.0610 h1        1 PX3      0.033700
     59 H252        7.2940   -2.4300   -0.3470 h1        1 PX3      0.033700
     60 H253        8.4050   -1.6270   -1.5710 h1        1 PX3      0.033700
     61 C19        -4.1630   -1.4350   -3.4890 c2        1 PX3     -0.267000
     62 C22        -0.9900    1.5620   -1.6600 c         1 PX3      0.936200
     63 C25         7.5780   -1.4660   -0.8340 c3        1 PX3      0.119700
@<TRIPOS>BOND
     1    1    2 ar  
     2    1    3 ar  
     3    1   34 1   
     4    2    4 ar  
     5    2   35 1   
     6    3   11 ar  
     7    3   36 1   
     8    4   14 ar  
     9    4   37 1   
    10    5    8 ar  
    11    5   16 ar  
    12    5   38 1   
    13    6    9 ar  
    14    6   13 ar  
    15    6   40 1   
    16    7   10 ar  
    17    7   13 ar  
    18    7   42 1   
    19    8   17 ar  
    20    8   39 1   
    21    9   19 ar  
    22    9   41 1   
    23   10   19 ar  
    24   10   43 1   
    25   11   14 ar  
    26   11   21 1   
    27   12   16 ar  
    28   12   18 ar  
    29   12   62 1   
    30   13   15 1   
    31   14   23 1   
    32   15   26 1   
    33   15   44 1   
    34   15   45 1   
    35   16   24 1   
    36   17   18 ar  
    37   17   31 1   
    38   18   32 1   
    39   19   33 1   
    40   20   25 1   
    41   20   53 1   
    42   20   61 2   
    43   21   26 1   
    44   21   29 2   
    45   22   31 1   
    46   22   32 1   
    47   22   56 1   
    48   22   57 1   
    49   23   27 1   
    50   23   46 1   
    51   23   47 1   
    52   24   27 1   
    53   24   49 1   
    54   24   50 1   
    55   25   27 1   
    56   25   54 1   
    57   25   55 1   
    58   26   48 1   
    59   28   62 1   
    60   30   62 1   
    61   33   63 1   
    62   51   61 1   
    63   52   61 1   
    64   58   63 1   
    65   59   63 1   
    66   60   63 1   
@<TRIPOS>SUBSTRUCTURE
     1 PX3         1 TEMP              0 ****  ****    0 ROOT
