@<TRIPOS>MOLECULE
PX4
  118   117     1     0     0
SMALL
bcc


@<TRIPOS>ATOM
      1 O1          1.3840   -6.8160   -2.0950 o         1 PX4     -0.814500
      2 O2          0.2660   -5.1060   -3.8160 o         1 PX4     -0.814500
      3 P1          0.8690   -5.5010   -2.5430 p5        1 PX4      1.438800
      4 O3          2.1800   -4.5110   -2.2210 os        1 PX4     -0.577200
      5 C1          3.4360   -5.0810   -2.2450 c3        1 PX4      0.197400
      6 C2          4.1030   -5.0120   -0.8570 c3        1 PX4      0.079800
      7 N1          3.7890   -6.1070    0.1290 n4        1 PX4     -0.576800
      8 C3          3.9400   -7.4550   -0.4890 c3        1 PX4      0.075433
      9 C4          4.7530   -5.9790    1.2630 c3        1 PX4      0.075433
     10 C5          2.4070   -5.9620    0.6760 c3        1 PX4      0.075433
     11 O4         -0.0150   -4.9290   -1.2870 os        1 PX4     -0.580200
     12 C6         -0.6000   -3.6810   -1.5410 c3        1 PX4      0.175400
     13 C7         -1.1830   -3.1670   -0.2190 c3        1 PX4      0.135100
     14 C8         -0.1000   -2.8100    0.7970 c3        1 PX4      0.112400
     15 O5          0.6900   -1.7320    0.2750 os        1 PX4     -0.419900
     16 C9          2.0450   -1.8080    0.3570 c         1 PX4      0.664100
     17 O6          2.5700   -2.7440    0.9740 o         1 PX4     -0.610000
     18 C10         2.7190   -0.6790   -0.3620 c3        1 PX4     -0.135400
     19 C11         3.9880   -0.2550    0.3450 c3        1 PX4     -0.075400
     20 C12         4.7300    0.7880   -0.4640 c3        1 PX4     -0.080400
     21 C13         5.9920    1.2310    0.2450 c3        1 PX4     -0.078400
     22 C14         6.7390    2.2680   -0.5650 c3        1 PX4     -0.079400
     23 C15         8.0010    2.7130    0.1430 c3        1 PX4     -0.078400
     24 C16         8.7490    3.7500   -0.6680 c3        1 PX4     -0.079400
     25 C17        10.0110    4.1950    0.0400 c3        1 PX4     -0.078400
     26 C18        10.7590    5.2310   -0.7710 c3        1 PX4     -0.079400
     27 C19        12.0200    5.6770   -0.0630 c3        1 PX4     -0.079400
     28 C20        12.7680    6.7130   -0.8740 c3        1 PX4     -0.079400
     29 C21        14.0300    7.1600   -0.1670 c3        1 PX4     -0.080400
     30 C22        14.7790    8.1920   -0.9710 c3        1 PX4     -0.093100
     31 O7         -1.9670   -2.0170   -0.5720 os        1 PX4     -0.426900
     32 C23        -2.9270   -1.6060    0.3100 c         1 PX4      0.638100
     33 O8         -3.0500   -2.2080    1.3800 o         1 PX4     -0.555000
     34 C24        -3.6880   -0.4180   -0.1930 c3        1 PX4     -0.127400
     35 C25        -5.1510   -0.5110    0.1870 c3        1 PX4     -0.079400
     36 C26        -5.8880    0.7520   -0.2020 c3        1 PX4     -0.078400
     37 C27        -7.3550    0.6590    0.1580 c3        1 PX4     -0.079400
     38 C28        -8.0950    1.9230   -0.2250 c3        1 PX4     -0.079400
     39 C29        -9.5630    1.8290    0.1350 c3        1 PX4     -0.079400
     40 C30       -10.3030    3.0930   -0.2480 c3        1 PX4     -0.078400
     41 C31       -11.7710    3.0000    0.1120 c3        1 PX4     -0.079400
     42 C32       -12.5110    4.2630   -0.2710 c3        1 PX4     -0.078400
     43 C33       -13.9790    4.1700    0.0890 c3        1 PX4     -0.079400
     44 C34       -14.7190    5.4340   -0.2930 c3        1 PX4     -0.079400
     45 C35       -16.1870    5.3420    0.0650 c3        1 PX4     -0.080400
     46 C36       -16.9290    6.5970   -0.3130 c3        1 PX4     -0.092100
     47 H1          3.4060   -6.1340   -2.6380 h1        1 PX4      0.053200
     48 H2          4.0960   -4.4500   -2.9120 h1        1 PX4      0.053200
     49 H3          5.2180   -5.0300   -1.0110 hx        1 PX4      0.091200
     50 H4          3.7970   -4.0380   -0.3710 hx        1 PX4      0.091200
     51 H5          4.8990   -7.4900   -1.0650 hx        1 PX4      0.100811
     52 H6          3.9520   -8.2290    0.3210 hx        1 PX4      0.100811
     53 H7          3.0630   -7.6590   -1.1790 hx        1 PX4      0.100811
     54 H8          4.5010   -6.7330    2.0530 hx        1 PX4      0.100811
     55 H9          5.7950   -6.1600    0.8930 hx        1 PX4      0.100811
     56 H10         4.6760   -4.9450    1.6950 hx        1 PX4      0.100811
     57 H11         1.6650   -6.0520   -0.1760 hx        1 PX4      0.100811
     58 H12         2.2240   -6.7770    1.4200 hx        1 PX4      0.100811
     59 H13         2.3050   -4.9530    1.1590 hx        1 PX4      0.100811
     60 H14        -1.4060   -3.7990   -2.3130 h1        1 PX4      0.056700
     61 H15         0.1830   -2.9740   -1.9260 h1        1 PX4      0.056700
     62 H16        -1.8440   -3.9500    0.2480 h1        1 PX4      0.087700
     63 H17         0.5270   -3.7190    0.9900 h1        1 PX4      0.074700
     64 H18        -0.5600   -2.4270    1.7470 h1        1 PX4      0.074700
     65 H19         2.0090    0.1860   -0.4520 hc        1 PX4      0.088700
     66 H20         2.9460   -1.0420   -1.4010 hc        1 PX4      0.088700
     67 H21         4.6430   -1.1510    0.5090 hc        1 PX4      0.049700
     68 H22         3.7360    0.1590    1.3570 hc        1 PX4      0.049700
     69 H23         4.0640    1.6740   -0.6370 hc        1 PX4      0.044700
     70 H24         4.9910    0.3680   -1.4710 hc        1 PX4      0.044700
     71 H25         6.6550    0.3440    0.4230 hc        1 PX4      0.039700
     72 H26         5.7300    1.6550    1.2500 hc        1 PX4      0.039700
     73 H27         6.0760    3.1550   -0.7440 hc        1 PX4      0.041700
     74 H28         7.0010    1.8440   -1.5700 hc        1 PX4      0.041700
     75 H29         8.6640    1.8260    0.3230 hc        1 PX4      0.038700
     76 H30         7.7390    3.1390    1.1470 hc        1 PX4      0.038700
     77 H31         8.0860    4.6370   -0.8480 hc        1 PX4      0.040200
     78 H32         9.0110    3.3240   -1.6720 hc        1 PX4      0.040200
     79 H33        10.6740    3.3080    0.2210 hc        1 PX4      0.039200
     80 H34         9.7480    4.6210    1.0440 hc        1 PX4      0.039200
     81 H35        10.0950    6.1180   -0.9510 hc        1 PX4      0.040200
     82 H36        11.0210    4.8060   -1.7750 hc        1 PX4      0.040200
     83 H37        12.6830    4.7900    0.1180 hc        1 PX4      0.039200
     84 H38        11.7580    6.1030    0.9410 hc        1 PX4      0.039200
     85 H39        12.1050    7.6000   -1.0550 hc        1 PX4      0.039700
     86 H40        13.0310    6.2880   -1.8780 hc        1 PX4      0.039700
     87 H41        14.6910    6.2720    0.0140 hc        1 PX4      0.038200
     88 H42        13.7660    7.5850    0.8370 hc        1 PX4      0.038200
     89 H43        15.7050    8.5070   -0.4320 hc        1 PX4      0.032700
     90 H44        15.0730    7.7790   -1.9660 hc        1 PX4      0.032700
     91 H45        14.1440    9.0960   -1.1410 hc        1 PX4      0.032700
     92 H46        -3.2220    0.4960    0.2640 hc        1 PX4      0.079200
     93 H47        -3.5740   -0.3420   -1.3070 hc        1 PX4      0.079200
     94 H48        -5.6170   -1.3950   -0.3240 hc        1 PX4      0.057700
     95 H49        -5.2400   -0.6840    1.2930 hc        1 PX4      0.057700
     96 H50        -5.4280    1.6330    0.3190 hc        1 PX4      0.040700
     97 H51        -5.7820    0.9270   -1.3050 hc        1 PX4      0.040700
     98 H52        -7.8160   -0.2200   -0.3650 hc        1 PX4      0.042700
     99 H53        -7.4610    0.4790    1.2610 hc        1 PX4      0.042700
    100 H54        -7.6350    2.8010    0.2990 hc        1 PX4      0.039700
    101 H55        -7.9890    2.1020   -1.3270 hc        1 PX4      0.039700
    102 H56       -10.0230    0.9510   -0.3900 hc        1 PX4      0.040200
    103 H57        -9.6690    1.6500    1.2370 hc        1 PX4      0.040200
    104 H58        -9.8430    3.9720    0.2760 hc        1 PX4      0.039200
    105 H59       -10.1960    3.2720   -1.3500 hc        1 PX4      0.039200
    106 H60       -12.2310    2.1210   -0.4120 hc        1 PX4      0.039700
    107 H61       -11.8770    2.8200    1.2140 hc        1 PX4      0.039700
    108 H62       -12.0510    5.1420    0.2530 hc        1 PX4      0.039200
    109 H63       -12.4050    4.4430   -1.3730 hc        1 PX4      0.039200
    110 H64       -14.4390    3.2910   -0.4350 hc        1 PX4      0.039700
    111 H65       -14.0850    3.9900    1.1910 hc        1 PX4      0.039700
    112 H66       -14.2590    6.3130    0.2300 hc        1 PX4      0.039200
    113 H67       -14.6130    5.6130   -1.3960 hc        1 PX4      0.039200
    114 H68       -16.6450    4.4610   -0.4580 hc        1 PX4      0.038700
    115 H69       -16.2920    5.1600    1.1680 hc        1 PX4      0.038700
    116 H70       -18.0080    6.5080   -0.0410 hc        1 PX4      0.032367
    117 H71       -16.5030    7.4830    0.2180 hc        1 PX4      0.032367
    118 H72       -16.8570    6.7820   -1.4130 hc        1 PX4      0.032367
@<TRIPOS>BOND
     1    1    3 1   
     2    2    3 1   
     3    3    4 1   
     4    3   11 1   
     5    4    5 1   
     6    5    6 1   
     7    5   47 1   
     8    5   48 1   
     9    6    7 1   
    10    6   49 1   
    11    6   50 1   
    12    7    8 1   
    13    7    9 1   
    14    7   10 1   
    15    8   51 1   
    16    8   52 1   
    17    8   53 1   
    18    9   54 1   
    19    9   55 1   
    20    9   56 1   
    21   10   57 1   
    22   10   58 1   
    23   10   59 1   
    24   11   12 1   
    25   12   13 1   
    26   12   60 1   
    27   12   61 1   
    28   13   14 1   
    29   13   31 1   
    30   13   62 1   
    31   14   15 1   
    32   14   63 1   
    33   14   64 1   
    34   15   16 1   
    35   16   17 2   
    36   16   18 1   
    37   18   19 1   
    38   18   65 1   
    39   18   66 1   
    40   19   20 1   
    41   19   67 1   
    42   19   68 1   
    43   20   21 1   
    44   20   69 1   
    45   20   70 1   
    46   21   22 1   
    47   21   71 1   
    48   21   72 1   
    49   22   23 1   
    50   22   73 1   
    51   22   74 1   
    52   23   24 1   
    53   23   75 1   
    54   23   76 1   
    55   24   25 1   
    56   24   77 1   
    57   24   78 1   
    58   25   26 1   
    59   25   79 1   
    60   25   80 1   
    61   26   27 1   
    62   26   81 1   
    63   26   82 1   
    64   27   28 1   
    65   27   83 1   
    66   27   84 1   
    67   28   29 1   
    68   28   85 1   
    69   28   86 1   
    70   29   30 1   
    71   29   87 1   
    72   29   88 1   
    73   30   89 1   
    74   30   90 1   
    75   30   91 1   
    76   31   32 1   
    77   32   33 2   
    78   32   34 1   
    79   34   35 1   
    80   34   92 1   
    81   34   93 1   
    82   35   36 1   
    83   35   94 1   
    84   35   95 1   
    85   36   37 1   
    86   36   96 1   
    87   36   97 1   
    88   37   38 1   
    89   37   98 1   
    90   37   99 1   
    91   38   39 1   
    92   38  100 1   
    93   38  101 1   
    94   39   40 1   
    95   39  102 1   
    96   39  103 1   
    97   40   41 1   
    98   40  104 1   
    99   40  105 1   
   100   41   42 1   
   101   41  106 1   
   102   41  107 1   
   103   42   43 1   
   104   42  108 1   
   105   42  109 1   
   106   43   44 1   
   107   43  110 1   
   108   43  111 1   
   109   44   45 1   
   110   44  112 1   
   111   44  113 1   
   112   45   46 1   
   113   45  114 1   
   114   45  115 1   
   115   46  116 1   
   116   46  117 1   
   117   46  118 1   
@<TRIPOS>SUBSTRUCTURE
     1 PX4         1 TEMP              0 ****  ****    0 ROOT
