@<TRIPOS>MOLECULE
PX4
  118   117     1     0     0
SMALL
bcc


@<TRIPOS>ATOM
      1 O1         -0.0630   -2.3450    1.7000 o         1 PX4     -0.814000
      2 O2          2.5530   -2.6900    2.1170 o         1 PX4     -0.814000
      3 P1          1.3630   -1.9420    1.7130 p5        1 PX4      1.438800
      4 O3          1.2900   -0.5120    2.5800 os        1 PX4     -0.578200
      5 C1          0.2700   -0.3700    3.4980 c3        1 PX4      0.197400
      6 C2         -0.6680    0.7900    3.1120 c3        1 PX4      0.079800
      7 N1         -1.7820    0.5000    2.1400 n4        1 PX4     -0.576800
      8 C3         -2.5470   -0.7170    2.5370 c3        1 PX4      0.075433
      9 C4         -2.7000    1.6780    2.1460 c3        1 PX4      0.075433
     10 C5         -1.2570    0.3270    0.7530 c3        1 PX4      0.075433
     11 O4          1.6170   -1.1910    0.2780 os        1 PX4     -0.580200
     12 C6          2.9370   -0.7520    0.1060 c3        1 PX4      0.176400
     13 C7          2.9700    0.1320   -1.1460 c3        1 PX4      0.135100
     14 C8          2.2260    1.4510   -0.9510 c3        1 PX4      0.113400
     15 O5          2.8730    2.2000    0.0880 os        1 PX4     -0.420900
     16 C9          2.1120    2.7740    1.0580 c         1 PX4      0.664100
     17 O6          0.8770    2.7450    0.9640 o         1 PX4     -0.609000
     18 C10         2.9450    3.3790    2.1460 c3        1 PX4     -0.135400
     19 C11         2.2490    4.5610    2.7830 c3        1 PX4     -0.075400
     20 C12         3.0380    5.0760    3.9680 c3        1 PX4     -0.081400
     21 C13         2.3540    6.2680    4.6030 c3        1 PX4     -0.077400
     22 C14         3.1370    6.7800    5.7920 c3        1 PX4     -0.079400
     23 C15         2.4530    7.9710    6.4280 c3        1 PX4     -0.078400
     24 C16         3.2360    8.4830    7.6190 c3        1 PX4     -0.079400
     25 C17         2.5510    9.6730    8.2550 c3        1 PX4     -0.078400
     26 C18         3.3340   10.1850    9.4450 c3        1 PX4     -0.079400
     27 C19         2.6500   11.3760   10.0820 c3        1 PX4     -0.079400
     28 C20         3.4320   11.8880   11.2710 c3        1 PX4     -0.079400
     29 C21         2.7480   13.0790   11.9090 c3        1 PX4     -0.080400
     30 C22         3.5250   13.5930   13.0940 c3        1 PX4     -0.093100
     31 O7          4.3630    0.3540   -1.4170 os        1 PX4     -0.426900
     32 C23         4.7120    0.7380   -2.6820 c         1 PX4      0.637100
     33 O8          3.8220    0.9200   -3.5160 o         1 PX4     -0.555000
     34 C24         6.1930    0.9010   -2.8370 c3        1 PX4     -0.127400
     35 C25         6.6540    0.3920   -4.1860 c3        1 PX4     -0.079400
     36 C26         8.1250    0.6820   -4.3950 c3        1 PX4     -0.078400
     37 C27         8.5980    0.1580   -5.7340 c3        1 PX4     -0.079400
     38 C28        10.0680    0.4500   -5.9490 c3        1 PX4     -0.079400
     39 C29        10.5410   -0.0760   -7.2870 c3        1 PX4     -0.079400
     40 C30        12.0110    0.2170   -7.5040 c3        1 PX4     -0.078400
     41 C31        12.4840   -0.3090   -8.8420 c3        1 PX4     -0.079400
     42 C32        13.9530   -0.0160   -9.0600 c3        1 PX4     -0.078400
     43 C33        14.4250   -0.5420  -10.3980 c3        1 PX4     -0.079400
     44 C34        15.8940   -0.2480  -10.6160 c3        1 PX4     -0.079400
     45 C35        16.3680   -0.7750  -11.9540 c3        1 PX4     -0.080400
     46 C36        17.8300   -0.4840  -12.1760 c3        1 PX4     -0.092100
     47 H1         -0.2970   -1.3310    3.6400 h1        1 PX4      0.053200
     48 H2          0.7260   -0.0550    4.4840 h1        1 PX4      0.053200
     49 H3         -1.1570    1.1650    4.0550 hx        1 PX4      0.091200
     50 H4         -0.0380    1.6090    2.6530 hx        1 PX4      0.091200
     51 H5         -1.9370   -1.6440    2.3040 hx        1 PX4      0.100811
     52 H6         -2.7700   -0.6690    3.6330 hx        1 PX4      0.100811
     53 H7         -3.5020   -0.7540    1.9530 hx        1 PX4      0.100811
     54 H8         -3.5030    1.5280    1.3770 hx        1 PX4      0.100811
     55 H9         -3.1680    1.7860    3.1580 hx        1 PX4      0.100811
     56 H10        -2.1120    2.6020    1.8960 hx        1 PX4      0.100811
     57 H11        -0.6970    1.2520    0.4510 hx        1 PX4      0.100811
     58 H12        -2.1160    0.1400    0.0600 hx        1 PX4      0.100811
     59 H13        -0.5560   -0.5640    0.7350 hx        1 PX4      0.100811
     60 H14         3.2560   -0.1660    1.0100 h1        1 PX4      0.056700
     61 H15         3.6110   -1.6420   -0.0170 h1        1 PX4      0.056700
     62 H16         2.4930   -0.4030   -2.0160 h1        1 PX4      0.087700
     63 H17         2.2920    2.0830   -1.8760 h1        1 PX4      0.074700
     64 H18         1.1590    1.2280   -0.6890 h1        1 PX4      0.074700
     65 H19         3.1290    2.5700    2.9060 hc        1 PX4      0.088700
     66 H20         3.9410    3.6840    1.7290 hc        1 PX4      0.088700
     67 H21         1.2190    4.2570    3.1110 hc        1 PX4      0.048700
     68 H22         2.1240    5.3790    2.0250 hc        1 PX4      0.048700
     69 H23         4.0690    5.3670    3.6350 hc        1 PX4      0.044700
     70 H24         3.1540    4.2590    4.7280 hc        1 PX4      0.044700
     71 H25         1.3200    5.9790    4.9290 hc        1 PX4      0.039200
     72 H26         2.2440    7.0870    3.8440 hc        1 PX4      0.039200
     73 H27         4.1710    7.0700    5.4650 hc        1 PX4      0.041700
     74 H28         3.2490    5.9600    6.5510 hc        1 PX4      0.041700
     75 H29         2.3430    8.7900    5.6700 hc        1 PX4      0.038700
     76 H30         1.4190    7.6810    6.7550 hc        1 PX4      0.038700
     77 H31         3.3470    7.6630    8.3770 hc        1 PX4      0.040700
     78 H32         4.2690    8.7730    7.2920 hc        1 PX4      0.040700
     79 H33         2.4400   10.4930    7.4970 hc        1 PX4      0.039200
     80 H34         1.5180    9.3830    8.5810 hc        1 PX4      0.039200
     81 H35         4.3670   10.4760    9.1190 hc        1 PX4      0.040200
     82 H36         3.4450    9.3660   10.2030 hc        1 PX4      0.040200
     83 H37         1.6160   11.0860   10.4080 hc        1 PX4      0.039200
     84 H38         2.5380   12.1950    9.3230 hc        1 PX4      0.039200
     85 H39         3.5440   11.0690   12.0300 hc        1 PX4      0.039700
     86 H40         4.4650   12.1790   10.9450 hc        1 PX4      0.039700
     87 H41         2.6360   13.8970   11.1490 hc        1 PX4      0.038200
     88 H42         1.7150   12.7870   12.2340 hc        1 PX4      0.038200
     89 H43         4.5490   13.9130   12.7860 hc        1 PX4      0.032700
     90 H44         3.0030   14.4700   13.5490 hc        1 PX4      0.032700
     91 H45         3.6260   12.8000   13.8740 hc        1 PX4      0.032700
     92 H46         6.4210    1.9960   -2.7330 hc        1 PX4      0.078700
     93 H47         6.7210    0.3600   -2.0090 hc        1 PX4      0.078700
     94 H48         6.0480    0.8770   -4.9970 hc        1 PX4      0.057700
     95 H49         6.4730   -0.7130   -4.2530 hc        1 PX4      0.057700
     96 H50         8.3030    1.7890   -4.3400 hc        1 PX4      0.040700
     97 H51         8.7240    0.2090   -3.5720 hc        1 PX4      0.040700
     98 H52         7.9960    0.6270   -6.5560 hc        1 PX4      0.042700
     99 H53         8.4230   -0.9490   -5.7870 hc        1 PX4      0.042700
    100 H54        10.2430    1.5570   -5.8960 hc        1 PX4      0.039700
    101 H55        10.6690   -0.0190   -5.1260 hc        1 PX4      0.039700
    102 H56         9.9390    0.3930   -8.1100 hc        1 PX4      0.040200
    103 H57        10.3670   -1.1830   -7.3390 hc        1 PX4      0.040200
    104 H58        12.6130   -0.2520   -6.6810 hc        1 PX4      0.039200
    105 H59        12.1850    1.3240   -7.4520 hc        1 PX4      0.039200
    106 H60        12.3100   -1.4160   -8.8930 hc        1 PX4      0.039700
    107 H61        11.8810    0.1580   -9.6640 hc        1 PX4      0.039700
    108 H62        14.5560   -0.4830   -8.2370 hc        1 PX4      0.039200
    109 H63        14.1270    1.0910   -9.0080 hc        1 PX4      0.039200
    110 H64        14.2520   -1.6500  -10.4480 hc        1 PX4      0.039700
    111 H65        13.8220   -0.0750  -11.2200 hc        1 PX4      0.039700
    112 H66        16.4980   -0.7150   -9.7940 hc        1 PX4      0.039200
    113 H67        16.0680    0.8590  -10.5660 hc        1 PX4      0.039200
    114 H68        15.7620   -0.3080  -12.7750 hc        1 PX4      0.038700
    115 H69        16.1920   -1.8820  -12.0030 hc        1 PX4      0.038700
    116 H70        18.4530   -0.9620  -11.3810 hc        1 PX4      0.032367
    117 H71        18.0210    0.6160  -12.1550 hc        1 PX4      0.032367
    118 H72        18.1590   -0.8800  -13.1670 hc        1 PX4      0.032367
@<TRIPOS>BOND
     1    1    3 1   
     2    2    3 1   
     3    3    4 1   
     4    3   11 1   
     5    4    5 1   
     6    5    6 1   
     7    5   47 1   
     8    5   48 1   
     9    6    7 1   
    10    6   49 1   
    11    6   50 1   
    12    7    8 1   
    13    7    9 1   
    14    7   10 1   
    15    8   51 1   
    16    8   52 1   
    17    8   53 1   
    18    9   54 1   
    19    9   55 1   
    20    9   56 1   
    21   10   57 1   
    22   10   58 1   
    23   10   59 1   
    24   11   12 1   
    25   12   13 1   
    26   12   60 1   
    27   12   61 1   
    28   13   14 1   
    29   13   31 1   
    30   13   62 1   
    31   14   15 1   
    32   14   63 1   
    33   14   64 1   
    34   15   16 1   
    35   16   17 2   
    36   16   18 1   
    37   18   19 1   
    38   18   65 1   
    39   18   66 1   
    40   19   20 1   
    41   19   67 1   
    42   19   68 1   
    43   20   21 1   
    44   20   69 1   
    45   20   70 1   
    46   21   22 1   
    47   21   71 1   
    48   21   72 1   
    49   22   23 1   
    50   22   73 1   
    51   22   74 1   
    52   23   24 1   
    53   23   75 1   
    54   23   76 1   
    55   24   25 1   
    56   24   77 1   
    57   24   78 1   
    58   25   26 1   
    59   25   79 1   
    60   25   80 1   
    61   26   27 1   
    62   26   81 1   
    63   26   82 1   
    64   27   28 1   
    65   27   83 1   
    66   27   84 1   
    67   28   29 1   
    68   28   85 1   
    69   28   86 1   
    70   29   30 1   
    71   29   87 1   
    72   29   88 1   
    73   30   89 1   
    74   30   90 1   
    75   30   91 1   
    76   31   32 1   
    77   32   33 2   
    78   32   34 1   
    79   34   35 1   
    80   34   92 1   
    81   34   93 1   
    82   35   36 1   
    83   35   94 1   
    84   35   95 1   
    85   36   37 1   
    86   36   96 1   
    87   36   97 1   
    88   37   38 1   
    89   37   98 1   
    90   37   99 1   
    91   38   39 1   
    92   38  100 1   
    93   38  101 1   
    94   39   40 1   
    95   39  102 1   
    96   39  103 1   
    97   40   41 1   
    98   40  104 1   
    99   40  105 1   
   100   41   42 1   
   101   41  106 1   
   102   41  107 1   
   103   42   43 1   
   104   42  108 1   
   105   42  109 1   
   106   43   44 1   
   107   43  110 1   
   108   43  111 1   
   109   44   45 1   
   110   44  112 1   
   111   44  113 1   
   112   45   46 1   
   113   45  114 1   
   114   45  115 1   
   115   46  116 1   
   116   46  117 1   
   117   46  118 1   
@<TRIPOS>SUBSTRUCTURE
     1 PX4         1 TEMP              0 ****  ****    0 ROOT
