@<TRIPOS>MOLECULE
PX4
  118   117     1     0     0
SMALL
bcc


@<TRIPOS>ATOM
      1 O1         -0.1630   -2.4430    1.6970 o         1 PX4     -0.814500
      2 O2          2.4480   -2.8240    2.1080 o         1 PX4     -0.814500
      3 P1          1.2670   -2.0560    1.7160 p5        1 PX4      1.438800
      4 O3          1.2090   -0.6390    2.6060 os        1 PX4     -0.577200
      5 C1          0.1900   -0.4990    3.5250 c3        1 PX4      0.197400
      6 C2         -0.7340    0.6770    3.1550 c3        1 PX4      0.079800
      7 N1         -1.8520    0.4130    2.1790 n4        1 PX4     -0.576800
      8 C3         -2.6300   -0.8010    2.5590 c3        1 PX4      0.075433
      9 C4         -2.7570    1.6010    2.2020 c3        1 PX4      0.075433
     10 C5         -1.3290    0.2550    0.7890 c3        1 PX4      0.075433
     11 O4          1.5300   -1.2850    0.2940 os        1 PX4     -0.580200
     12 C6          2.8530   -0.8560    0.1290 c3        1 PX4      0.175400
     13 C7          2.8960    0.0450   -1.1100 c3        1 PX4      0.135100
     14 C8          2.1600    1.3660   -0.8980 c3        1 PX4      0.112400
     15 O5          2.8160    2.1010    0.1460 os        1 PX4     -0.419900
     16 C9          2.0630    2.6750    1.1220 c         1 PX4      0.664100
     17 O6          0.8280    2.6530    1.0340 o         1 PX4     -0.610000
     18 C10         2.9040    3.2710    2.2080 c3        1 PX4     -0.135400
     19 C11         2.2530    4.5020    2.8000 c3        1 PX4     -0.075400
     20 C12         3.0440    5.0110    3.9860 c3        1 PX4     -0.080400
     21 C13         2.4070    6.2520    4.5740 c3        1 PX4     -0.078400
     22 C14         3.1930    6.7590    5.7640 c3        1 PX4     -0.079400
     23 C15         2.5570    8.0000    6.3530 c3        1 PX4     -0.078400
     24 C16         3.3420    8.5060    7.5440 c3        1 PX4     -0.079400
     25 C17         2.7060    9.7470    8.1340 c3        1 PX4     -0.078400
     26 C18         3.4910   10.2530    9.3250 c3        1 PX4     -0.079400
     27 C19         2.8550   11.4930    9.9150 c3        1 PX4     -0.079400
     28 C20         3.6410   12.0000   11.1050 c3        1 PX4     -0.079400
     29 C21         3.0060   13.2410   11.6970 c3        1 PX4     -0.080400
     30 C22         3.7850   13.7490   12.8830 c3        1 PX4     -0.093100
     31 O7          4.2910    0.2620   -1.3730 os        1 PX4     -0.426900
     32 C23         4.6460    0.6650   -2.6300 c         1 PX4      0.638100
     33 O8          3.7600    0.8640   -3.4650 o         1 PX4     -0.555000
     34 C24         6.1290    0.8240   -2.7770 c3        1 PX4     -0.127400
     35 C25         6.5910    0.3540   -4.1410 c3        1 PX4     -0.079400
     36 C26         8.0640    0.6430   -4.3360 c3        1 PX4     -0.078400
     37 C27         8.5390    0.1580   -5.6890 c3        1 PX4     -0.079400
     38 C28        10.0100    0.4500   -5.8910 c3        1 PX4     -0.079400
     39 C29        10.4860   -0.0360   -7.2430 c3        1 PX4     -0.079400
     40 C30        11.9570    0.2560   -7.4450 c3        1 PX4     -0.078400
     41 C31        12.4330   -0.2300   -8.7970 c3        1 PX4     -0.079400
     42 C32        13.9040    0.0610   -9.0000 c3        1 PX4     -0.078400
     43 C33        14.3800   -0.4250  -10.3520 c3        1 PX4     -0.079400
     44 C34        15.8510   -0.1340  -10.5550 c3        1 PX4     -0.079400
     45 C35        16.3290   -0.6210  -11.9060 c3        1 PX4     -0.080400
     46 C36        17.7930   -0.3320  -12.1130 c3        1 PX4     -0.092100
     47 H1          0.6480   -0.2030    4.5160 h1        1 PX4      0.053200
     48 H2         -0.3880   -1.4560    3.6520 h1        1 PX4      0.053200
     49 H3         -0.0950    1.4940    2.7060 hx        1 PX4      0.091200
     50 H4         -1.2180    1.0450    4.1020 hx        1 PX4      0.091200
     51 H5         -3.5860   -0.8190    1.9750 hx        1 PX4      0.100811
     52 H6         -2.8520   -0.7670    3.6550 hx        1 PX4      0.100811
     53 H7         -2.0300   -1.7310    2.3110 hx        1 PX4      0.100811
     54 H8         -2.1600    2.5220    1.9670 hx        1 PX4      0.100811
     55 H9         -3.5620    1.4710    1.4320 hx        1 PX4      0.100811
     56 H10        -3.2240    1.6980    3.2160 hx        1 PX4      0.100811
     57 H11        -0.6360   -0.6420    0.7580 hx        1 PX4      0.100811
     58 H12        -2.1900    0.0860    0.0950 hx        1 PX4      0.100811
     59 H13        -0.7610    1.1790    0.5000 hx        1 PX4      0.100811
     60 H14         3.1760   -0.2850    1.0420 h1        1 PX4      0.056700
     61 H15         3.5190   -1.7500   -0.0050 h1        1 PX4      0.056700
     62 H16         2.4190   -0.4740   -1.9880 h1        1 PX4      0.087700
     63 H17         1.0930    1.1450   -0.6320 h1        1 PX4      0.074700
     64 H18         2.2240    2.0070   -1.8170 h1        1 PX4      0.074700
     65 H19         3.9210    3.5180    1.8030 hc        1 PX4      0.088200
     66 H20         3.0360    2.4760    2.9930 hc        1 PX4      0.088200
     67 H21         1.2040    4.2550    3.1150 hc        1 PX4      0.049700
     68 H22         2.1820    5.3030    2.0180 hc        1 PX4      0.049700
     69 H23         4.0940    5.2420    3.6670 hc        1 PX4      0.044700
     70 H24         3.1050    4.2110    4.7700 hc        1 PX4      0.044700
     71 H25         2.3510    7.0530    3.7910 hc        1 PX4      0.039700
     72 H26         1.3550    6.0220    4.8880 hc        1 PX4      0.039700
     73 H27         3.2490    5.9570    6.5470 hc        1 PX4      0.041700
     74 H28         4.2450    6.9890    5.4500 hc        1 PX4      0.041700
     75 H29         1.5040    7.7710    6.6670 hc        1 PX4      0.038700
     76 H30         2.5010    8.8020    5.5710 hc        1 PX4      0.038700
     77 H31         3.3980    7.7040    8.3260 hc        1 PX4      0.040200
     78 H32         4.3940    8.7360    7.2300 hc        1 PX4      0.040200
     79 H33         2.6500   10.5490    7.3510 hc        1 PX4      0.039200
     80 H34         1.6540    9.5170    8.4470 hc        1 PX4      0.039200
     81 H35         4.5440   10.4830    9.0110 hc        1 PX4      0.040200
     82 H36         3.5480    9.4510   10.1070 hc        1 PX4      0.040200
     83 H37         1.8030   11.2640   10.2290 hc        1 PX4      0.039200
     84 H38         2.7990   12.2960    9.1330 hc        1 PX4      0.039200
     85 H39         3.6970   11.1980   11.8880 hc        1 PX4      0.039700
     86 H40         4.6930   12.2300   10.7920 hc        1 PX4      0.039700
     87 H41         2.9480   14.0410   10.9130 hc        1 PX4      0.038200
     88 H42         1.9530   13.0090   12.0090 hc        1 PX4      0.038200
     89 H43         3.8320   12.9740   13.6850 hc        1 PX4      0.032700
     90 H44         3.3000   14.6630   13.3030 hc        1 PX4      0.032700
     91 H45         4.8300   14.0090   12.5860 hc        1 PX4      0.032700
     92 H46         6.3630    1.9130   -2.6380 hc        1 PX4      0.079200
     93 H47         6.6510    0.2530   -1.9650 hc        1 PX4      0.079200
     94 H48         6.4040   -0.7470   -4.2420 hc        1 PX4      0.057700
     95 H49         5.9890    0.8670   -4.9370 hc        1 PX4      0.057700
     96 H50         8.6580    0.1410   -3.5270 hc        1 PX4      0.040700
     97 H51         8.2480    1.7460   -4.2460 hc        1 PX4      0.040700
     98 H52         8.3580   -0.9450   -5.7780 hc        1 PX4      0.042700
     99 H53         7.9420    0.6570   -6.4980 hc        1 PX4      0.042700
    100 H54        10.1910    1.5540   -5.8030 hc        1 PX4      0.039700
    101 H55        10.6070   -0.0480   -5.0810 hc        1 PX4      0.039700
    102 H56         9.8890    0.4620   -8.0530 hc        1 PX4      0.040200
    103 H57        10.3050   -1.1390   -7.3310 hc        1 PX4      0.040200
    104 H58        12.5540   -0.2410   -6.6360 hc        1 PX4      0.039200
    105 H59        12.1370    1.3600   -7.3580 hc        1 PX4      0.039200
    106 H60        11.8360    0.2660   -9.6070 hc        1 PX4      0.039700
    107 H61        12.2530   -1.3340   -8.8850 hc        1 PX4      0.039700
    108 H62        14.5010   -0.4350   -8.1900 hc        1 PX4      0.039200
    109 H63        14.0840    1.1650   -8.9130 hc        1 PX4      0.039200
    110 H64        14.2000   -1.5300  -10.4380 hc        1 PX4      0.039700
    111 H65        13.7830    0.0710  -11.1620 hc        1 PX4      0.039700
    112 H66        16.4480   -0.6300   -9.7450 hc        1 PX4      0.039200
    113 H67        16.0310    0.9700  -10.4680 hc        1 PX4      0.039200
    114 H68        15.7290   -0.1240  -12.7150 hc        1 PX4      0.038700
    115 H69        16.1460   -1.7250  -11.9910 hc        1 PX4      0.038700
    116 H70        17.9910    0.7660  -12.0560 hc        1 PX4      0.032367
    117 H71        18.4090   -0.8390  -11.3310 hc        1 PX4      0.032367
    118 H72        18.1240   -0.6990  -13.1140 hc        1 PX4      0.032367
@<TRIPOS>BOND
     1    1    3 1   
     2    2    3 1   
     3    3    4 1   
     4    3   11 1   
     5    4    5 1   
     6    5    6 1   
     7    5   47 1   
     8    5   48 1   
     9    6    7 1   
    10    6   49 1   
    11    6   50 1   
    12    7    8 1   
    13    7    9 1   
    14    7   10 1   
    15    8   51 1   
    16    8   52 1   
    17    8   53 1   
    18    9   54 1   
    19    9   55 1   
    20    9   56 1   
    21   10   57 1   
    22   10   58 1   
    23   10   59 1   
    24   11   12 1   
    25   12   13 1   
    26   12   60 1   
    27   12   61 1   
    28   13   14 1   
    29   13   31 1   
    30   13   62 1   
    31   14   15 1   
    32   14   63 1   
    33   14   64 1   
    34   15   16 1   
    35   16   17 2   
    36   16   18 1   
    37   18   19 1   
    38   18   65 1   
    39   18   66 1   
    40   19   20 1   
    41   19   67 1   
    42   19   68 1   
    43   20   21 1   
    44   20   69 1   
    45   20   70 1   
    46   21   22 1   
    47   21   71 1   
    48   21   72 1   
    49   22   23 1   
    50   22   73 1   
    51   22   74 1   
    52   23   24 1   
    53   23   75 1   
    54   23   76 1   
    55   24   25 1   
    56   24   77 1   
    57   24   78 1   
    58   25   26 1   
    59   25   79 1   
    60   25   80 1   
    61   26   27 1   
    62   26   81 1   
    63   26   82 1   
    64   27   28 1   
    65   27   83 1   
    66   27   84 1   
    67   28   29 1   
    68   28   85 1   
    69   28   86 1   
    70   29   30 1   
    71   29   87 1   
    72   29   88 1   
    73   30   89 1   
    74   30   90 1   
    75   30   91 1   
    76   31   32 1   
    77   32   33 2   
    78   32   34 1   
    79   34   35 1   
    80   34   92 1   
    81   34   93 1   
    82   35   36 1   
    83   35   94 1   
    84   35   95 1   
    85   36   37 1   
    86   36   96 1   
    87   36   97 1   
    88   37   38 1   
    89   37   98 1   
    90   37   99 1   
    91   38   39 1   
    92   38  100 1   
    93   38  101 1   
    94   39   40 1   
    95   39  102 1   
    96   39  103 1   
    97   40   41 1   
    98   40  104 1   
    99   40  105 1   
   100   41   42 1   
   101   41  106 1   
   102   41  107 1   
   103   42   43 1   
   104   42  108 1   
   105   42  109 1   
   106   43   44 1   
   107   43  110 1   
   108   43  111 1   
   109   44   45 1   
   110   44  112 1   
   111   44  113 1   
   112   45   46 1   
   113   45  114 1   
   114   45  115 1   
   115   46  116 1   
   116   46  117 1   
   117   46  118 1   
@<TRIPOS>SUBSTRUCTURE
     1 PX4         1 TEMP              0 ****  ****    0 ROOT
