@<TRIPOS>MOLECULE
PX4
  118   117     1     0     0
SMALL
bcc


@<TRIPOS>ATOM
      1 O1         -0.2650   -2.4750    1.5800 o         1 PX4     -0.814500
      2 O2          2.3370   -2.8960    2.0150 o         1 PX4     -0.814500
      3 P1          1.1700   -2.1070    1.6230 p5        1 PX4      1.438800
      4 O3          1.1190   -0.7050    2.5380 os        1 PX4     -0.577200
      5 C1          0.0900   -0.5690    3.4460 c3        1 PX4      0.197400
      6 C2         -0.8150    0.6250    3.0850 c3        1 PX4      0.079800
      7 N1         -1.9240    0.3920    2.0920 n4        1 PX4     -0.576800
      8 C3         -2.7210   -0.8180    2.4420 c3        1 PX4      0.075433
      9 C4         -2.8150    1.5910    2.1260 c3        1 PX4      0.075433
     10 C5         -1.3860    0.2520    0.7060 c3        1 PX4      0.075433
     11 O4          1.4590   -1.3130    0.2180 os        1 PX4     -0.580200
     12 C6          2.7900   -0.8970    0.0780 c3        1 PX4      0.175400
     13 C7          2.8580    0.0250   -1.1450 c3        1 PX4      0.135100
     14 C8          2.1330    1.3500   -0.9190 c3        1 PX4      0.112400
     15 O5          2.7850    2.0620    0.1420 os        1 PX4     -0.419900
     16 C9          2.0280    2.6300    1.1170 c         1 PX4      0.664100
     17 O6          0.7940    2.6220    1.0180 o         1 PX4     -0.610000
     18 C10         2.8640    3.2050    2.2200 c3        1 PX4     -0.135400
     19 C11         2.2380    4.4570    2.7930 c3        1 PX4     -0.075400
     20 C12         3.0170    4.9470    3.9940 c3        1 PX4     -0.080400
     21 C13         2.4070    6.2100    4.5630 c3        1 PX4     -0.078400
     22 C14         3.1810    6.6970    5.7690 c3        1 PX4     -0.079400
     23 C15         2.5730    7.9610    6.3370 c3        1 PX4     -0.078400
     24 C16         3.3460    8.4480    7.5440 c3        1 PX4     -0.079400
     25 C17         2.7380    9.7120    8.1130 c3        1 PX4     -0.078400
     26 C18         3.5110   10.1990    9.3190 c3        1 PX4     -0.079400
     27 C19         2.9030   11.4630    9.8890 c3        1 PX4     -0.079400
     28 C20         3.6760   11.9500   11.0950 c3        1 PX4     -0.079400
     29 C21         3.0690   13.2140   11.6660 c3        1 PX4     -0.080400
     30 C22         3.8360   13.7020   12.8680 c3        1 PX4     -0.093100
     31 O7          4.2590    0.2320   -1.3860 os        1 PX4     -0.426900
     32 C23         4.6350    0.6530   -2.6310 c         1 PX4      0.638100
     33 O8          3.7630    0.8760   -3.4730 o         1 PX4     -0.555000
     34 C24         6.1210    0.7990   -2.7550 c3        1 PX4     -0.127400
     35 C25         6.5960    0.3680   -4.1270 c3        1 PX4     -0.079400
     36 C26         8.0740    0.6460   -4.2950 c3        1 PX4     -0.078400
     37 C27         8.5600    0.2000   -5.6570 c3        1 PX4     -0.079400
     38 C28        10.0370    0.4810   -5.8310 c3        1 PX4     -0.079400
     39 C29        10.5230    0.0350   -7.1930 c3        1 PX4     -0.079400
     40 C30        12.0000    0.3170   -7.3680 c3        1 PX4     -0.078400
     41 C31        12.4870   -0.1290   -8.7300 c3        1 PX4     -0.079400
     42 C32        13.9640    0.1520   -8.9050 c3        1 PX4     -0.078400
     43 C33        14.4500   -0.2940  -10.2680 c3        1 PX4     -0.079400
     44 C34        15.9270   -0.0130  -10.4430 c3        1 PX4     -0.079400
     45 C35        16.4150   -0.4580  -11.8050 c3        1 PX4     -0.080400
     46 C36        17.8860   -0.1800  -11.9840 c3        1 PX4     -0.092100
     47 H1          0.5390   -0.2960    4.4480 h1        1 PX4      0.053200
     48 H2         -0.5010   -1.5200    3.5500 h1        1 PX4      0.053200
     49 H3         -1.3050    0.9840    4.0330 hx        1 PX4      0.091200
     50 H4         -0.1600    1.4420    2.6580 hx        1 PX4      0.091200
     51 H5         -2.1300   -1.7510    2.1840 hx        1 PX4      0.100811
     52 H6         -3.6700   -0.8140    1.8470 hx        1 PX4      0.100811
     53 H7         -2.9550   -0.8010    3.5360 hx        1 PX4      0.100811
     54 H8         -3.6110    1.4840    1.3440 hx        1 PX4      0.100811
     55 H9         -3.2920    1.6760    3.1360 hx        1 PX4      0.100811
     56 H10        -2.2030    2.5080    1.9140 hx        1 PX4      0.100811
     57 H11        -2.2410    0.1050   -0.0010 hx        1 PX4      0.100811
     58 H12        -0.7040   -0.6520    0.6670 hx        1 PX4      0.100811
     59 H13        -0.8040    1.1750    0.4400 hx        1 PX4      0.100811
     60 H14         3.4470   -1.7960   -0.0630 h1        1 PX4      0.056700
     61 H15         3.1080   -0.3460    1.0040 h1        1 PX4      0.056700
     62 H16         2.3880   -0.4740   -2.0380 h1        1 PX4      0.087700
     63 H17         1.0620    1.1350   -0.6680 h1        1 PX4      0.074700
     64 H18         2.2130    2.0040   -1.8280 h1        1 PX4      0.074700
     65 H19         2.9550    2.4100    3.0100 hc        1 PX4      0.088700
     66 H20         3.8970    3.4190    1.8360 hc        1 PX4      0.088700
     67 H21         1.1750    4.2450    3.0850 hc        1 PX4      0.049700
     68 H22         2.2100    5.2580    2.0070 hc        1 PX4      0.049700
     69 H23         3.0350    4.1490    4.7830 hc        1 PX4      0.044700
     70 H24         4.0820    5.1430    3.6990 hc        1 PX4      0.044700
     71 H25         2.3950    7.0090    3.7750 hc        1 PX4      0.039700
     72 H26         1.3410    6.0160    4.8530 hc        1 PX4      0.039700
     73 H27         4.2470    6.8910    5.4780 hc        1 PX4      0.041700
     74 H28         3.1940    5.8980    6.5560 hc        1 PX4      0.041700
     75 H29         1.5060    7.7680    6.6270 hc        1 PX4      0.038700
     76 H30         2.5610    8.7610    5.5500 hc        1 PX4      0.038700
     77 H31         3.3570    7.6490    8.3310 hc        1 PX4      0.040200
     78 H32         4.4120    8.6420    7.2540 hc        1 PX4      0.040200
     79 H33         1.6710    9.5190    8.4020 hc        1 PX4      0.039200
     80 H34         2.7270   10.5120    7.3260 hc        1 PX4      0.039200
     81 H35         3.5220    9.4000   10.1070 hc        1 PX4      0.040200
     82 H36         4.5780   10.3920    9.0300 hc        1 PX4      0.040200
     83 H37         2.8920   12.2620    9.1010 hc        1 PX4      0.039200
     84 H38         1.8360   11.2700   10.1780 hc        1 PX4      0.039200
     85 H39         3.6870   11.1500   11.8830 hc        1 PX4      0.039700
     86 H40         4.7430   12.1430   10.8060 hc        1 PX4      0.039700
     87 H41         2.0020   13.0190   11.9530 hc        1 PX4      0.038200
     88 H42         3.0570   14.0120   10.8770 hc        1 PX4      0.038200
     89 H43         4.8960   13.9250   12.5950 hc        1 PX4      0.032700
     90 H44         3.8370   12.9300   13.6750 hc        1 PX4      0.032700
     91 H45         3.3720   14.6340   13.2720 hc        1 PX4      0.032700
     92 H46         6.3660    1.8810   -2.5780 hc        1 PX4      0.079200
     93 H47         6.6270    0.1970   -1.9540 hc        1 PX4      0.079200
     94 H48         6.3980   -0.7280   -4.2650 hc        1 PX4      0.057700
     95 H49         6.0090    0.9130   -4.9140 hc        1 PX4      0.057700
     96 H50         8.2680    1.7440   -4.1670 hc        1 PX4      0.040700
     97 H51         8.6520    0.1110   -3.4950 hc        1 PX4      0.040700
     98 H52         7.9780    0.7320   -6.4560 hc        1 PX4      0.042700
     99 H53         8.3680   -0.8980   -5.7840 hc        1 PX4      0.042700
    100 H54        10.2290    1.5800   -5.7050 hc        1 PX4      0.039700
    101 H55        10.6180   -0.0500   -5.0320 hc        1 PX4      0.039700
    102 H56        10.3320   -1.0630   -7.3200 hc        1 PX4      0.040200
    103 H57         9.9420    0.5660   -7.9930 hc        1 PX4      0.040200
    104 H58        12.1920    1.4150   -7.2410 hc        1 PX4      0.039200
    105 H59        12.5820   -0.2150   -6.5690 hc        1 PX4      0.039200
    106 H60        11.9060    0.4020   -9.5300 hc        1 PX4      0.039700
    107 H61        12.2960   -1.2270   -8.8570 hc        1 PX4      0.039700
    108 H62        14.5450   -0.3790   -8.1060 hc        1 PX4      0.039200
    109 H63        14.1550    1.2500   -8.7780 hc        1 PX4      0.039200
    110 H64        13.8690    0.2370  -11.0670 hc        1 PX4      0.039700
    111 H65        14.2590   -1.3920  -10.3950 hc        1 PX4      0.039700
    112 H66        16.1190    1.0850  -10.3160 hc        1 PX4      0.039200
    113 H67        16.5090   -0.5440   -9.6440 hc        1 PX4      0.039200
    114 H68        15.8320    0.0730  -12.6030 hc        1 PX4      0.038700
    115 H69        16.2210   -1.5560  -11.9310 hc        1 PX4      0.038700
    116 H70        18.4860   -0.7210  -11.2130 hc        1 PX4      0.032367
    117 H71        18.2240   -0.5160  -12.9940 hc        1 PX4      0.032367
    118 H72        18.0950    0.9130  -11.8870 hc        1 PX4      0.032367
@<TRIPOS>BOND
     1    1    3 1   
     2    2    3 1   
     3    3    4 1   
     4    3   11 1   
     5    4    5 1   
     6    5    6 1   
     7    5   47 1   
     8    5   48 1   
     9    6    7 1   
    10    6   49 1   
    11    6   50 1   
    12    7    8 1   
    13    7    9 1   
    14    7   10 1   
    15    8   51 1   
    16    8   52 1   
    17    8   53 1   
    18    9   54 1   
    19    9   55 1   
    20    9   56 1   
    21   10   57 1   
    22   10   58 1   
    23   10   59 1   
    24   11   12 1   
    25   12   13 1   
    26   12   60 1   
    27   12   61 1   
    28   13   14 1   
    29   13   31 1   
    30   13   62 1   
    31   14   15 1   
    32   14   63 1   
    33   14   64 1   
    34   15   16 1   
    35   16   17 2   
    36   16   18 1   
    37   18   19 1   
    38   18   65 1   
    39   18   66 1   
    40   19   20 1   
    41   19   67 1   
    42   19   68 1   
    43   20   21 1   
    44   20   69 1   
    45   20   70 1   
    46   21   22 1   
    47   21   71 1   
    48   21   72 1   
    49   22   23 1   
    50   22   73 1   
    51   22   74 1   
    52   23   24 1   
    53   23   75 1   
    54   23   76 1   
    55   24   25 1   
    56   24   77 1   
    57   24   78 1   
    58   25   26 1   
    59   25   79 1   
    60   25   80 1   
    61   26   27 1   
    62   26   81 1   
    63   26   82 1   
    64   27   28 1   
    65   27   83 1   
    66   27   84 1   
    67   28   29 1   
    68   28   85 1   
    69   28   86 1   
    70   29   30 1   
    71   29   87 1   
    72   29   88 1   
    73   30   89 1   
    74   30   90 1   
    75   30   91 1   
    76   31   32 1   
    77   32   33 2   
    78   32   34 1   
    79   34   35 1   
    80   34   92 1   
    81   34   93 1   
    82   35   36 1   
    83   35   94 1   
    84   35   95 1   
    85   36   37 1   
    86   36   96 1   
    87   36   97 1   
    88   37   38 1   
    89   37   98 1   
    90   37   99 1   
    91   38   39 1   
    92   38  100 1   
    93   38  101 1   
    94   39   40 1   
    95   39  102 1   
    96   39  103 1   
    97   40   41 1   
    98   40  104 1   
    99   40  105 1   
   100   41   42 1   
   101   41  106 1   
   102   41  107 1   
   103   42   43 1   
   104   42  108 1   
   105   42  109 1   
   106   43   44 1   
   107   43  110 1   
   108   43  111 1   
   109   44   45 1   
   110   44  112 1   
   111   44  113 1   
   112   45   46 1   
   113   45  114 1   
   114   45  115 1   
   115   46  116 1   
   116   46  117 1   
   117   46  118 1   
@<TRIPOS>SUBSTRUCTURE
     1 PX4         1 TEMP              0 ****  ****    0 ROOT
