@<TRIPOS>MOLECULE
PX5
   26    21     1     0     0
SMALL
bcc


@<TRIPOS>ATOM
      1 C1         -3.5750    0.4060   -2.4090 c1        1 PX5     -0.124500
      2 C2         -2.1770    0.3710   -2.4290 c1        1 PX5     -0.080500
      3 C3         -1.4640    0.4440   -1.2410 c1        1 PX5     -0.199000
      4 C4         -2.1580    0.5540   -0.0010 c1        1 PX5     -0.199000
      5 C5         -3.5450    0.5880    0.0160 c1        1 PX5     -0.080500
      6 C6         -4.2610    0.5150   -1.1820 c1        1 PX5     -0.124500
      7 S7         -1.1080    0.5640    1.1280 s         1 PX5      0.505000
      8 C8          0.2790    0.4510    0.4700 c1        1 PX5     -0.248000
      9 N9          0.0910    0.3780   -0.9400 n1        1 PX5     -0.086000
     10 C10         1.5590    0.4970    1.1940 c2        1 PX5      0.191000
     11 C11         1.5600   -0.7830    2.0210 c2        1 PX5     -0.133000
     12 C12         2.4420   -1.9500    1.6280 c1        1 PX5     -0.190000
     13 C13         3.4430   -1.8010    0.5460 c1        1 PX5      0.277000
     14 C14         3.4730   -0.5720   -0.2790 c2        1 PX5     -0.190000
     15 C15         2.6080    0.6120    0.0830 c2        1 PX5     -0.133000
     16 O16         1.4650    1.6590    1.9830 oh        1 PX5     -0.316000
     17 O17         4.1450   -2.7460    0.2430 o         1 PX5     -0.273000
     18 H1         -4.0760    0.3540   -3.2450 ha        1 PX5      0.137500
     19 H2         -1.7020    0.2960   -3.2790 ha        1 PX5      0.146500
     20 H5         -4.0210    0.6640    0.8650 ha        1 PX5      0.146500
     21 H6         -5.2370    0.5390   -1.1690 ha        1 PX5      0.137500
     22 H11         0.9060   -0.8950    2.7370 ha        1 PX5      0.150000
     23 H12         2.4310   -2.7640    2.1670 ha        1 PX5      0.157000
     24 H14         4.1370   -0.4850   -0.9900 ha        1 PX5      0.157000
     25 H15         2.6380    1.4170   -0.4690 ha        1 PX5      0.150000
     26 HO16        2.1470    1.6860    2.5530 ho        1 PX5      0.221000
@<TRIPOS>BOND
     1    1    6 1   
     2    1   18 1   
     3    2    3 1   
     4    2   19 1   
     5    4    5 1   
     6    5   20 1   
     7    6   21 1   
     8    7    8 1   
     9    8    9 1   
    10   10   11 1   
    11   10   15 1   
    12   10   16 1   
    13   11   12 1   
    14   11   22 1   
    15   12   23 1   
    16   13   14 1   
    17   13   17 1   
    18   14   15 1   
    19   14   24 1   
    20   15   25 1   
    21   16   26 1   
@<TRIPOS>SUBSTRUCTURE
     1 PX5         1 TEMP              0 ****  ****    0 ROOT
