@<TRIPOS>MOLECULE
PX5
   26    28     1     0     0
SMALL
bcc


@<TRIPOS>ATOM
      1 C1         -0.1120    0.0070    0.0590 ca        1 PX5     -0.132000
      2 C2          1.2690    0.0200   -0.0210 ca        1 PX5     -0.070000
      3 C3          2.0200    0.0090    1.1740 ca        1 PX5      0.078400
      4 C4          1.3450   -0.0150    2.4410 ca        1 PX5     -0.110100
      5 C5         -0.0520   -0.0270    2.4870 ca        1 PX5     -0.091000
      6 C6         -0.7690   -0.0160    1.3020 ca        1 PX5     -0.117000
      7 S7          2.4770   -0.0230    3.6890 ss        1 PX5      0.053900
      8 C8          3.7770    0.0050    2.5410 cc        1 PX5      0.339200
      9 N9          3.4180    0.0200    1.2650 nd        1 PX5     -0.513100
     10 C10         5.2300    0.0110    2.9680 c3        1 PX5      0.195900
     11 C11         5.9050   -1.2300    2.4430 c2        1 PX5     -0.137200
     12 C12         6.8600   -1.2010    1.5080 ce        1 PX5     -0.209200
     13 C13         7.3580    0.0610    0.9290 c         1 PX5      0.554500
     14 C14         6.8370    1.2970    1.5470 ce        1 PX5     -0.209200
     15 C15         5.8830    1.2790    2.4820 c2        1 PX5     -0.137200
     16 O16         5.2260   -0.0110    4.3990 oh        1 PX5     -0.588800
     17 O17         8.1720    0.0830   -0.0020 o         1 PX5     -0.512100
     18 H1         -0.7120    0.0150   -0.8640 ha        1 PX5      0.138000
     19 H2          1.7860    0.0380   -0.9920 ha        1 PX5      0.153000
     20 H5         -0.5720   -0.0450    3.4560 ha        1 PX5      0.140000
     21 H6         -1.8700   -0.0260    1.3280 ha        1 PX5      0.137000
     22 H11         5.5390   -2.1720    2.8820 ha        1 PX5      0.150000
     23 H12         7.3240   -2.1230    1.1200 ha        1 PX5      0.157000
     24 H14         7.2850    2.2370    1.1870 ha        1 PX5      0.157000
     25 H15         5.5000    2.2000    2.9500 ha        1 PX5      0.150000
     26 HO16        6.1500   -0.0070    4.6770 ho        1 PX5      0.422000
@<TRIPOS>BOND
     1    1    2 ar  
     2    1    6 ar  
     3    1   18 1   
     4    2    3 ar  
     5    2   19 1   
     6    3    4 ar  
     7    3    9 1   
     8    4    5 ar  
     9    4    7 1   
    10    5    6 ar  
    11    5   20 1   
    12    6   21 1   
    13    7    8 1   
    14    8    9 2   
    15    8   10 1   
    16   10   11 1   
    17   10   15 1   
    18   10   16 1   
    19   11   12 2   
    20   11   22 1   
    21   12   13 1   
    22   12   23 1   
    23   13   14 1   
    24   13   17 2   
    25   14   15 2   
    26   14   24 1   
    27   15   25 1   
    28   16   26 1   
@<TRIPOS>SUBSTRUCTURE
     1 PX5         1 TEMP              0 ****  ****    0 ROOT
