@<TRIPOS>MOLECULE
PX5
   26    28     1     0     0
SMALL
bcc


@<TRIPOS>ATOM
      1 C1         -0.1370    0.0010    0.0640 ca        1 PX5     -0.132000
      2 C2          1.2440    0.0170   -0.0220 ca        1 PX5     -0.070000
      3 C3          2.0000    0.0070    1.1690 ca        1 PX5      0.078400
      4 C4          1.3310   -0.0190    2.4390 ca        1 PX5     -0.110100
      5 C5         -0.0660   -0.0350    2.4910 ca        1 PX5     -0.091000
      6 C6         -0.7890   -0.0250    1.3100 ca        1 PX5     -0.117000
      7 S7          2.4680   -0.0260    3.6820 ss        1 PX5      0.053900
      8 C8          3.7630    0.0060    2.5280 cc        1 PX5      0.339200
      9 N9          3.3980    0.0210    1.2530 nd        1 PX5     -0.513100
     10 C10         5.2180    0.0150    2.9480 c3        1 PX5      0.195900
     11 C11         5.8940   -1.2240    2.4200 c2        1 PX5     -0.137200
     12 C12         6.8440   -1.1940    1.4820 ce        1 PX5     -0.209200
     13 C13         7.3370    0.0690    0.8990 c         1 PX5      0.554500
     14 C14         6.8170    1.3040    1.5190 ce        1 PX5     -0.209200
     15 C15         5.8660    1.2850    2.4580 c2        1 PX5     -0.137200
     16 O16         5.2210   -0.0060    4.3790 oh        1 PX5     -0.588800
     17 O17         8.1470    0.0920   -0.0350 o         1 PX5     -0.512100
     18 H1         -0.7410    0.0080   -0.8560 ha        1 PX5      0.138000
     19 H2          1.7550    0.0380   -0.9960 ha        1 PX5      0.153000
     20 H5         -0.5810   -0.0560    3.4630 ha        1 PX5      0.140000
     21 H6         -1.8890   -0.0380    1.3410 ha        1 PX5      0.137000
     22 H11         5.5310   -2.1670    2.8620 ha        1 PX5      0.150000
     23 H12         7.3090   -2.1150    1.0910 ha        1 PX5      0.157000
     24 H14         7.2610    2.2450    1.1570 ha        1 PX5      0.157000
     25 H15         5.4840    2.2050    2.9280 ha        1 PX5      0.150000
     26 HO16        6.1470   -0.0000    4.6530 ho        1 PX5      0.422000
@<TRIPOS>BOND
     1    1    2 ar  
     2    1    6 ar  
     3    1   18 1   
     4    2    3 ar  
     5    2   19 1   
     6    3    4 ar  
     7    3    9 1   
     8    4    5 ar  
     9    4    7 1   
    10    5    6 ar  
    11    5   20 1   
    12    6   21 1   
    13    7    8 1   
    14    8    9 2   
    15    8   10 1   
    16   10   11 1   
    17   10   15 1   
    18   10   16 1   
    19   11   12 2   
    20   11   22 1   
    21   12   13 1   
    22   12   23 1   
    23   13   14 1   
    24   13   17 2   
    25   14   15 2   
    26   14   24 1   
    27   15   25 1   
    28   16   26 1   
@<TRIPOS>SUBSTRUCTURE
     1 PX5         1 TEMP              0 ****  ****    0 ROOT
