@<TRIPOS>MOLECULE
PX5
   26    28     1     0     0
SMALL
bcc


@<TRIPOS>ATOM
      1 C1          3.8900   -1.8660    0.0060 ca        1 PX5     -0.132000
      2 C2          2.5110   -1.9690    0.0070 ca        1 PX5     -0.070000
      3 C3          1.7400   -0.7870    0.0010 ca        1 PX5      0.078400
      4 C4          2.3940    0.4920   -0.0060 ca        1 PX5     -0.110100
      5 C5          3.7900    0.5610   -0.0060 ca        1 PX5     -0.091000
      6 C6          4.5270   -0.6110    0.0000 ca        1 PX5     -0.117000
      7 S7          1.2410    1.7210   -0.0120 ss        1 PX5      0.053900
      8 C8         -0.0400    0.5510   -0.0060 cc        1 PX5      0.339200
      9 N9          0.3410   -0.7200    0.0000 nd        1 PX5     -0.513100
     10 C10        -1.5000    0.9520   -0.0090 c3        1 PX5      0.195900
     11 C11        -2.1550    0.4290   -1.2610 c2        1 PX5     -0.137200
     12 C12        -3.0940   -0.5210   -1.2500 ce        1 PX5     -0.209200
     13 C13        -3.5930   -1.1230    0.0020 c         1 PX5      0.554500
     14 C14        -3.0940   -0.5080    1.2480 ce        1 PX5     -0.209200
     15 C15        -2.1550    0.4420    1.2490 c2        1 PX5     -0.137200
     16 O16        -1.5200    2.3830   -0.0160 oh        1 PX5     -0.588800
     17 O17        -4.3920   -2.0670    0.0070 o         1 PX5     -0.512100
     18 H1          4.5060   -2.7780    0.0110 ha        1 PX5      0.138000
     19 H2          2.0110   -2.9490    0.0120 ha        1 PX5      0.153000
     20 H5          4.2940    1.5390   -0.0110 ha        1 PX5      0.140000
     21 H6          5.6270   -0.5670    0.0000 ha        1 PX5      0.137000
     22 H11        -1.7880    0.8840   -2.1950 ha        1 PX5      0.150000
     23 H12        -3.5440   -0.9080   -2.1800 ha        1 PX5      0.157000
     24 H14        -3.5440   -0.8860    2.1810 ha        1 PX5      0.157000
     25 H15        -1.7890    0.9070    2.1780 ha        1 PX5      0.150000
     26 HO16       -2.4490    2.6460   -0.0180 ho        1 PX5      0.422000
@<TRIPOS>BOND
     1    1    2 ar  
     2    1    6 ar  
     3    1   18 1   
     4    2    3 ar  
     5    2   19 1   
     6    3    4 ar  
     7    3    9 1   
     8    4    5 ar  
     9    4    7 1   
    10    5    6 ar  
    11    5   20 1   
    12    6   21 1   
    13    7    8 1   
    14    8    9 2   
    15    8   10 1   
    16   10   11 1   
    17   10   15 1   
    18   10   16 1   
    19   11   12 2   
    20   11   22 1   
    21   12   13 1   
    22   12   23 1   
    23   13   14 1   
    24   13   17 2   
    25   14   15 2   
    26   14   24 1   
    27   15   25 1   
    28   16   26 1   
@<TRIPOS>SUBSTRUCTURE
     1 PX5         1 TEMP              0 ****  ****    0 ROOT
