@<TRIPOS>MOLECULE
PX6
  111   110     1     0     0
SMALL
bcc


@<TRIPOS>ATOM
      1 O1          2.3690   -1.5360    1.2630 o         1 PX6     -0.915167
      2 O2          3.9540    0.4520    1.2220 o         1 PX6     -0.915167
      3 P1          3.7060   -0.9810    0.8640 p5        1 PX6      1.323900
      4 O3          4.8860   -1.9220    0.9820 o         1 PX6     -0.915167
      5 O4          3.6000   -0.9220   -0.8790 os        1 PX6     -0.564200
      6 C1          2.3840   -0.5620   -1.3740 c3        1 PX6      0.234400
      7 C2          1.9580   -1.4040   -2.6070 c3        1 PX6      0.091100
      8 C3          3.0730   -1.6570   -3.6190 c3        1 PX6      0.144400
      9 O5          3.9180   -2.7130   -3.1730 os        1 PX6     -0.457900
     10 C4          5.2180   -2.3750   -2.8340 c         1 PX6      0.697100
     11 O6          5.7850   -1.5690   -3.5820 o         1 PX6     -0.613000
     12 C5          5.7030   -3.0850   -1.6310 c3        1 PX6     -0.218400
     13 C6          7.2020   -3.0440   -1.4660 c3        1 PX6     -0.037400
     14 C7          7.5600   -3.3180   -0.0200 c3        1 PX6     -0.115400
     15 C8          9.0160   -3.0190    0.2590 c3        1 PX6     -0.064400
     16 C9          9.3480   -3.2600    1.7160 c3        1 PX6     -0.082400
     17 C10        10.7900   -2.9190    2.0220 c3        1 PX6     -0.076400
     18 C11        11.1150   -3.1550    3.4820 c3        1 PX6     -0.080400
     19 C12        12.5550   -2.8080    3.7920 c3        1 PX6     -0.077400
     20 C13        12.8770   -3.0420    5.2520 c3        1 PX6     -0.079400
     21 C14        14.3170   -2.6930    5.5630 c3        1 PX6     -0.078400
     22 C15        14.6380   -2.9260    7.0240 c3        1 PX6     -0.079400
     23 C16        16.0770   -2.5760    7.3350 c3        1 PX6     -0.078400
     24 C17        16.3970   -2.8090    8.7960 c3        1 PX6     -0.079400
     25 C18        17.8360   -2.4590    9.1080 c3        1 PX6     -0.080400
     26 C19        18.1590   -2.6880   10.5620 c3        1 PX6     -0.091100
     27 O7          1.4640   -2.6500   -2.0820 os        1 PX6     -0.348900
     28 C20         0.6050   -3.3790   -2.8190 c         1 PX6      0.630100
     29 O8          0.1930   -2.9760   -3.9190 o         1 PX6     -0.623000
     30 C21         0.2430   -4.6690   -2.1370 c3        1 PX6     -0.139400
     31 C22        -1.1840   -5.0680   -2.4340 c3        1 PX6     -0.074400
     32 C23        -1.4990   -6.4270   -1.8470 c3        1 PX6     -0.079400
     33 C24        -2.9340   -6.8240   -2.1220 c3        1 PX6     -0.077400
     34 C25        -3.2510   -8.1840   -1.5380 c3        1 PX6     -0.079400
     35 C26        -4.6850   -8.5810   -1.8110 c3        1 PX6     -0.078400
     36 C27        -5.0020   -9.9410   -1.2270 c3        1 PX6     -0.079400
     37 C28        -6.4360  -10.3390   -1.5020 c3        1 PX6     -0.078400
     38 C29        -6.7520  -11.6990   -0.9170 c3        1 PX6     -0.079400
     39 C30        -8.1870  -12.0960   -1.1920 c3        1 PX6     -0.078400
     40 C31        -8.5020  -13.4560   -0.6080 c3        1 PX6     -0.079400
     41 C32        -9.9370  -13.8540   -0.8830 c3        1 PX6     -0.079400
     42 C33       -10.2520  -15.2140   -0.2990 c3        1 PX6     -0.079400
     43 C34       -11.6870  -15.6140   -0.5740 c3        1 PX6     -0.080400
     44 C35       -12.0060  -16.9670    0.0070 c3        1 PX6     -0.092100
     45 H2          1.5800   -0.6570   -0.5870 h1        1 PX6      0.012700
     46 H3          2.4070    0.4990   -1.7790 h1        1 PX6      0.012700
     47 H4          1.1160   -0.8810   -3.1420 h1        1 PX6      0.023700
     48 H5          3.6500   -0.7090   -3.7750 h1        1 PX6      0.042700
     49 H6          2.6380   -2.0200   -4.5900 h1        1 PX6      0.042700
     50 H7          5.3110   -4.1310   -1.6080 hc        1 PX6      0.152700
     51 H8          5.1990   -2.5290   -0.7230 hc        1 PX6      0.152700
     52 H9          7.5770   -2.0280   -1.7630 hc        1 PX6      0.013200
     53 H10         7.7000   -3.7910   -2.1390 hc        1 PX6      0.013200
     54 H11         7.3420   -4.3900    0.2240 hc        1 PX6      0.090200
     55 H12         6.8850   -2.6840    0.6400 hc        1 PX6      0.090200
     56 H13         9.2330   -1.9500   -0.0010 hc        1 PX6      0.016700
     57 H14         9.6750   -3.6570   -0.3880 hc        1 PX6      0.016700
     58 H15         9.1520   -4.3340    1.9740 hc        1 PX6      0.048700
     59 H16         8.6640   -2.6380    2.3540 hc        1 PX6      0.048700
     60 H17        10.9830   -1.8440    1.7640 hc        1 PX6      0.028700
     61 H18        11.4700   -3.5390    1.3810 hc        1 PX6      0.028700
     62 H19        10.9240   -4.2300    3.7400 hc        1 PX6      0.040700
     63 H20        10.4310   -2.5360    4.1200 hc        1 PX6      0.040700
     64 H21        12.7450   -1.7320    3.5330 hc        1 PX6      0.033700
     65 H22        13.2390   -3.4260    3.1520 hc        1 PX6      0.033700
     66 H23        12.6870   -4.1170    5.5110 hc        1 PX6      0.039700
     67 H24        12.1930   -2.4220    5.8900 hc        1 PX6      0.039700
     68 H25        15.0010   -3.3120    4.9240 hc        1 PX6      0.036200
     69 H26        14.5070   -1.6180    5.3030 hc        1 PX6      0.036200
     70 H27        14.4470   -4.0010    7.2830 hc        1 PX6      0.039200
     71 H28        13.9530   -2.3060    7.6620 hc        1 PX6      0.039200
     72 H29        16.7610   -3.1950    6.6970 hc        1 PX6      0.037200
     73 H30        16.2670   -1.5010    7.0750 hc        1 PX6      0.037200
     74 H31        15.7130   -2.1890    9.4340 hc        1 PX6      0.039200
     75 H32        16.2070   -3.8840    9.0560 hc        1 PX6      0.039200
     76 H33        18.5190   -3.0780    8.4680 hc        1 PX6      0.036700
     77 H34        18.0240   -1.3840    8.8460 hc        1 PX6      0.036700
     78 H35        17.5050   -2.0610   11.2150 hc        1 PX6      0.029367
     79 H36        18.0010   -3.7600   10.8360 hc        1 PX6      0.029367
     80 H37        19.2240   -2.4240   10.7710 hc        1 PX6      0.029367
     81 H38         0.9580   -5.4520   -2.5060 hc        1 PX6      0.084200
     82 H39         0.4060   -4.5530   -1.0310 hc        1 PX6      0.084200
     83 H40        -1.3460   -5.0810   -3.5450 hc        1 PX6      0.047200
     84 H41        -1.8820   -4.3010   -2.0080 hc        1 PX6      0.047200
     85 H42        -1.3180   -6.4070   -0.7400 hc        1 PX6      0.040700
     86 H43        -0.8070   -7.1950   -2.2820 hc        1 PX6      0.040700
     87 H44        -3.1150   -6.8380   -3.2290 hc        1 PX6      0.036700
     88 H45        -3.6260   -6.0560   -1.6830 hc        1 PX6      0.036700
     89 H46        -3.0690   -8.1680   -0.4310 hc        1 PX6      0.039200
     90 H47        -2.5580   -8.9510   -1.9750 hc        1 PX6      0.039200
     91 H48        -4.8670   -8.5960   -2.9180 hc        1 PX6      0.037200
     92 H49        -5.3770   -7.8140   -1.3730 hc        1 PX6      0.037200
     93 H50        -4.3090  -10.7080   -1.6640 hc        1 PX6      0.039200
     94 H51        -4.8210   -9.9250   -0.1200 hc        1 PX6      0.039200
     95 H52        -7.1280   -9.5720   -1.0650 hc        1 PX6      0.037700
     96 H53        -6.6170  -10.3540   -2.6090 hc        1 PX6      0.037700
     97 H54        -6.5720  -11.6830    0.1900 hc        1 PX6      0.038700
     98 H55        -6.0590  -12.4660   -1.3530 hc        1 PX6      0.038700
     99 H56        -8.8790  -11.3290   -0.7560 hc        1 PX6      0.038200
    100 H57        -8.3670  -12.1120   -2.2990 hc        1 PX6      0.038200
    101 H58        -7.8090  -14.2230   -1.0440 hc        1 PX6      0.039200
    102 H59        -8.3220  -13.4410    0.5000 hc        1 PX6      0.039200
    103 H60       -10.6300  -13.0870   -0.4470 hc        1 PX6      0.038200
    104 H61       -10.1160  -13.8700   -1.9900 hc        1 PX6      0.038200
    105 H62        -9.5590  -15.9810   -0.7340 hc        1 PX6      0.039200
    106 H63       -10.0730  -15.1980    0.8090 hc        1 PX6      0.039200
    107 H64       -11.8640  -15.6270   -1.6820 hc        1 PX6      0.037700
    108 H65       -12.3780  -14.8440   -0.1390 hc        1 PX6      0.037700
    109 H66       -11.8580  -16.9660    1.1140 hc        1 PX6      0.030367
    110 H67       -13.0660  -17.2420   -0.2070 hc        1 PX6      0.030367
    111 H68       -11.3420  -17.7510   -0.4330 hc        1 PX6      0.030367
@<TRIPOS>BOND
     1    1    3 1   
     2    2    3 1   
     3    3    4 1   
     4    3    5 1   
     5    5    6 1   
     6    6    7 1   
     7    6   45 1   
     8    6   46 1   
     9    7    8 1   
    10    7   27 1   
    11    7   47 1   
    12    8    9 1   
    13    8   48 1   
    14    8   49 1   
    15    9   10 1   
    16   10   11 2   
    17   10   12 1   
    18   12   13 1   
    19   12   50 1   
    20   12   51 1   
    21   13   14 1   
    22   13   52 1   
    23   13   53 1   
    24   14   15 1   
    25   14   54 1   
    26   14   55 1   
    27   15   16 1   
    28   15   56 1   
    29   15   57 1   
    30   16   17 1   
    31   16   58 1   
    32   16   59 1   
    33   17   18 1   
    34   17   60 1   
    35   17   61 1   
    36   18   19 1   
    37   18   62 1   
    38   18   63 1   
    39   19   20 1   
    40   19   64 1   
    41   19   65 1   
    42   20   21 1   
    43   20   66 1   
    44   20   67 1   
    45   21   22 1   
    46   21   68 1   
    47   21   69 1   
    48   22   23 1   
    49   22   70 1   
    50   22   71 1   
    51   23   24 1   
    52   23   72 1   
    53   23   73 1   
    54   24   25 1   
    55   24   74 1   
    56   24   75 1   
    57   25   26 1   
    58   25   76 1   
    59   25   77 1   
    60   26   78 1   
    61   26   79 1   
    62   26   80 1   
    63   27   28 1   
    64   28   29 2   
    65   28   30 1   
    66   30   31 1   
    67   30   81 1   
    68   30   82 1   
    69   31   32 1   
    70   31   83 1   
    71   31   84 1   
    72   32   33 1   
    73   32   85 1   
    74   32   86 1   
    75   33   34 1   
    76   33   87 1   
    77   33   88 1   
    78   34   35 1   
    79   34   89 1   
    80   34   90 1   
    81   35   36 1   
    82   35   91 1   
    83   35   92 1   
    84   36   37 1   
    85   36   93 1   
    86   36   94 1   
    87   37   38 1   
    88   37   95 1   
    89   37   96 1   
    90   38   39 1   
    91   38   97 1   
    92   38   98 1   
    93   39   40 1   
    94   39   99 1   
    95   39  100 1   
    96   40   41 1   
    97   40  101 1   
    98   40  102 1   
    99   41   42 1   
   100   41  103 1   
   101   41  104 1   
   102   42   43 1   
   103   42  105 1   
   104   42  106 1   
   105   43   44 1   
   106   43  107 1   
   107   43  108 1   
   108   44  109 1   
   109   44  110 1   
   110   44  111 1   
@<TRIPOS>SUBSTRUCTURE
     1 PX6         1 TEMP              0 ****  ****    0 ROOT
