@<TRIPOS>MOLECULE
PX6
  111   110     1     0     0
SMALL
bcc


@<TRIPOS>ATOM
      1 O1          2.3570   -1.5300    1.2590 o         1 PX6     -0.915167
      2 O2          3.9400    0.4600    1.2250 o         1 PX6     -0.915167
      3 P1          3.6940   -0.9720    0.8630 p5        1 PX6      1.323900
      4 O3          4.8750   -1.9120    0.9780 o         1 PX6     -0.915167
      5 O4          3.5880   -0.9070   -0.8800 os        1 PX6     -0.564200
      6 C1          2.3720   -0.5480   -1.3740 c3        1 PX6      0.234400
      7 C2          1.9480   -1.3890   -2.6090 c3        1 PX6      0.091100
      8 C3          3.0630   -1.6370   -3.6230 c3        1 PX6      0.144400
      9 O5          3.9110   -2.6920   -3.1800 os        1 PX6     -0.457900
     10 C4          5.2090   -2.3520   -2.8390 c         1 PX6      0.697100
     11 O6          5.7750   -1.5420   -3.5850 o         1 PX6     -0.613000
     12 C5          5.6950   -3.0640   -1.6390 c3        1 PX6     -0.218400
     13 C6          7.1940   -3.0200   -1.4730 c3        1 PX6     -0.037400
     14 C7          7.5510   -3.2990   -0.0270 c3        1 PX6     -0.115400
     15 C8          9.0070   -3.0000    0.2540 c3        1 PX6     -0.064400
     16 C9          9.3380   -3.2470    1.7100 c3        1 PX6     -0.082400
     17 C10        10.7810   -2.9060    2.0180 c3        1 PX6     -0.076400
     18 C11        11.1050   -3.1500    3.4760 c3        1 PX6     -0.080400
     19 C12        12.5460   -2.8030    3.7890 c3        1 PX6     -0.077400
     20 C13        12.8670   -3.0460    5.2480 c3        1 PX6     -0.079400
     21 C14        14.3070   -2.6980    5.5610 c3        1 PX6     -0.078400
     22 C15        14.6270   -2.9410    7.0200 c3        1 PX6     -0.079400
     23 C16        16.0670   -2.5930    7.3330 c3        1 PX6     -0.078400
     24 C17        16.3870   -2.8350    8.7930 c3        1 PX6     -0.079400
     25 C18        17.8260   -2.4880    9.1080 c3        1 PX6     -0.080400
     26 C19        18.1490   -2.7270   10.5600 c3        1 PX6     -0.091100
     27 O7          1.4580   -2.6380   -2.0870 os        1 PX6     -0.348900
     28 C20         0.5990   -3.3670   -2.8250 c         1 PX6      0.630100
     29 O8          0.1850   -2.9630   -3.9220 o         1 PX6     -0.624000
     30 C21         0.2430   -4.6600   -2.1450 c3        1 PX6     -0.139400
     31 C22        -1.1850   -5.0610   -2.4380 c3        1 PX6     -0.074400
     32 C23        -1.4960   -6.4220   -1.8530 c3        1 PX6     -0.079400
     33 C24        -2.9310   -6.8210   -2.1230 c3        1 PX6     -0.077400
     34 C25        -3.2430   -8.1830   -1.5410 c3        1 PX6     -0.079400
     35 C26        -4.6780   -8.5810   -1.8090 c3        1 PX6     -0.078400
     36 C27        -4.9890   -9.9440   -1.2270 c3        1 PX6     -0.079400
     37 C28        -6.4250  -10.3420   -1.4950 c3        1 PX6     -0.078400
     38 C29        -6.7350  -11.7050   -0.9130 c3        1 PX6     -0.079400
     39 C30        -8.1710  -12.1040   -1.1820 c3        1 PX6     -0.078400
     40 C31        -8.4810  -13.4660   -0.6000 c3        1 PX6     -0.079400
     41 C32        -9.9160  -13.8650   -0.8680 c3        1 PX6     -0.079400
     42 C33       -10.2270  -15.2270   -0.2860 c3        1 PX6     -0.079400
     43 C34       -11.6620  -15.6280   -0.5540 c3        1 PX6     -0.080400
     44 C35       -11.9760  -16.9830    0.0240 c3        1 PX6     -0.092100
     45 H2          2.3930    0.5130   -1.7770 h1        1 PX6      0.012700
     46 H3          1.5680   -0.6470   -0.5870 h1        1 PX6      0.012700
     47 H4          1.1030   -0.8680   -3.1420 h1        1 PX6      0.023700
     48 H5          3.6380   -0.6870   -3.7760 h1        1 PX6      0.042700
     49 H6          2.6280   -1.9980   -4.5950 h1        1 PX6      0.042700
     50 H7          5.1900   -2.5130   -0.7280 hc        1 PX6      0.152700
     51 H8          5.3060   -4.1110   -1.6190 hc        1 PX6      0.152700
     52 H9          7.5670   -2.0030   -1.7660 hc        1 PX6      0.013200
     53 H10         7.6940   -3.7640   -2.1480 hc        1 PX6      0.013200
     54 H11         7.3360   -4.3730    0.2130 hc        1 PX6      0.090200
     55 H12         6.8750   -2.6700    0.6350 hc        1 PX6      0.090200
     56 H13         9.2230   -1.9290   -0.0010 hc        1 PX6      0.016700
     57 H14         9.6680   -3.6340   -0.3960 hc        1 PX6      0.016700
     58 H15         9.1440   -4.3220    1.9630 hc        1 PX6      0.048700
     59 H16         8.6550   -2.6280    2.3500 hc        1 PX6      0.048700
     60 H17        11.4620   -3.5220    1.3730 hc        1 PX6      0.029200
     61 H18        10.9720   -1.8300    1.7660 hc        1 PX6      0.029200
     62 H19        10.4210   -2.5340    4.1180 hc        1 PX6      0.040700
     63 H20        10.9150   -4.2260    3.7290 hc        1 PX6      0.040700
     64 H21        13.2290   -3.4180    3.1460 hc        1 PX6      0.033700
     65 H22        12.7350   -1.7260    3.5360 hc        1 PX6      0.033700
     66 H23        12.6770   -4.1220    5.5000 hc        1 PX6      0.039700
     67 H24        12.1830   -2.4300    5.8890 hc        1 PX6      0.039700
     68 H25        14.4960   -1.6220    5.3080 hc        1 PX6      0.036200
     69 H26        14.9910   -3.3130    4.9180 hc        1 PX6      0.036200
     70 H27        14.4370   -4.0170    7.2730 hc        1 PX6      0.039200
     71 H28        13.9430   -2.3250    7.6620 hc        1 PX6      0.039200
     72 H29        16.2570   -1.5160    7.0800 hc        1 PX6      0.037200
     73 H30        16.7510   -3.2080    6.6910 hc        1 PX6      0.037200
     74 H31        15.7030   -2.2200    9.4350 hc        1 PX6      0.039200
     75 H32        16.1970   -3.9110    9.0460 hc        1 PX6      0.039200
     76 H33        18.5090   -3.1030    8.4630 hc        1 PX6      0.036700
     77 H34        18.0150   -1.4110    8.8520 hc        1 PX6      0.036700
     78 H35        17.4960   -2.1040   11.2170 hc        1 PX6      0.029367
     79 H36        19.2140   -2.4650   10.7710 hc        1 PX6      0.029367
     80 H37        17.9910   -3.8000   10.8270 hc        1 PX6      0.029367
     81 H38         0.9580   -5.4410   -2.5180 hc        1 PX6      0.084200
     82 H39         0.4090   -4.5470   -1.0390 hc        1 PX6      0.084200
     83 H40        -1.3510   -5.0710   -3.5480 hc        1 PX6      0.047200
     84 H41        -1.8830   -4.2960   -2.0070 hc        1 PX6      0.047200
     85 H42        -0.8040   -7.1880   -2.2920 hc        1 PX6      0.040700
     86 H43        -1.3100   -6.4040   -0.7460 hc        1 PX6      0.040700
     87 H44        -3.6220   -6.0550   -1.6800 hc        1 PX6      0.036700
     88 H45        -3.1160   -6.8320   -3.2290 hc        1 PX6      0.036700
     89 H46        -3.0560   -8.1690   -0.4340 hc        1 PX6      0.039200
     90 H47        -2.5510   -8.9470   -1.9830 hc        1 PX6      0.039200
     91 H48        -5.3690   -7.8160   -1.3660 hc        1 PX6      0.036700
     92 H49        -4.8640   -8.5940   -2.9150 hc        1 PX6      0.036700
     93 H50        -4.8030   -9.9300   -0.1210 hc        1 PX6      0.039200
     94 H51        -4.2970  -10.7080   -1.6690 hc        1 PX6      0.039200
     95 H52        -6.6110  -10.3550   -2.6020 hc        1 PX6      0.037700
     96 H53        -7.1160   -9.5780   -1.0530 hc        1 PX6      0.037700
     97 H54        -6.5490  -11.6910    0.1930 hc        1 PX6      0.038700
     98 H55        -6.0430  -12.4690   -1.3550 hc        1 PX6      0.038700
     99 H56        -8.8620  -11.3390   -0.7400 hc        1 PX6      0.038200
    100 H57        -8.3560  -12.1160   -2.2880 hc        1 PX6      0.038200
    101 H58        -7.7890  -14.2300   -1.0420 hc        1 PX6      0.039200
    102 H59        -8.2950  -13.4530    0.5070 hc        1 PX6      0.039200
    103 H60       -10.6080  -13.1000   -0.4260 hc        1 PX6      0.038200
    104 H61       -10.1020  -13.8770   -1.9750 hc        1 PX6      0.038200
    105 H62        -9.5350  -15.9920   -0.7280 hc        1 PX6      0.039200
    106 H63       -10.0410  -15.2150    0.8200 hc        1 PX6      0.039200
    107 H64       -12.3520  -14.8610   -0.1120 hc        1 PX6      0.037700
    108 H65       -11.8460  -15.6380   -1.6610 hc        1 PX6      0.037700
    109 H66       -13.0370  -17.2590   -0.1850 hc        1 PX6      0.030367
    110 H67       -11.3140  -17.7650   -0.4230 hc        1 PX6      0.030367
    111 H68       -11.8210  -16.9860    1.1300 hc        1 PX6      0.030367
@<TRIPOS>BOND
     1    1    3 1   
     2    2    3 1   
     3    3    4 1   
     4    3    5 1   
     5    5    6 1   
     6    6    7 1   
     7    6   45 1   
     8    6   46 1   
     9    7    8 1   
    10    7   27 1   
    11    7   47 1   
    12    8    9 1   
    13    8   48 1   
    14    8   49 1   
    15    9   10 1   
    16   10   11 2   
    17   10   12 1   
    18   12   13 1   
    19   12   50 1   
    20   12   51 1   
    21   13   14 1   
    22   13   52 1   
    23   13   53 1   
    24   14   15 1   
    25   14   54 1   
    26   14   55 1   
    27   15   16 1   
    28   15   56 1   
    29   15   57 1   
    30   16   17 1   
    31   16   58 1   
    32   16   59 1   
    33   17   18 1   
    34   17   60 1   
    35   17   61 1   
    36   18   19 1   
    37   18   62 1   
    38   18   63 1   
    39   19   20 1   
    40   19   64 1   
    41   19   65 1   
    42   20   21 1   
    43   20   66 1   
    44   20   67 1   
    45   21   22 1   
    46   21   68 1   
    47   21   69 1   
    48   22   23 1   
    49   22   70 1   
    50   22   71 1   
    51   23   24 1   
    52   23   72 1   
    53   23   73 1   
    54   24   25 1   
    55   24   74 1   
    56   24   75 1   
    57   25   26 1   
    58   25   76 1   
    59   25   77 1   
    60   26   78 1   
    61   26   79 1   
    62   26   80 1   
    63   27   28 1   
    64   28   29 2   
    65   28   30 1   
    66   30   31 1   
    67   30   81 1   
    68   30   82 1   
    69   31   32 1   
    70   31   83 1   
    71   31   84 1   
    72   32   33 1   
    73   32   85 1   
    74   32   86 1   
    75   33   34 1   
    76   33   87 1   
    77   33   88 1   
    78   34   35 1   
    79   34   89 1   
    80   34   90 1   
    81   35   36 1   
    82   35   91 1   
    83   35   92 1   
    84   36   37 1   
    85   36   93 1   
    86   36   94 1   
    87   37   38 1   
    88   37   95 1   
    89   37   96 1   
    90   38   39 1   
    91   38   97 1   
    92   38   98 1   
    93   39   40 1   
    94   39   99 1   
    95   39  100 1   
    96   40   41 1   
    97   40  101 1   
    98   40  102 1   
    99   41   42 1   
   100   41  103 1   
   101   41  104 1   
   102   42   43 1   
   103   42  105 1   
   104   42  106 1   
   105   43   44 1   
   106   43  107 1   
   107   43  108 1   
   108   44  109 1   
   109   44  110 1   
   110   44  111 1   
@<TRIPOS>SUBSTRUCTURE
     1 PX6         1 TEMP              0 ****  ****    0 ROOT
