@<TRIPOS>MOLECULE
PX6
  111   110     1     0     0
SMALL
bcc


@<TRIPOS>ATOM
      1 O1          1.0980   -2.5440   -2.1700 o         1 PX6     -0.915167
      2 O2          3.2430   -3.9060   -2.2660 o         1 PX6     -0.915167
      3 P1          2.3810   -2.9470   -1.5030 p5        1 PX6      1.323900
      4 O3          3.0980   -1.8690   -0.7190 o         1 PX6     -0.915167
      5 O4          1.8340   -3.9190   -0.1590 os        1 PX6     -0.564200
      6 C1          0.7610   -4.7150   -0.4170 c3        1 PX6      0.234400
      7 C2         -0.2730   -4.7340    0.7420 c3        1 PX6      0.091100
      8 C3          0.3400   -4.8280    2.1380 c3        1 PX6      0.144400
      9 O5          0.8080   -3.5510    2.5600 os        1 PX6     -0.457900
     10 C4          2.1780   -3.4010    2.6990 c         1 PX6      0.697100
     11 O6          2.7810   -4.3470    3.2210 o         1 PX6     -0.613000
     12 C5          2.6660   -2.0920    2.2160 c3        1 PX6     -0.218400
     13 C6          4.0520   -1.7450    2.7000 c3        1 PX6     -0.037400
     14 C7          4.6580   -0.6960    1.7890 c3        1 PX6     -0.115400
     15 C8          6.1350   -0.5120    2.0600 c3        1 PX6     -0.064400
     16 C9          6.7330    0.5100    1.1170 c3        1 PX6     -0.082400
     17 C10         8.2210    0.6720    1.3430 c3        1 PX6     -0.076400
     18 C11         8.8160    1.6910    0.3940 c3        1 PX6     -0.080400
     19 C12        10.3050    1.8490    0.6130 c3        1 PX6     -0.077400
     20 C13        10.8970    2.8670   -0.3370 c3        1 PX6     -0.079400
     21 C14        12.3870    3.0250   -0.1190 c3        1 PX6     -0.078400
     22 C15        12.9780    4.0430   -1.0710 c3        1 PX6     -0.079400
     23 C16        14.4680    4.2000   -0.8530 c3        1 PX6     -0.078400
     24 C17        15.0590    5.2180   -1.8050 c3        1 PX6     -0.079400
     25 C18        16.5490    5.3770   -1.5880 c3        1 PX6     -0.080400
     26 C19        17.1420    6.3890   -2.5340 c3        1 PX6     -0.091100
     27 O7         -1.0370   -3.5210    0.6090 os        1 PX6     -0.348900
     28 C20        -2.2750   -3.4650    1.1350 c         1 PX6      0.630100
     29 O8         -2.7890   -4.4490    1.6880 o         1 PX6     -0.624000
     30 C21        -2.8950   -2.1070    0.9480 c3        1 PX6     -0.139400
     31 C22        -4.3890   -2.2090    0.7380 c3        1 PX6     -0.074400
     32 C23        -5.0210   -0.8350    0.6740 c3        1 PX6     -0.079400
     33 C24        -6.5130   -0.9270    0.4400 c3        1 PX6     -0.077400
     34 C25        -7.1470    0.4460    0.3790 c3        1 PX6     -0.079400
     35 C26        -8.6400    0.3540    0.1440 c3        1 PX6     -0.078400
     36 C27        -9.2730    1.7270    0.0830 c3        1 PX6     -0.079400
     37 C28       -10.7660    1.6350   -0.1530 c3        1 PX6     -0.078400
     38 C29       -11.3990    3.0090   -0.2140 c3        1 PX6     -0.079400
     39 C30       -12.8910    2.9170   -0.4490 c3        1 PX6     -0.078400
     40 C31       -13.5240    4.2910   -0.5110 c3        1 PX6     -0.079400
     41 C32       -15.0170    4.1990   -0.7460 c3        1 PX6     -0.079400
     42 C33       -15.6490    5.5730   -0.8080 c3        1 PX6     -0.079400
     43 C34       -17.1420    5.4830   -1.0430 c3        1 PX6     -0.080400
     44 C35       -17.7760    6.8480   -1.1050 c3        1 PX6     -0.092100
     45 H2          1.0730   -5.8030   -0.5050 h1        1 PX6      0.012700
     46 H3          0.2300   -4.3880   -1.3590 h1        1 PX6      0.012700
     47 H4         -0.9660   -5.6120    0.6070 h1        1 PX6      0.023700
     48 H5          1.1660   -5.5840    2.1270 h1        1 PX6      0.042700
     49 H6         -0.4490   -5.1140    2.8860 h1        1 PX6      0.042700
     50 H7          1.9290   -1.2860    2.4530 hc        1 PX6      0.152700
     51 H8          2.6790   -2.1840    1.0410 hc        1 PX6      0.152700
     52 H9          4.0250   -1.3730    3.7590 hc        1 PX6      0.013200
     53 H10         4.6880   -2.6690    2.6890 hc        1 PX6      0.013200
     54 H11         4.1250    0.2790    1.9330 hc        1 PX6      0.090200
     55 H12         4.4820   -1.0150    0.7130 hc        1 PX6      0.090200
     56 H13         6.6620   -1.4930    1.9290 hc        1 PX6      0.016700
     57 H14         6.2990   -0.1860    3.1220 hc        1 PX6      0.016700
     58 H15         6.2220    1.4990    1.2600 hc        1 PX6      0.048700
     59 H16         6.5400    0.1880    0.0590 hc        1 PX6      0.048700
     60 H17         8.7300   -0.3180    1.1980 hc        1 PX6      0.029200
     61 H18         8.4120    0.9890    2.4020 hc        1 PX6      0.029200
     62 H19         8.3070    2.6800    0.5390 hc        1 PX6      0.040700
     63 H20         8.6210    1.3720   -0.6640 hc        1 PX6      0.040700
     64 H21        10.8120    0.8590    0.4670 hc        1 PX6      0.033700
     65 H22        10.4980    2.1660    1.6720 hc        1 PX6      0.033700
     66 H23        10.3890    3.8570   -0.1920 hc        1 PX6      0.039700
     67 H24        10.7030    2.5480   -1.3950 hc        1 PX6      0.039700
     68 H25        12.8940    2.0340   -0.2650 hc        1 PX6      0.036200
     69 H26        12.5810    3.3420    0.9390 hc        1 PX6      0.036200
     70 H27        12.4700    5.0320   -0.9250 hc        1 PX6      0.039200
     71 H28        12.7840    3.7240   -2.1290 hc        1 PX6      0.039200
     72 H29        14.9750    3.2100   -0.9990 hc        1 PX6      0.037200
     73 H30        14.6620    4.5180    0.2050 hc        1 PX6      0.037200
     74 H31        14.5510    6.2080   -1.6590 hc        1 PX6      0.039200
     75 H32        14.8650    4.9000   -2.8630 hc        1 PX6      0.039200
     76 H33        17.0540    4.3850   -1.7330 hc        1 PX6      0.036700
     77 H34        16.7410    5.6930   -0.5290 hc        1 PX6      0.036700
     78 H35        18.2390    6.4900   -2.3580 hc        1 PX6      0.029367
     79 H36        16.9810    6.0780   -3.5950 hc        1 PX6      0.029367
     80 H37        16.6670    7.3900   -2.3880 hc        1 PX6      0.029367
     81 H38        -2.6650   -1.5070    1.8680 hc        1 PX6      0.084200
     82 H39        -2.4000   -1.5990    0.0770 hc        1 PX6      0.084200
     83 H40        -4.5940   -2.7640   -0.2160 hc        1 PX6      0.047200
     84 H41        -4.8450   -2.8050    1.5710 hc        1 PX6      0.047200
     85 H42        -4.8240   -0.2850    1.6320 hc        1 PX6      0.040700
     86 H43        -4.5450   -0.2420   -0.1520 hc        1 PX6      0.040700
     87 H44        -6.7090   -1.4750   -0.5190 hc        1 PX6      0.036700
     88 H45        -6.9870   -1.5250    1.2630 hc        1 PX6      0.036700
     89 H46        -6.9510    0.9930    1.3390 hc        1 PX6      0.039200
     90 H47        -6.6720    1.0420   -0.4440 hc        1 PX6      0.039200
     91 H48        -8.8350   -0.1940   -0.8160 hc        1 PX6      0.036700
     92 H49        -9.1140   -0.2430    0.9670 hc        1 PX6      0.036700
     93 H50        -9.0770    2.2750    1.0420 hc        1 PX6      0.039200
     94 H51        -8.7980    2.3230   -0.7410 hc        1 PX6      0.039200
     95 H52       -10.9620    1.0880   -1.1120 hc        1 PX6      0.037700
     96 H53       -11.2400    1.0390    0.6710 hc        1 PX6      0.037700
     97 H54       -11.2020    3.5570    0.7450 hc        1 PX6      0.038700
     98 H55       -10.9240    3.6050   -1.0380 hc        1 PX6      0.038700
     99 H56       -13.0870    2.3690   -1.4090 hc        1 PX6      0.038200
    100 H57       -13.3660    2.3210    0.3740 hc        1 PX6      0.038200
    101 H58       -13.3270    4.8390    0.4480 hc        1 PX6      0.039200
    102 H59       -13.0490    4.8870   -1.3350 hc        1 PX6      0.039200
    103 H60       -15.2130    3.6510   -1.7050 hc        1 PX6      0.038200
    104 H61       -15.4910    3.6030    0.0780 hc        1 PX6      0.038200
    105 H62       -15.4530    6.1210    0.1510 hc        1 PX6      0.039200
    106 H63       -15.1750    6.1690   -1.6310 hc        1 PX6      0.039200
    107 H64       -17.3360    4.9330   -2.0020 hc        1 PX6      0.037700
    108 H65       -17.6140    4.8850   -0.2190 hc        1 PX6      0.037700
    109 H66       -17.3350    7.4500   -1.9360 hc        1 PX6      0.030367
    110 H67       -18.8760    6.7590   -1.2790 hc        1 PX6      0.030367
    111 H68       -17.6140    7.4020   -0.1490 hc        1 PX6      0.030367
@<TRIPOS>BOND
     1    1    3 1   
     2    2    3 1   
     3    3    4 1   
     4    3    5 1   
     5    5    6 1   
     6    6    7 1   
     7    6   45 1   
     8    6   46 1   
     9    7    8 1   
    10    7   27 1   
    11    7   47 1   
    12    8    9 1   
    13    8   48 1   
    14    8   49 1   
    15    9   10 1   
    16   10   11 2   
    17   10   12 1   
    18   12   13 1   
    19   12   50 1   
    20   12   51 1   
    21   13   14 1   
    22   13   52 1   
    23   13   53 1   
    24   14   15 1   
    25   14   54 1   
    26   14   55 1   
    27   15   16 1   
    28   15   56 1   
    29   15   57 1   
    30   16   17 1   
    31   16   58 1   
    32   16   59 1   
    33   17   18 1   
    34   17   60 1   
    35   17   61 1   
    36   18   19 1   
    37   18   62 1   
    38   18   63 1   
    39   19   20 1   
    40   19   64 1   
    41   19   65 1   
    42   20   21 1   
    43   20   66 1   
    44   20   67 1   
    45   21   22 1   
    46   21   68 1   
    47   21   69 1   
    48   22   23 1   
    49   22   70 1   
    50   22   71 1   
    51   23   24 1   
    52   23   72 1   
    53   23   73 1   
    54   24   25 1   
    55   24   74 1   
    56   24   75 1   
    57   25   26 1   
    58   25   76 1   
    59   25   77 1   
    60   26   78 1   
    61   26   79 1   
    62   26   80 1   
    63   27   28 1   
    64   28   29 2   
    65   28   30 1   
    66   30   31 1   
    67   30   81 1   
    68   30   82 1   
    69   31   32 1   
    70   31   83 1   
    71   31   84 1   
    72   32   33 1   
    73   32   85 1   
    74   32   86 1   
    75   33   34 1   
    76   33   87 1   
    77   33   88 1   
    78   34   35 1   
    79   34   89 1   
    80   34   90 1   
    81   35   36 1   
    82   35   91 1   
    83   35   92 1   
    84   36   37 1   
    85   36   93 1   
    86   36   94 1   
    87   37   38 1   
    88   37   95 1   
    89   37   96 1   
    90   38   39 1   
    91   38   97 1   
    92   38   98 1   
    93   39   40 1   
    94   39   99 1   
    95   39  100 1   
    96   40   41 1   
    97   40  101 1   
    98   40  102 1   
    99   41   42 1   
   100   41  103 1   
   101   41  104 1   
   102   42   43 1   
   103   42  105 1   
   104   42  106 1   
   105   43   44 1   
   106   43  107 1   
   107   43  108 1   
   108   44  109 1   
   109   44  110 1   
   110   44  111 1   
@<TRIPOS>SUBSTRUCTURE
     1 PX6         1 TEMP              0 ****  ****    0 ROOT
