@<TRIPOS>MOLECULE
PX8
  123   122     1     0     0
SMALL
bcc


@<TRIPOS>ATOM
      1 O1          5.3710    0.3170    1.6650 o         1 PX8     -0.913167
      2 O2          6.2940   -0.9980   -0.3170 o         1 PX8     -0.913167
      3 P1          5.8240   -1.0040    1.1210 p5        1 PX8      1.321900
      4 O3          6.5720   -1.9430    2.0240 o         1 PX8     -0.913167
      5 O4          4.3230   -1.8530    0.9050 os        1 PX8     -0.566200
      6 C1          3.2730   -1.1000    0.4680 c3        1 PX8      0.225400
      7 C2          2.7360   -1.5220   -0.9280 c3        1 PX8      0.075100
      8 C3          3.8320   -1.5450   -1.9960 c3        1 PX8      0.066400
      9 O5          3.8340   -2.7410   -2.7780 os        1 PX8     -0.448900
     10 C4          4.5820   -3.8180   -2.3580 c         1 PX8      0.666100
     11 O6          4.6040   -4.7040   -3.2300 o         1 PX8     -0.614000
     12 C5          5.1730   -3.8290   -1.0020 c3        1 PX8     -0.239400
     13 C6          6.0550   -5.0120   -0.6820 c3        1 PX8     -0.036400
     14 C7          6.5800   -4.8590    0.7350 c3        1 PX8     -0.122400
     15 C8          8.0810   -5.0290    0.8310 c3        1 PX8     -0.046400
     16 C9          8.5730   -4.4920    2.1600 c3        1 PX8     -0.115400
     17 C10        10.0840   -4.4660    2.2260 c3        1 PX8     -0.064400
     18 C11        10.5570   -3.8820    3.5410 c3        1 PX8     -0.082400
     19 C12        12.0680   -3.8040    3.6020 c3        1 PX8     -0.076400
     20 C13        12.5360   -3.2150    4.9160 c3        1 PX8     -0.080400
     21 C14        14.0460   -3.1290    4.9770 c3        1 PX8     -0.078400
     22 C15        14.5120   -2.5380    6.2910 c3        1 PX8     -0.079400
     23 C16        16.0220   -2.4500    6.3520 c3        1 PX8     -0.078400
     24 C17        16.4860   -1.8590    7.6660 c3        1 PX8     -0.079400
     25 C18        17.9960   -1.7700    7.7280 c3        1 PX8     -0.078400
     26 C19        18.4600   -1.1790    9.0410 c3        1 PX8     -0.079400
     27 C20        19.9700   -1.0900    9.1040 c3        1 PX8     -0.080400
     28 C21        20.4370   -0.5010   10.4100 c3        1 PX8     -0.091100
     29 O7          2.1760   -2.8470   -0.7880 os        1 PX8     -0.394900
     30 C22         0.9760   -3.1210   -1.3410 c         1 PX8      0.640100
     31 O8          0.2720   -2.2340   -1.8430 o         1 PX8     -0.600000
     32 C23         0.6410   -4.5840   -1.2450 c3        1 PX8     -0.140400
     33 C24        -0.8540   -4.8110   -1.2410 c3        1 PX8     -0.074400
     34 C25        -1.1780   -6.2880   -1.2840 c3        1 PX8     -0.079400
     35 C26        -2.6730   -6.5220   -1.2650 c3        1 PX8     -0.078400
     36 C27        -3.0000   -8.0000   -1.3130 c3        1 PX8     -0.079400
     37 C28        -4.4950   -8.2340   -1.2930 c3        1 PX8     -0.078400
     38 C29        -4.8220   -9.7110   -1.3420 c3        1 PX8     -0.079400
     39 C30        -6.3170   -9.9460   -1.3230 c3        1 PX8     -0.078400
     40 C31        -6.6430  -11.4230   -1.3720 c3        1 PX8     -0.079400
     41 C32        -8.1390  -11.6580   -1.3530 c3        1 PX8     -0.078400
     42 C33        -8.4640  -13.1350   -1.4020 c3        1 PX8     -0.079400
     43 C34        -9.9600  -13.3700   -1.3830 c3        1 PX8     -0.078400
     44 C35       -10.2850  -14.8470   -1.4320 c3        1 PX8     -0.079400
     45 C36       -11.7800  -15.0820   -1.4130 c3        1 PX8     -0.079400
     46 C37       -12.1060  -16.5590   -1.4630 c3        1 PX8     -0.079400
     47 C38       -13.6010  -16.7950   -1.4440 c3        1 PX8     -0.080400
     48 C39       -13.9300  -18.2650   -1.4930 c3        1 PX8     -0.092100
     49 H2          2.3990   -1.2100    1.1770 h1        1 PX8      0.011700
     50 H3          3.5570   -0.0100    0.3910 h1        1 PX8      0.011700
     51 H4          1.9230   -0.8070   -1.2280 h1        1 PX8      0.038700
     52 H5          3.6180   -0.7530   -2.7650 h1        1 PX8      0.109200
     53 H6          4.8420   -1.3410   -1.5010 h1        1 PX8      0.109200
     54 H7          5.7730   -2.8660   -0.8180 hc        1 PX8      0.158200
     55 H8          4.3160   -3.7680   -0.2670 hc        1 PX8      0.158200
     56 H9          5.4780   -5.9680   -0.7900 hc        1 PX8      0.009200
     57 H10         6.8970   -5.0620   -1.4200 hc        1 PX8      0.009200
     58 H11         6.3230   -3.8170    1.1360 hc        1 PX8      0.085200
     59 H12         6.0770   -5.6020    1.4060 hc        1 PX8      0.085200
     60 H13         8.5740   -4.4580    0.0010 hc        1 PX8      0.007200
     61 H14         8.3690   -6.1070    0.7120 hc        1 PX8      0.007200
     62 H15         8.1480   -3.4470    2.2970 hc        1 PX8      0.087200
     63 H16         8.1730   -5.1250    2.9940 hc        1 PX8      0.087200
     64 H17        10.4820   -3.8470    1.3790 hc        1 PX8      0.017200
     65 H18        10.4980   -5.5020    2.1030 hc        1 PX8      0.017200
     66 H19        10.1790   -4.5100    4.3890 hc        1 PX8      0.048200
     67 H20        10.1170   -2.8570    3.6650 hc        1 PX8      0.048200
     68 H21        12.4440   -3.1740    2.7540 hc        1 PX8      0.029200
     69 H22        12.5060   -4.8290    3.4730 hc        1 PX8      0.029200
     70 H23        12.0940   -2.1920    5.0430 hc        1 PX8      0.040700
     71 H24        12.1610   -3.8450    5.7650 hc        1 PX8      0.040700
     72 H25        14.4200   -2.4980    4.1280 hc        1 PX8      0.034200
     73 H26        14.4880   -4.1520    4.8480 hc        1 PX8      0.034200
     74 H27        14.1360   -3.1670    7.1400 hc        1 PX8      0.039700
     75 H28        14.0700   -1.5140    6.4190 hc        1 PX8      0.039700
     76 H29        16.4630   -3.4730    6.2230 hc        1 PX8      0.036200
     77 H30        16.3960   -1.8200    5.5030 hc        1 PX8      0.036200
     78 H31        16.1110   -2.4880    8.5150 hc        1 PX8      0.039200
     79 H32        16.0440   -0.8350    7.7940 hc        1 PX8      0.039200
     80 H33        18.3700   -1.1400    6.8780 hc        1 PX8      0.037200
     81 H34        18.4380   -2.7940    7.5990 hc        1 PX8      0.037200
     82 H35        18.0850   -1.8090    9.8910 hc        1 PX8      0.039200
     83 H36        18.0180   -0.1550    9.1690 hc        1 PX8      0.039200
     84 H37        20.3420   -0.4610    8.2530 hc        1 PX8      0.036700
     85 H38        20.4100   -2.1140    8.9740 hc        1 PX8      0.036700
     86 H39        21.5520   -0.4440   10.4360 hc        1 PX8      0.029367
     87 H40        20.0270    0.5290   10.5460 hc        1 PX8      0.029367
     88 H41        20.0950   -1.1280   11.2690 hc        1 PX8      0.029367
     89 H42         1.1100   -5.0090   -0.3180 hc        1 PX8      0.080200
     90 H43         1.1170   -5.0900   -2.1280 hc        1 PX8      0.080200
     91 H44        -1.3000   -4.3500   -0.3210 hc        1 PX8      0.048700
     92 H45        -1.3110   -4.2890   -2.1240 hc        1 PX8      0.048700
     93 H46        -0.7380   -6.7430   -2.2100 hc        1 PX8      0.040200
     94 H47        -0.7050   -6.8030   -0.4060 hc        1 PX8      0.040200
     95 H48        -3.1460   -6.0030   -2.1400 hc        1 PX8      0.037700
     96 H49        -3.1120   -6.0700   -0.3370 hc        1 PX8      0.037700
     97 H50        -2.5610   -8.4510   -2.2410 hc        1 PX8      0.039200
     98 H51        -2.5260   -8.5180   -0.4380 hc        1 PX8      0.039200
     99 H52        -4.9690   -7.7150   -2.1680 hc        1 PX8      0.037200
    100 H53        -4.9340   -7.7820   -0.3650 hc        1 PX8      0.037200
    101 H54        -4.3480  -10.2300   -0.4670 hc        1 PX8      0.039200
    102 H55        -4.3820  -10.1630   -2.2710 hc        1 PX8      0.039200
    103 H56        -6.7560   -9.4950   -0.3940 hc        1 PX8      0.038200
    104 H57        -6.7900   -9.4270   -2.1980 hc        1 PX8      0.038200
    105 H58        -6.1700  -11.9420   -0.4970 hc        1 PX8      0.039200
    106 H59        -6.2040  -11.8740   -2.3000 hc        1 PX8      0.039200
    107 H60        -8.5780  -11.2070   -0.4240 hc        1 PX8      0.038200
    108 H61        -8.6120  -11.1390   -2.2270 hc        1 PX8      0.038200
    109 H62        -8.0250  -13.5860   -2.3310 hc        1 PX8      0.039200
    110 H63        -7.9910  -13.6540   -0.5270 hc        1 PX8      0.039200
    111 H64       -10.4330  -12.8510   -2.2570 hc        1 PX8      0.038700
    112 H65       -10.3990  -12.9190   -0.4540 hc        1 PX8      0.038700
    113 H66        -9.8460  -15.2980   -2.3610 hc        1 PX8      0.039200
    114 H67        -9.8120  -15.3660   -0.5580 hc        1 PX8      0.039200
    115 H68       -12.2200  -14.6310   -0.4840 hc        1 PX8      0.038700
    116 H69       -12.2540  -14.5620   -2.2880 hc        1 PX8      0.038700
    117 H70       -11.6670  -17.0100   -2.3920 hc        1 PX8      0.039200
    118 H71       -11.6330  -17.0780   -0.5880 hc        1 PX8      0.039200
    119 H72       -14.0390  -16.3420   -0.5150 hc        1 PX8      0.037700
    120 H73       -14.0730  -16.2740   -2.3180 hc        1 PX8      0.037700
    121 H74       -13.5230  -18.7290   -2.4240 hc        1 PX8      0.030700
    122 H75       -15.0370  -18.4160   -1.4780 hc        1 PX8      0.030700
    123 H76       -13.4890  -18.7970   -0.6160 hc        1 PX8      0.030700
@<TRIPOS>BOND
     1    1    3 1   
     2    2    3 1   
     3    3    4 1   
     4    3    5 1   
     5    5    6 1   
     6    6    7 1   
     7    6   49 1   
     8    6   50 1   
     9    7    8 1   
    10    7   29 1   
    11    7   51 1   
    12    8    9 1   
    13    8   52 1   
    14    8   53 1   
    15    9   10 1   
    16   10   11 2   
    17   10   12 1   
    18   12   13 1   
    19   12   54 1   
    20   12   55 1   
    21   13   14 1   
    22   13   56 1   
    23   13   57 1   
    24   14   15 1   
    25   14   58 1   
    26   14   59 1   
    27   15   16 1   
    28   15   60 1   
    29   15   61 1   
    30   16   17 1   
    31   16   62 1   
    32   16   63 1   
    33   17   18 1   
    34   17   64 1   
    35   17   65 1   
    36   18   19 1   
    37   18   66 1   
    38   18   67 1   
    39   19   20 1   
    40   19   68 1   
    41   19   69 1   
    42   20   21 1   
    43   20   70 1   
    44   20   71 1   
    45   21   22 1   
    46   21   72 1   
    47   21   73 1   
    48   22   23 1   
    49   22   74 1   
    50   22   75 1   
    51   23   24 1   
    52   23   76 1   
    53   23   77 1   
    54   24   25 1   
    55   24   78 1   
    56   24   79 1   
    57   25   26 1   
    58   25   80 1   
    59   25   81 1   
    60   26   27 1   
    61   26   82 1   
    62   26   83 1   
    63   27   28 1   
    64   27   84 1   
    65   27   85 1   
    66   28   86 1   
    67   28   87 1   
    68   28   88 1   
    69   29   30 1   
    70   30   31 2   
    71   30   32 1   
    72   32   33 1   
    73   32   89 1   
    74   32   90 1   
    75   33   34 1   
    76   33   91 1   
    77   33   92 1   
    78   34   35 1   
    79   34   93 1   
    80   34   94 1   
    81   35   36 1   
    82   35   95 1   
    83   35   96 1   
    84   36   37 1   
    85   36   97 1   
    86   36   98 1   
    87   37   38 1   
    88   37   99 1   
    89   37  100 1   
    90   38   39 1   
    91   38  101 1   
    92   38  102 1   
    93   39   40 1   
    94   39  103 1   
    95   39  104 1   
    96   40   41 1   
    97   40  105 1   
    98   40  106 1   
    99   41   42 1   
   100   41  107 1   
   101   41  108 1   
   102   42   43 1   
   103   42  109 1   
   104   42  110 1   
   105   43   44 1   
   106   43  111 1   
   107   43  112 1   
   108   44   45 1   
   109   44  113 1   
   110   44  114 1   
   111   45   46 1   
   112   45  115 1   
   113   45  116 1   
   114   46   47 1   
   115   46  117 1   
   116   46  118 1   
   117   47   48 1   
   118   47  119 1   
   119   47  120 1   
   120   48  121 1   
   121   48  122 1   
   122   48  123 1   
@<TRIPOS>SUBSTRUCTURE
     1 PX8         1 TEMP              0 ****  ****    0 ROOT
