@<TRIPOS>MOLECULE
PX8
  123   122     1     0     0
SMALL
bcc


@<TRIPOS>ATOM
      1 O1          3.7990   -3.1290    1.2050 o         1 PX8     -0.849000
      2 O2          3.5650   -4.6880    3.3080 o         1 PX8     -0.849000
      3 P1          3.0200   -3.7640    2.2960 p5        1 PX8      1.441800
      4 O3          2.3390   -2.4610    3.0170 oh        1 PX8     -0.789400
      5 O4          1.6680   -4.4520    1.6610 os        1 PX8     -0.586200
      6 C1          0.8720   -3.6840    0.8090 c3        1 PX8      0.196400
      7 C2          0.7360   -4.3780   -0.5570 c3        1 PX8      0.121100
      8 C3         -0.6850   -4.3650   -1.1210 c3        1 PX8      0.150400
      9 O5         -1.2140   -3.0520   -1.0630 os        1 PX8     -0.479900
     10 C4         -2.4920   -2.8820   -1.6480 c2        1 PX8      0.432100
     11 O6         -2.9890   -3.9500   -2.1040 o         1 PX8     -0.574000
     12 C5         -2.9570   -1.5800   -1.6100 c2        1 PX8     -0.601200
     13 C6         -4.2580   -1.2150   -2.1700 c3        1 PX8      0.076800
     14 C7         -5.1810   -0.6020   -1.1250 c3        1 PX8     -0.084400
     15 C8         -6.5120   -0.1940   -1.7220 c3        1 PX8     -0.078400
     16 C9         -7.4290    0.4130   -0.6810 c3        1 PX8     -0.079400
     17 C10        -8.7590    0.8190   -1.2800 c3        1 PX8     -0.078400
     18 C11        -9.6740    1.4240   -0.2360 c3        1 PX8     -0.079400
     19 C12       -11.0040    1.8290   -0.8360 c3        1 PX8     -0.078400
     20 C13       -11.9180    2.4340    0.2080 c3        1 PX8     -0.079400
     21 C14       -13.2470    2.8400   -0.3910 c3        1 PX8     -0.078400
     22 C15       -14.1610    3.4450    0.6530 c3        1 PX8     -0.079400
     23 C16       -15.4900    3.8500    0.0530 c3        1 PX8     -0.078400
     24 C17       -16.4040    4.4550    1.0980 c3        1 PX8     -0.079400
     25 C18       -17.7330    4.8610    0.4980 c3        1 PX8     -0.079400
     26 C19       -18.6460    5.4650    1.5430 c3        1 PX8     -0.079400
     27 C20       -19.9760    5.8720    0.9440 c3        1 PX8     -0.080400
     28 C21       -20.8890    6.4750    1.9810 c3        1 PX8     -0.092100
     29 O7          1.6080   -3.6470   -1.4470 os        1 PX8     -0.404900
     30 C22         2.4430   -4.3300   -2.2630 c         1 PX8      0.647100
     31 O8          2.3070   -5.5470   -2.4410 o         1 PX8     -0.592000
     32 C23         3.4810   -3.4370   -2.8860 c3        1 PX8     -0.121400
     33 C24         4.6580   -3.2970   -1.9420 c3        1 PX8     -0.112400
     34 C25         5.6170   -2.2280   -2.4160 c3        1 PX8     -0.060400
     35 C26         6.7500   -2.0590   -1.4260 c3        1 PX8     -0.087400
     36 C27         7.6650   -0.9210   -1.8200 c3        1 PX8     -0.074400
     37 C28         8.7980   -0.7600   -0.8290 c3        1 PX8     -0.080400
     38 C29         9.7100    0.3860   -1.2110 c3        1 PX8     -0.077400
     39 C30        10.8410    0.5440   -0.2180 c3        1 PX8     -0.080400
     40 C31        11.7520    1.6920   -0.5980 c3        1 PX8     -0.078400
     41 C32        12.8830    1.8490    0.3950 c3        1 PX8     -0.079400
     42 C33        13.7940    2.9970    0.0160 c3        1 PX8     -0.078400
     43 C34        14.9250    3.1540    1.0100 c3        1 PX8     -0.079400
     44 C35        15.8370    4.3010    0.6300 c3        1 PX8     -0.078400
     45 C36        16.9670    4.4570    1.6240 c3        1 PX8     -0.079400
     46 C37        17.8790    5.6040    1.2450 c3        1 PX8     -0.079400
     47 C38        19.0100    5.7620    2.2390 c3        1 PX8     -0.080400
     48 C39        19.9210    6.9030    1.8650 c3        1 PX8     -0.091100
     49 H2          1.3170   -2.6600    0.6740 h1        1 PX8      0.045200
     50 H3         -0.1570   -3.5950    1.2570 h1        1 PX8      0.045200
     51 H4          1.0790   -5.4470   -0.4810 h1        1 PX8      0.076700
     52 H5         -1.3260   -5.0550   -0.5100 h1        1 PX8      0.031200
     53 H6         -0.6740   -4.7260   -2.1840 h1        1 PX8      0.031200
     54 H7         -2.3470   -0.7960   -1.1610 ha        1 PX8      0.099000
     55 H8          2.4220   -1.6790    2.4840 ho        1 PX8      0.423000
     56 H9         -4.1400   -0.4610   -3.0020 hc        1 PX8     -0.008300
     57 H10        -4.7600   -2.1170   -2.6160 hc        1 PX8     -0.008300
     58 H11        -4.6840    0.2930   -0.6680 hc        1 PX8      0.028200
     59 H12        -5.3480   -1.3450   -0.3030 hc        1 PX8      0.028200
     60 H13        -7.0060   -1.0900   -2.1800 hc        1 PX8      0.025700
     61 H14        -6.3420    0.5470   -2.5480 hc        1 PX8      0.025700
     62 H15        -6.9340    1.3090   -0.2230 hc        1 PX8      0.034700
     63 H16        -7.5980   -0.3280    0.1440 hc        1 PX8      0.034700
     64 H17        -9.2530   -0.0790   -1.7380 hc        1 PX8      0.033200
     65 H18        -8.5890    1.5590   -2.1050 hc        1 PX8      0.033200
     66 H19        -9.1790    2.3200    0.2220 hc        1 PX8      0.037700
     67 H20        -9.8440    0.6830    0.5890 hc        1 PX8      0.037700
     68 H21       -11.4980    0.9320   -1.2940 hc        1 PX8      0.036200
     69 H22       -10.8340    2.5700   -1.6610 hc        1 PX8      0.036200
     70 H23       -11.4230    3.3310    0.6660 hc        1 PX8      0.038200
     71 H24       -12.0880    1.6930    1.0330 hc        1 PX8      0.038200
     72 H25       -13.7420    1.9430   -0.8500 hc        1 PX8      0.037200
     73 H26       -13.0770    3.5800   -1.2170 hc        1 PX8      0.037200
     74 H27       -13.6660    4.3410    1.1110 hc        1 PX8      0.038700
     75 H28       -14.3310    2.7040    1.4780 hc        1 PX8      0.038700
     76 H29       -15.9850    2.9540   -0.4050 hc        1 PX8      0.038200
     77 H30       -15.3200    4.5910   -0.7720 hc        1 PX8      0.038200
     78 H31       -15.9090    5.3510    1.5560 hc        1 PX8      0.039200
     79 H32       -16.5740    3.7140    1.9230 hc        1 PX8      0.039200
     80 H33       -18.2270    3.9640    0.0400 hc        1 PX8      0.038700
     81 H34       -17.5620    5.6020   -0.3270 hc        1 PX8      0.038700
     82 H35       -18.1510    6.3620    2.0010 hc        1 PX8      0.039200
     83 H36       -18.8170    4.7250    2.3680 hc        1 PX8      0.039200
     84 H37       -20.4680    4.9740    0.4850 hc        1 PX8      0.037700
     85 H38       -19.8030    6.6120    0.1180 hc        1 PX8      0.037700
     86 H39       -20.4250    7.3850    2.4330 hc        1 PX8      0.030367
     87 H40       -21.8630    6.7670    1.5190 hc        1 PX8      0.030367
     88 H41       -21.0920    5.7430    2.8000 hc        1 PX8      0.030367
     89 H42         3.8000   -3.8850   -3.8610 hc        1 PX8      0.052700
     90 H43         3.0240   -2.4320   -3.0830 hc        1 PX8      0.052700
     91 H44         4.2830   -3.0430   -0.9020 hc        1 PX8      0.097700
     92 H45         5.1940   -4.2790   -1.8630 hc        1 PX8      0.097700
     93 H46         6.0280   -2.4940   -3.4250 hc        1 PX8      0.019200
     94 H47         5.0690   -1.2550   -2.5270 hc        1 PX8      0.019200
     95 H48         6.3180   -1.8730   -0.4050 hc        1 PX8      0.059200
     96 H49         7.3380   -3.0120   -1.3640 hc        1 PX8      0.059200
     97 H50         8.0850   -1.1070   -2.8440 hc        1 PX8      0.028200
     98 H51         7.0760    0.0330   -1.8730 hc        1 PX8      0.028200
     99 H52         8.3750   -0.5820    0.1950 hc        1 PX8      0.043700
    100 H53         9.3910   -1.7120   -0.7790 hc        1 PX8      0.043700
    101 H54        10.1300    0.2080   -2.2360 hc        1 PX8      0.033700
    102 H55         9.1160    1.3370   -1.2590 hc        1 PX8      0.033700
    103 H56        10.4190    0.7220    0.8060 hc        1 PX8      0.040200
    104 H57        11.4340   -0.4070   -0.1700 hc        1 PX8      0.040200
    105 H58        12.1740    1.5140   -1.6230 hc        1 PX8      0.035700
    106 H59        11.1580    2.6430   -0.6460 hc        1 PX8      0.035700
    107 H60        12.4610    2.0270    1.4190 hc        1 PX8      0.039700
    108 H61        13.4760    0.8980    0.4440 hc        1 PX8      0.039700
    109 H62        14.2160    2.8190   -1.0090 hc        1 PX8      0.037200
    110 H63        13.2010    3.9480   -0.0320 hc        1 PX8      0.037200
    111 H64        14.5030    3.3320    2.0340 hc        1 PX8      0.039700
    112 H65        15.5180    2.2020    1.0580 hc        1 PX8      0.039700
    113 H66        16.2590    4.1230   -0.3940 hc        1 PX8      0.038200
    114 H67        15.2440    5.2520    0.5820 hc        1 PX8      0.038200
    115 H68        16.5450    4.6360    2.6480 hc        1 PX8      0.039200
    116 H69        17.5600    3.5060    1.6730 hc        1 PX8      0.039200
    117 H70        18.3010    5.4270    0.2210 hc        1 PX8      0.038200
    118 H71        17.2860    6.5560    1.1970 hc        1 PX8      0.038200
    119 H72        18.5850    5.9380    3.2630 hc        1 PX8      0.038200
    120 H73        19.6000    4.8090    2.2870 hc        1 PX8      0.038200
    121 H74        20.3720    6.7340    0.8580 hc        1 PX8      0.030033
    122 H75        19.3550    7.8660    1.8370 hc        1 PX8      0.030033
    123 H76        20.7470    7.0020    2.6110 hc        1 PX8      0.030033
@<TRIPOS>BOND
     1    1    3 1   
     2    2    3 1   
     3    3    4 1   
     4    3    5 1   
     5    4   55 1   
     6    5    6 1   
     7    6    7 1   
     8    6   49 1   
     9    6   50 1   
    10    7    8 1   
    11    7   29 1   
    12    7   51 1   
    13    8    9 1   
    14    8   52 1   
    15    8   53 1   
    16    9   10 1   
    17   10   11 1   
    18   10   12 2   
    19   12   13 1   
    20   12   54 1   
    21   13   14 1   
    22   13   56 1   
    23   13   57 1   
    24   14   15 1   
    25   14   58 1   
    26   14   59 1   
    27   15   16 1   
    28   15   60 1   
    29   15   61 1   
    30   16   17 1   
    31   16   62 1   
    32   16   63 1   
    33   17   18 1   
    34   17   64 1   
    35   17   65 1   
    36   18   19 1   
    37   18   66 1   
    38   18   67 1   
    39   19   20 1   
    40   19   68 1   
    41   19   69 1   
    42   20   21 1   
    43   20   70 1   
    44   20   71 1   
    45   21   22 1   
    46   21   72 1   
    47   21   73 1   
    48   22   23 1   
    49   22   74 1   
    50   22   75 1   
    51   23   24 1   
    52   23   76 1   
    53   23   77 1   
    54   24   25 1   
    55   24   78 1   
    56   24   79 1   
    57   25   26 1   
    58   25   80 1   
    59   25   81 1   
    60   26   27 1   
    61   26   82 1   
    62   26   83 1   
    63   27   28 1   
    64   27   84 1   
    65   27   85 1   
    66   28   86 1   
    67   28   87 1   
    68   28   88 1   
    69   29   30 1   
    70   30   31 2   
    71   30   32 1   
    72   32   33 1   
    73   32   89 1   
    74   32   90 1   
    75   33   34 1   
    76   33   91 1   
    77   33   92 1   
    78   34   35 1   
    79   34   93 1   
    80   34   94 1   
    81   35   36 1   
    82   35   95 1   
    83   35   96 1   
    84   36   37 1   
    85   36   97 1   
    86   36   98 1   
    87   37   38 1   
    88   37   99 1   
    89   37  100 1   
    90   38   39 1   
    91   38  101 1   
    92   38  102 1   
    93   39   40 1   
    94   39  103 1   
    95   39  104 1   
    96   40   41 1   
    97   40  105 1   
    98   40  106 1   
    99   41   42 1   
   100   41  107 1   
   101   41  108 1   
   102   42   43 1   
   103   42  109 1   
   104   42  110 1   
   105   43   44 1   
   106   43  111 1   
   107   43  112 1   
   108   44   45 1   
   109   44  113 1   
   110   44  114 1   
   111   45   46 1   
   112   45  115 1   
   113   45  116 1   
   114   46   47 1   
   115   46  117 1   
   116   46  118 1   
   117   47   48 1   
   118   47  119 1   
   119   47  120 1   
   120   48  121 1   
   121   48  122 1   
   122   48  123 1   
@<TRIPOS>SUBSTRUCTURE
     1 PX8         1 TEMP              0 ****  ****    0 ROOT
