@<TRIPOS>MOLECULE
PX8
  123   122     1     0     0
SMALL
bcc


@<TRIPOS>ATOM
      1 O1          3.9160   -2.3770  -10.1550 o         1 PX8     -0.927167
      2 O2          6.3100   -1.8960  -10.4810 o         1 PX8     -0.927167
      3 P1          5.2280   -2.1330   -9.4550 p5        1 PX8      1.323900
      4 O3          5.5830   -3.3370   -8.6200 o         1 PX8     -0.927167
      5 O4          5.0980   -0.8560   -8.5160 os        1 PX8     -0.558200
      6 C1          4.0110   -0.7870   -7.6200 c3        1 PX8      0.242400
      7 C2          4.0580    0.5220   -6.8730 c3        1 PX8      0.105100
      8 C3          2.7070    1.2150   -6.9770 c3        1 PX8      0.110400
      9 O5          1.6920    0.3710   -6.4210 os        1 PX8     -0.449900
     10 C4          0.3860    0.6430   -6.9090 c         1 PX8      0.678100
     11 O6          0.1720    0.6320   -8.0980 o         1 PX8     -0.585000
     12 C5         -0.7300    1.0200   -5.9370 c3        1 PX8     -0.115400
     13 C6         -2.0390    0.3660   -6.3840 c3        1 PX8     -0.116400
     14 C7         -3.1210    0.6180   -5.3330 c3        1 PX8     -0.040400
     15 C8         -4.0880   -0.5910   -5.2860 c3        1 PX8     -0.127400
     16 C9         -5.1430   -0.3640   -4.1860 c3        1 PX8     -0.059400
     17 C10        -5.7230   -1.7230   -3.7410 c3        1 PX8     -0.086400
     18 C11        -6.4130   -1.5620   -2.3700 c3        1 PX8     -0.075400
     19 C12        -6.9180   -2.9440   -1.8780 c3        1 PX8     -0.071400
     20 C13        -6.6660   -3.0750   -0.3450 c3        1 PX8     -0.086400
     21 C14        -7.4330   -4.3100    0.2050 c3        1 PX8     -0.073400
     22 C15        -6.4860   -5.1530    1.0820 c3        1 PX8     -0.083400
     23 C16        -7.2180   -5.5750    2.3650 c3        1 PX8     -0.075400
     24 C17        -6.5210   -6.8020    2.9760 c3        1 PX8     -0.081400
     25 C18        -6.5080   -6.6740    4.5020 c3        1 PX8     -0.077400
     26 C19        -5.8860   -7.9420    5.1170 c3        1 PX8     -0.080400
     27 C20        -5.5380   -7.6800    6.5900 c3        1 PX8     -0.079400
     28 C21        -4.7400   -8.8630    7.1450 c3        1 PX8     -0.091100
     29 O7          4.3620    0.2770   -5.5070 os        1 PX8     -0.421900
     30 C22         5.7470    0.3530   -5.2010 c         1 PX8      0.628100
     31 O8          6.5570   -0.2490   -5.8870 o         1 PX8     -0.586000
     32 C23         6.2320    1.2410   -4.0360 c3        1 PX8     -0.133400
     33 C24         6.2680    0.4110   -2.7350 c3        1 PX8     -0.080400
     34 C25         7.4640    0.8610   -1.8710 c3        1 PX8     -0.072400
     35 C26         6.9520    1.6490   -0.6630 c3        1 PX8     -0.085400
     36 C27         7.3800    0.9350    0.6340 c3        1 PX8     -0.076400
     37 C28         7.3960    1.9500    1.8000 c3        1 PX8     -0.075400
     38 C29         6.4570    1.4560    2.9250 c3        1 PX8     -0.082400
     39 C30         6.2900    2.5690    3.9840 c3        1 PX8     -0.076400
     40 C31         5.0420    2.2870    4.8360 c3        1 PX8     -0.081400
     41 C32         4.5870    3.5890    5.5250 c3        1 PX8     -0.077400
     42 C33         3.0560    3.5890    5.6680 c3        1 PX8     -0.080400
     43 C34         2.5860    4.9690    6.1830 c3        1 PX8     -0.075400
     44 C35         1.4260    5.4800    5.3000 c3        1 PX8     -0.082400
     45 C36         0.6920    6.6070    6.0250 c3        1 PX8     -0.076400
     46 C37         0.0530    7.5410    4.9980 c3        1 PX8     -0.081400
     47 C38        -1.1800    8.1810    5.5980 c3        1 PX8     -0.078400
     48 C39        -1.6220    9.3360    4.7290 c3        1 PX8     -0.093100
     49 H2          4.0650   -1.5270   -6.9840 h1        1 PX8      0.008700
     50 H3          3.1720   -0.8470   -8.1210 h1        1 PX8      0.008700
     51 H4          4.7420    1.0890   -7.2590 h1        1 PX8      0.076700
     52 H5          2.7360    2.0610   -6.4820 h1        1 PX8      0.088200
     53 H6          2.5020    1.3950   -7.9230 h1        1 PX8      0.088200
     54 H7         -0.5020    0.7120   -5.0480 hc        1 PX8      0.034700
     55 H8         -0.8380    1.9930   -5.9260 hc        1 PX8      0.034700
     56 H9         -1.9050   -0.5890   -6.4880 hc        1 PX8      0.116700
     57 H10        -2.3190    0.7490   -7.2340 hc        1 PX8      0.116700
     58 H11        -2.7040    0.7350   -4.4570 hc        1 PX8     -0.004800
     59 H12        -3.6220    1.4270   -5.5670 hc        1 PX8     -0.004800
     60 H13        -3.5800   -1.4100   -5.0890 hc        1 PX8      0.101700
     61 H14        -4.5340   -0.6850   -6.1520 hc        1 PX8      0.101700
     62 H15        -4.7250    0.0790   -3.4200 hc        1 PX8      0.009200
     63 H16        -5.8630    0.2000   -4.5360 hc        1 PX8      0.009200
     64 H17        -6.3760   -2.0290   -4.4000 hc        1 PX8      0.054700
     65 H18        -5.0000   -2.3790   -3.6680 hc        1 PX8      0.054700
     66 H19        -5.7730   -1.2000   -1.7220 hc        1 PX8      0.024700
     67 H20        -7.1720   -0.9500   -2.4560 hc        1 PX8      0.024700
     68 H21        -7.8840   -3.0250   -2.0620 hc        1 PX8      0.022700
     69 H22        -6.4340   -3.6560   -2.3510 hc        1 PX8      0.022700
     70 H23        -6.9830   -2.2670    0.1080 hc        1 PX8      0.056200
     71 H24        -5.7090   -3.1860   -0.1800 hc        1 PX8      0.056200
     72 H25        -7.7580   -4.8560   -0.5460 hc        1 PX8      0.027700
     73 H26        -8.1970   -4.0080    0.7450 hc        1 PX8      0.027700
     74 H27        -6.2040   -5.9570    0.5840 hc        1 PX8      0.049700
     75 H28        -5.7040   -4.6240    1.3140 hc        1 PX8      0.049700
     76 H29        -8.1530   -5.8020    2.1500 hc        1 PX8      0.031200
     77 H30        -7.2000   -4.8380    3.0060 hc        1 PX8      0.031200
     78 H31        -5.6020   -6.8540    2.6450 hc        1 PX8      0.044700
     79 H32        -7.0070   -7.6130    2.7220 hc        1 PX8      0.044700
     80 H33        -7.4230   -6.5690    4.8280 hc        1 PX8      0.033700
     81 H34        -5.9770   -5.8920    4.7590 hc        1 PX8      0.033700
     82 H35        -5.0700   -8.1780    4.6250 hc        1 PX8      0.042200
     83 H36        -6.5300   -8.6830    5.0590 hc        1 PX8      0.042200
     84 H37        -5.0000   -6.8630    6.6590 hc        1 PX8      0.034700
     85 H38        -6.3690   -7.5720    7.1100 hc        1 PX8      0.034700
     86 H39        -4.1670   -8.5560    7.8800 hc        1 PX8      0.029367
     87 H40        -4.1840   -9.2450    6.4340 hc        1 PX8      0.029367
     88 H41        -5.3590   -9.5470    7.4780 hc        1 PX8      0.029367
     89 H42         7.1360    1.5800   -4.2350 hc        1 PX8      0.055700
     90 H43         5.6180    1.9960   -3.9230 hc        1 PX8      0.055700
     91 H44         5.4360    0.5480   -2.2380 hc        1 PX8      0.063200
     92 H45         6.3650   -0.5430   -2.9570 hc        1 PX8      0.063200
     93 H46         8.0560    1.4310   -2.4050 hc        1 PX8      0.026200
     94 H47         7.9590    0.0730   -1.5620 hc        1 PX8      0.026200
     95 H48         7.3300    2.5530   -0.6780 hc        1 PX8      0.052700
     96 H49         5.9810    1.7020   -0.6980 hc        1 PX8      0.052700
     97 H50         6.7490    0.2200    0.8350 hc        1 PX8      0.029700
     98 H51         8.2830    0.5540    0.5170 hc        1 PX8      0.029700
     99 H52         7.0890    2.8200    1.4780 hc        1 PX8      0.033200
    100 H53         8.3070    2.0330    2.1470 hc        1 PX8      0.033200
    101 H54         5.5870    1.2340    2.5480 hc        1 PX8      0.046700
    102 H55         6.8450    0.6550    3.3490 hc        1 PX8      0.046700
    103 H56         7.0750    2.5910    4.5570 hc        1 PX8      0.034700
    104 H57         6.1890    3.4350    3.5350 hc        1 PX8      0.034700
    105 H58         4.3240    1.9530    4.2620 hc        1 PX8      0.044700
    106 H59         5.2570    1.6140    5.5160 hc        1 PX8      0.044700
    107 H60         4.8650    4.3610    4.9830 hc        1 PX8      0.036200
    108 H61         4.9990    3.6500    6.4150 hc        1 PX8      0.036200
    109 H62         2.6470    3.4090    4.7950 hc        1 PX8      0.042700
    110 H63         2.7880    2.8940    6.3050 hc        1 PX8      0.042700
    111 H64         3.3260    5.5990    6.1430 hc        1 PX8      0.031700
    112 H65         2.2790    4.8850    7.1090 hc        1 PX8      0.031700
    113 H66         0.8040    4.7470    5.1230 hc        1 PX8      0.047200
    114 H67         1.7820    5.8140    4.4580 hc        1 PX8      0.047200
    115 H68         1.3270    7.1110    6.5740 hc        1 PX8      0.032700
    116 H69        -0.0080    6.2260    6.6000 hc        1 PX8      0.032700
    117 H70        -0.2000    7.0280    4.2010 hc        1 PX8      0.045200
    118 H71         0.6920    8.2370    4.7480 hc        1 PX8      0.045200
    119 H72        -0.9730    8.5080    6.4930 hc        1 PX8      0.032700
    120 H73        -1.9000    7.5170    5.6510 hc        1 PX8      0.032700
    121 H74        -1.0480   10.1170    4.9040 hc        1 PX8      0.031700
    122 H75        -2.5460    9.5600    4.9330 hc        1 PX8      0.031700
    123 H76        -1.5480    9.0790    3.7790 hc        1 PX8      0.031700
@<TRIPOS>BOND
     1    1    3 1   
     2    2    3 1   
     3    3    4 1   
     4    3    5 1   
     5    5    6 1   
     6    6    7 1   
     7    6   49 1   
     8    6   50 1   
     9    7    8 1   
    10    7   29 1   
    11    7   51 1   
    12    8    9 1   
    13    8   52 1   
    14    8   53 1   
    15    9   10 1   
    16   10   11 2   
    17   10   12 1   
    18   12   13 1   
    19   12   54 1   
    20   12   55 1   
    21   13   14 1   
    22   13   56 1   
    23   13   57 1   
    24   14   15 1   
    25   14   58 1   
    26   14   59 1   
    27   15   16 1   
    28   15   60 1   
    29   15   61 1   
    30   16   17 1   
    31   16   62 1   
    32   16   63 1   
    33   17   18 1   
    34   17   64 1   
    35   17   65 1   
    36   18   19 1   
    37   18   66 1   
    38   18   67 1   
    39   19   20 1   
    40   19   68 1   
    41   19   69 1   
    42   20   21 1   
    43   20   70 1   
    44   20   71 1   
    45   21   22 1   
    46   21   72 1   
    47   21   73 1   
    48   22   23 1   
    49   22   74 1   
    50   22   75 1   
    51   23   24 1   
    52   23   76 1   
    53   23   77 1   
    54   24   25 1   
    55   24   78 1   
    56   24   79 1   
    57   25   26 1   
    58   25   80 1   
    59   25   81 1   
    60   26   27 1   
    61   26   82 1   
    62   26   83 1   
    63   27   28 1   
    64   27   84 1   
    65   27   85 1   
    66   28   86 1   
    67   28   87 1   
    68   28   88 1   
    69   29   30 1   
    70   30   31 2   
    71   30   32 1   
    72   32   33 1   
    73   32   89 1   
    74   32   90 1   
    75   33   34 1   
    76   33   91 1   
    77   33   92 1   
    78   34   35 1   
    79   34   93 1   
    80   34   94 1   
    81   35   36 1   
    82   35   95 1   
    83   35   96 1   
    84   36   37 1   
    85   36   97 1   
    86   36   98 1   
    87   37   38 1   
    88   37   99 1   
    89   37  100 1   
    90   38   39 1   
    91   38  101 1   
    92   38  102 1   
    93   39   40 1   
    94   39  103 1   
    95   39  104 1   
    96   40   41 1   
    97   40  105 1   
    98   40  106 1   
    99   41   42 1   
   100   41  107 1   
   101   41  108 1   
   102   42   43 1   
   103   42  109 1   
   104   42  110 1   
   105   43   44 1   
   106   43  111 1   
   107   43  112 1   
   108   44   45 1   
   109   44  113 1   
   110   44  114 1   
   111   45   46 1   
   112   45  115 1   
   113   45  116 1   
   114   46   47 1   
   115   46  117 1   
   116   46  118 1   
   117   47   48 1   
   118   47  119 1   
   119   47  120 1   
   120   48  121 1   
   121   48  122 1   
   122   48  123 1   
@<TRIPOS>SUBSTRUCTURE
     1 PX8         1 TEMP              0 ****  ****    0 ROOT
