@<TRIPOS>MOLECULE
PX8
  123   122     1     0     0
SMALL
bcc


@<TRIPOS>ATOM
      1 O1          2.4020   -1.5510    1.3150 o         1 PX8     -0.915167
      2 O2          3.9750    0.4470    1.3280 o         1 PX8     -0.915167
      3 P1          3.7270   -0.9710    0.9140 p5        1 PX8      1.323900
      4 O3          4.9140   -1.9090    0.9670 o         1 PX8     -0.915167
      5 O4          3.5850   -0.8380   -0.8220 os        1 PX8     -0.564200
      6 C1          2.3570   -0.4640   -1.2760 c3        1 PX8      0.234400
      7 C2          1.9100   -1.2570   -2.5340 c3        1 PX8      0.091100
      8 C3          3.0050   -1.4590   -3.5800 c3        1 PX8      0.144400
      9 O5          3.8660   -2.5270   -3.1970 os        1 PX8     -0.457900
     10 C4          5.1700   -2.1940   -2.8710 c         1 PX8      0.697100
     11 O6          5.7160   -1.3520   -3.5960 o         1 PX8     -0.613000
     12 C5          5.6850   -2.9510   -1.7110 c3        1 PX8     -0.218400
     13 C6          7.1870   -2.9050   -1.5750 c3        1 PX8     -0.037400
     14 C7          7.5760   -3.2390   -0.1490 c3        1 PX8     -0.115400
     15 C8          9.0360   -2.9400    0.1130 c3        1 PX8     -0.064400
     16 C9          9.3990   -3.2410    1.5520 c3        1 PX8     -0.082400
     17 C10        10.8450   -2.9010    1.8430 c3        1 PX8     -0.076400
     18 C11        11.2010   -3.1960    3.2840 c3        1 PX8     -0.080400
     19 C12        12.6440   -2.8490    3.5810 c3        1 PX8     -0.077400
     20 C13        12.9970   -3.1440    5.0230 c3        1 PX8     -0.079400
     21 C14        14.4400   -2.7950    5.3210 c3        1 PX8     -0.078400
     22 C15        14.7910   -3.0890    6.7630 c3        1 PX8     -0.079400
     23 C16        16.2340   -2.7390    7.0610 c3        1 PX8     -0.078400
     24 C17        16.5850   -3.0340    8.5040 c3        1 PX8     -0.079400
     25 C18        18.0270   -2.6840    8.8020 c3        1 PX8     -0.078400
     26 C19        18.3780   -2.9780   10.2450 c3        1 PX8     -0.079400
     27 C20        19.8200   -2.6290   10.5440 c3        1 PX8     -0.080400
     28 C21        20.1740   -2.9200   11.9800 c3        1 PX8     -0.091100
     29 O7          1.4360   -2.5280   -2.0520 os        1 PX8     -0.348900
     30 C22         0.5630   -3.2290   -2.8000 c         1 PX8      0.630100
     31 O8          0.1240   -2.7830   -3.8720 o         1 PX8     -0.624000
     32 C23         0.2240   -4.5500   -2.1650 c3        1 PX8     -0.139400
     33 C24        -1.2140   -4.9340   -2.4300 c3        1 PX8     -0.074400
     34 C25        -1.5110   -6.3180   -1.8930 c3        1 PX8     -0.079400
     35 C26        -2.9560   -6.7010   -2.1330 c3        1 PX8     -0.077400
     36 C27        -3.2540   -8.0860   -1.6000 c3        1 PX8     -0.079400
     37 C28        -4.7000   -8.4680   -1.8360 c3        1 PX8     -0.078400
     38 C29        -4.9980   -9.8530   -1.3040 c3        1 PX8     -0.079400
     39 C30        -6.4440  -10.2340   -1.5390 c3        1 PX8     -0.078400
     40 C31        -6.7410  -11.6200   -1.0070 c3        1 PX8     -0.079400
     41 C32        -8.1880  -12.0000   -1.2410 c3        1 PX8     -0.078400
     42 C33        -8.4850  -13.3860   -0.7090 c3        1 PX8     -0.079400
     43 C34        -9.9310  -13.7670   -0.9430 c3        1 PX8     -0.078400
     44 C35       -10.2280  -15.1520   -0.4110 c3        1 PX8     -0.079400
     45 C36       -11.6740  -15.5330   -0.6450 c3        1 PX8     -0.079400
     46 C37       -11.9720  -16.9180   -0.1130 c3        1 PX8     -0.079400
     47 C38       -13.4180  -17.3000   -0.3460 c3        1 PX8     -0.080400
     48 C39       -13.7180  -18.6790    0.1820 c3        1 PX8     -0.092100
     49 H2          2.3670    0.6120   -1.6370 h1        1 PX8      0.012700
     50 H3          1.5710   -0.5970   -0.4770 h1        1 PX8      0.012700
     51 H4          1.0530   -0.7180   -3.0280 h1        1 PX8      0.023700
     52 H5          2.5500   -1.7840   -4.5560 h1        1 PX8      0.042700
     53 H6          3.5720   -0.5010   -3.7090 h1        1 PX8      0.042700
     54 H7          5.3010   -4.0000   -1.7250 hc        1 PX8      0.152700
     55 H8          5.1960   -2.4390   -0.7690 hc        1 PX8      0.152700
     56 H9          7.6760   -3.6190   -2.2900 hc        1 PX8      0.013200
     57 H10         7.5480   -1.8750   -1.8350 hc        1 PX8      0.013200
     58 H11         6.9110   -2.6400    0.5520 hc        1 PX8      0.090200
     59 H12         7.3720   -4.3220    0.0520 hc        1 PX8      0.090200
     60 H13         9.2400   -1.8590   -0.1050 hc        1 PX8      0.016700
     61 H14         9.6860   -3.5450   -0.5740 hc        1 PX8      0.016700
     62 H15         8.7240   -2.6520    2.2290 hc        1 PX8      0.048700
     63 H16         9.2170   -4.3260    1.7670 hc        1 PX8      0.048700
     64 H17        11.0230   -1.8140    1.6280 hc        1 PX8      0.028700
     65 H18        11.5170   -3.4870    1.1620 hc        1 PX8      0.028700
     66 H19        10.5250   -2.6110    3.9620 hc        1 PX8      0.040700
     67 H20        11.0230   -4.2830    3.5000 hc        1 PX8      0.040700
     68 H21        13.3190   -3.4340    2.9010 hc        1 PX8      0.033700
     69 H22        12.8200   -1.7620    3.3650 hc        1 PX8      0.033700
     70 H23        12.8210   -4.2310    5.2390 hc        1 PX8      0.039700
     71 H24        12.3210   -2.5590    5.7010 hc        1 PX8      0.039700
     72 H25        14.6150   -1.7080    5.1050 hc        1 PX8      0.036200
     73 H26        15.1160   -3.3790    4.6420 hc        1 PX8      0.036200
     74 H27        14.6150   -4.1760    6.9790 hc        1 PX8      0.039700
     75 H28        14.1150   -2.5050    7.4410 hc        1 PX8      0.039700
     76 H29        16.9100   -3.3230    6.3830 hc        1 PX8      0.037200
     77 H30        16.4090   -1.6520    6.8460 hc        1 PX8      0.037200
     78 H31        16.4090   -4.1200    8.7190 hc        1 PX8      0.039200
     79 H32        15.9080   -2.4490    9.1810 hc        1 PX8      0.039200
     80 H33        18.7030   -3.2680    8.1240 hc        1 PX8      0.037700
     81 H34        18.2020   -1.5970    8.5860 hc        1 PX8      0.037700
     82 H35        18.2020   -4.0650   10.4600 hc        1 PX8      0.039200
     83 H36        17.7010   -2.3930   10.9230 hc        1 PX8      0.039200
     84 H37        20.4950   -3.2130    9.8640 hc        1 PX8      0.037200
     85 H38        19.9940   -1.5420   10.3260 hc        1 PX8      0.037200
     86 H39        21.2400   -2.6550   12.1790 hc        1 PX8      0.029700
     87 H40        19.5280   -2.3280   12.6720 hc        1 PX8      0.029700
     88 H41        20.0300   -4.0030   12.2090 hc        1 PX8      0.029700
     89 H42         0.4250   -4.4840   -1.0610 hc        1 PX8      0.083700
     90 H43         0.9240   -5.3150   -2.5930 hc        1 PX8      0.083700
     91 H44        -1.4150   -4.8970   -3.5330 hc        1 PX8      0.047200
     92 H45        -1.8950   -4.1860   -1.9450 hc        1 PX8      0.047200
     93 H46        -1.2900   -6.3490   -0.7940 hc        1 PX8      0.040700
     94 H47        -0.8370   -7.0670   -2.3870 hc        1 PX8      0.040700
     95 H48        -3.1780   -6.6640   -3.2320 hc        1 PX8      0.036700
     96 H49        -3.6290   -5.9530   -1.6350 hc        1 PX8      0.036700
     97 H50        -2.5820   -8.8330   -2.0980 hc        1 PX8      0.039200
     98 H51        -3.0300   -8.1210   -0.5010 hc        1 PX8      0.039200
     99 H52        -4.9240   -8.4310   -2.9350 hc        1 PX8      0.036700
    100 H53        -5.3720   -7.7200   -1.3370 hc        1 PX8      0.036700
    101 H54        -4.7730   -9.8890   -0.2050 hc        1 PX8      0.039200
    102 H55        -4.3260  -10.6000   -1.8030 hc        1 PX8      0.039200
    103 H56        -7.1150   -9.4870   -1.0390 hc        1 PX8      0.037700
    104 H57        -6.6690  -10.1970   -2.6370 hc        1 PX8      0.037700
    105 H58        -6.5160  -11.6560    0.0920 hc        1 PX8      0.038700
    106 H59        -6.0700  -12.3670   -1.5060 hc        1 PX8      0.038700
    107 H60        -8.4130  -11.9630   -2.3390 hc        1 PX8      0.038200
    108 H61        -8.8580  -11.2530   -0.7410 hc        1 PX8      0.038200
    109 H62        -7.8140  -14.1330   -1.2090 hc        1 PX8      0.039200
    110 H63        -8.2590  -13.4230    0.3890 hc        1 PX8      0.039200
    111 H64       -10.1570  -13.7290   -2.0410 hc        1 PX8      0.038200
    112 H65       -10.6020  -13.0200   -0.4420 hc        1 PX8      0.038200
    113 H66        -9.5570  -15.8990   -0.9120 hc        1 PX8      0.039200
    114 H67       -10.0020  -15.1900    0.6870 hc        1 PX8      0.039200
    115 H68       -12.3450  -14.7860   -0.1440 hc        1 PX8      0.038700
    116 H69       -11.9000  -15.4950   -1.7430 hc        1 PX8      0.038700
    117 H70       -11.7460  -16.9560    0.9850 hc        1 PX8      0.039200
    118 H71       -11.3010  -17.6650   -0.6140 hc        1 PX8      0.039200
    119 H72       -14.0870  -16.5510    0.1540 hc        1 PX8      0.037700
    120 H73       -13.6420  -17.2600   -1.4450 hc        1 PX8      0.037700
    121 H74       -13.5240  -18.7310    1.2800 hc        1 PX8      0.030700
    122 H75       -13.0780  -19.4430   -0.3230 hc        1 PX8      0.030700
    123 H76       -14.7890  -18.9410   -0.0000 hc        1 PX8      0.030700
@<TRIPOS>BOND
     1    1    3 1   
     2    2    3 1   
     3    3    4 1   
     4    3    5 1   
     5    5    6 1   
     6    6    7 1   
     7    6   49 1   
     8    6   50 1   
     9    7    8 1   
    10    7   29 1   
    11    7   51 1   
    12    8    9 1   
    13    8   52 1   
    14    8   53 1   
    15    9   10 1   
    16   10   11 2   
    17   10   12 1   
    18   12   13 1   
    19   12   54 1   
    20   12   55 1   
    21   13   14 1   
    22   13   56 1   
    23   13   57 1   
    24   14   15 1   
    25   14   58 1   
    26   14   59 1   
    27   15   16 1   
    28   15   60 1   
    29   15   61 1   
    30   16   17 1   
    31   16   62 1   
    32   16   63 1   
    33   17   18 1   
    34   17   64 1   
    35   17   65 1   
    36   18   19 1   
    37   18   66 1   
    38   18   67 1   
    39   19   20 1   
    40   19   68 1   
    41   19   69 1   
    42   20   21 1   
    43   20   70 1   
    44   20   71 1   
    45   21   22 1   
    46   21   72 1   
    47   21   73 1   
    48   22   23 1   
    49   22   74 1   
    50   22   75 1   
    51   23   24 1   
    52   23   76 1   
    53   23   77 1   
    54   24   25 1   
    55   24   78 1   
    56   24   79 1   
    57   25   26 1   
    58   25   80 1   
    59   25   81 1   
    60   26   27 1   
    61   26   82 1   
    62   26   83 1   
    63   27   28 1   
    64   27   84 1   
    65   27   85 1   
    66   28   86 1   
    67   28   87 1   
    68   28   88 1   
    69   29   30 1   
    70   30   31 2   
    71   30   32 1   
    72   32   33 1   
    73   32   89 1   
    74   32   90 1   
    75   33   34 1   
    76   33   91 1   
    77   33   92 1   
    78   34   35 1   
    79   34   93 1   
    80   34   94 1   
    81   35   36 1   
    82   35   95 1   
    83   35   96 1   
    84   36   37 1   
    85   36   97 1   
    86   36   98 1   
    87   37   38 1   
    88   37   99 1   
    89   37  100 1   
    90   38   39 1   
    91   38  101 1   
    92   38  102 1   
    93   39   40 1   
    94   39  103 1   
    95   39  104 1   
    96   40   41 1   
    97   40  105 1   
    98   40  106 1   
    99   41   42 1   
   100   41  107 1   
   101   41  108 1   
   102   42   43 1   
   103   42  109 1   
   104   42  110 1   
   105   43   44 1   
   106   43  111 1   
   107   43  112 1   
   108   44   45 1   
   109   44  113 1   
   110   44  114 1   
   111   45   46 1   
   112   45  115 1   
   113   45  116 1   
   114   46   47 1   
   115   46  117 1   
   116   46  118 1   
   117   47   48 1   
   118   47  119 1   
   119   47  120 1   
   120   48  121 1   
   121   48  122 1   
   122   48  123 1   
@<TRIPOS>SUBSTRUCTURE
     1 PX8         1 TEMP              0 ****  ****    0 ROOT
