@<TRIPOS>MOLECULE
PX9
   48    49     1     0     0
SMALL
bcc


@<TRIPOS>ATOM
      1 C1         -0.0810   -0.1120    0.0820 c3        1 PX9     -0.092100
      2 C2          1.4210   -0.0020    0.0270 c3        1 PX9     -0.079400
      3 C3          2.0290   -0.0970    1.4090 c3        1 PX9     -0.086400
      4 C4          3.5420    0.0170    1.3280 c3        1 PX9      0.129400
      5 O5          4.0130   -0.0830    2.6770 os        1 PX9     -0.331900
      6 C6          5.3830   -0.0040    2.8430 ca        1 PX9      0.095100
      7 C9          6.3060    0.1640    1.8020 ca        1 PX9     -0.148000
      8 C10         7.6650    0.2290    2.0910 ca        1 PX9     -0.146500
      9 C11         8.0990    0.1260    3.4240 ca        1 PX9      0.092100
     10 C8          7.1770   -0.0410    4.4650 ca        1 PX9     -0.146500
     11 C7          5.8190   -0.1070    4.1760 ca        1 PX9     -0.148000
     12 O12         9.4700    0.2100    3.5900 os        1 PX9     -0.330900
     13 C13         9.9440    0.0680    4.9340 c3        1 PX9      0.129400
     14 C14        11.4580    0.1600    4.8450 c3        1 PX9     -0.088400
     15 C15        12.0400    0.1430    6.2570 c3        1 PX9      0.171800
     16 N16        13.4870   -0.0170    6.2930 n3        1 PX9     -0.723600
     17 C18        13.9660   -0.2010    7.6590 c3        1 PX9      0.130800
     18 C19        15.4930   -0.2960    7.7390 c3        1 PX9      0.126400
     19 O20        16.1220    0.8070    7.0990 os        1 PX9     -0.415600
     20 C21        15.7190    0.9370    5.7400 c3        1 PX9      0.126400
     21 C17        14.1970    1.0540    5.6060 c3        1 PX9      0.130800
     22 H1         -0.5120   -0.0410   -0.9450 hc        1 PX9      0.035367
     23 H2         -0.5140    0.7070    0.7050 hc        1 PX9      0.035367
     24 H3         -0.3890   -1.0900    0.5270 hc        1 PX9      0.035367
     25 H4          1.7100    0.9750   -0.4440 hc        1 PX9      0.039700
     26 H5          1.8350   -0.8180   -0.6220 hc        1 PX9      0.039700
     27 H6          1.6290    0.7190    2.0660 hc        1 PX9      0.057700
     28 H7          1.7540   -1.0730    1.8880 hc        1 PX9      0.057700
     29 H8          3.8490    1.0050    0.8940 h1        1 PX9      0.037700
     30 H9          3.9770   -0.8150    0.7150 h1        1 PX9      0.037700
     31 H10         5.9750    0.2450    0.7570 ha        1 PX9      0.144000
     32 H11         8.4050    0.3600    1.2890 ha        1 PX9      0.143500
     33 H12         7.5080   -0.1220    5.5100 ha        1 PX9      0.143500
     34 H13         5.0780   -0.2390    4.9770 ha        1 PX9      0.144000
     35 H14         9.5240    0.8930    5.5680 h1        1 PX9      0.038200
     36 H15         9.6210   -0.9240    5.3450 h1        1 PX9      0.038200
     37 H16        11.7400    1.1040    4.3120 hc        1 PX9      0.065200
     38 H17        11.8500   -0.6990    4.2410 hc        1 PX9      0.065200
     39 H18        11.7110    1.0860    6.7880 h1        1 PX9      0.032700
     40 H19        11.5980   -0.7310    6.8160 h1        1 PX9      0.032700
     41 H21        13.6260    0.6370    8.3350 h1        1 PX9      0.041200
     42 H22        13.5280   -1.1620    8.0500 h1        1 PX9      0.041200
     43 H23        15.8550   -1.2540    7.2790 h1        1 PX9      0.054200
     44 H24        15.8290   -0.2290    8.8070 h1        1 PX9      0.054200
     45 H25        16.2110    1.8830    5.3920 h1        1 PX9      0.054200
     46 H26        16.1030    0.0630    5.1510 h1        1 PX9      0.054200
     47 H27        13.8820    2.0710    5.9840 h1        1 PX9      0.041200
     48 H28        13.9340    0.9920    4.5130 h1        1 PX9      0.041200
@<TRIPOS>BOND
     1    1    2 1   
     2    1   22 1   
     3    1   23 1   
     4    1   24 1   
     5    2    3 1   
     6    2   25 1   
     7    2   26 1   
     8    3    4 1   
     9    3   27 1   
    10    3   28 1   
    11    4    5 1   
    12    4   29 1   
    13    4   30 1   
    14    5    6 1   
    15    6    7 ar  
    16    6   11 ar  
    17    7    8 ar  
    18    7   31 1   
    19    8    9 ar  
    20    8   32 1   
    21    9   10 ar  
    22    9   12 1   
    23   10   11 ar  
    24   10   33 1   
    25   11   34 1   
    26   12   13 1   
    27   13   14 1   
    28   13   35 1   
    29   13   36 1   
    30   14   15 1   
    31   14   37 1   
    32   14   38 1   
    33   15   16 1   
    34   15   39 1   
    35   15   40 1   
    36   16   17 1   
    37   16   21 1   
    38   17   18 1   
    39   17   41 1   
    40   17   42 1   
    41   18   19 1   
    42   18   43 1   
    43   18   44 1   
    44   19   20 1   
    45   20   21 1   
    46   20   45 1   
    47   20   46 1   
    48   21   47 1   
    49   21   48 1   
@<TRIPOS>SUBSTRUCTURE
     1 PX9         1 TEMP              0 ****  ****    0 ROOT
