@<TRIPOS>MOLECULE
PX9
   48    49     1     0     0
SMALL
bcc


@<TRIPOS>ATOM
      1 C1         -0.0810   -0.1240    0.0820 c3        1 PX9     -0.092100
      2 C2          1.4210   -0.0130    0.0260 c3        1 PX9     -0.079400
      3 C3          2.0290   -0.0990    1.4090 c3        1 PX9     -0.086400
      4 C4          3.5420    0.0150    1.3280 c3        1 PX9      0.129400
      5 O5          4.0120   -0.0760    2.6780 os        1 PX9     -0.331900
      6 C6          5.3830    0.0040    2.8440 ca        1 PX9      0.095100
      7 C9          6.3060    0.1660    1.8020 ca        1 PX9     -0.148000
      8 C10         7.6640    0.2330    2.0910 ca        1 PX9     -0.146500
      9 C11         8.0980    0.1380    3.4250 ca        1 PX9      0.092100
     10 C8          7.1760   -0.0230    4.4660 ca        1 PX9     -0.146500
     11 C7          5.8170   -0.0910    4.1770 ca        1 PX9     -0.148000
     12 O12         9.4690    0.2250    3.5910 os        1 PX9     -0.330900
     13 C13         9.9430    0.0810    4.9350 c3        1 PX9      0.129400
     14 C14        11.4570    0.1670    4.8460 c3        1 PX9     -0.088400
     15 C15        12.0400    0.1470    6.2570 c3        1 PX9      0.172800
     16 N16        13.4860   -0.0180    6.2930 n3        1 PX9     -0.723600
     17 C18        13.9650   -0.2070    7.6580 c3        1 PX9      0.130800
     18 C19        15.4920   -0.3080    7.7360 c3        1 PX9      0.126400
     19 O20        16.1250    0.7950    7.0980 os        1 PX9     -0.415600
     20 C21        15.7220    0.9290    5.7400 c3        1 PX9      0.126400
     21 C17        14.2000    1.0520    5.6070 c3        1 PX9      0.130800
     22 H1         -0.5150    0.6990    0.7000 hc        1 PX9      0.035367
     23 H2         -0.5120   -0.0580   -0.9470 hc        1 PX9      0.035367
     24 H3         -0.3870   -1.0990    0.5310 hc        1 PX9      0.035367
     25 H4          1.7090    0.9620   -0.4510 hc        1 PX9      0.039700
     26 H5          1.8360   -0.8320   -0.6190 hc        1 PX9      0.039700
     27 H6          1.6290    0.7210    2.0610 hc        1 PX9      0.057700
     28 H7          1.7550   -1.0720    1.8930 hc        1 PX9      0.057700
     29 H8          3.9780   -0.8210    0.7200 h1        1 PX9      0.037700
     30 H9          3.8490    1.0000    0.8880 h1        1 PX9      0.037700
     31 H10         5.9750    0.2410    0.7570 ha        1 PX9      0.144000
     32 H11         8.4050    0.3590    1.2890 ha        1 PX9      0.143500
     33 H12         7.5060   -0.0970    5.5120 ha        1 PX9      0.143500
     34 H13         5.0770   -0.2180    4.9790 ha        1 PX9      0.144000
     35 H14         9.5260    0.9070    5.5690 h1        1 PX9      0.038200
     36 H15         9.6170   -0.9110    5.3460 h1        1 PX9      0.038200
     37 H16        11.8460   -0.6920    4.2400 hc        1 PX9      0.065200
     38 H17        11.7420    1.1120    4.3140 hc        1 PX9      0.065200
     39 H18        11.7150    1.0900    6.7900 h1        1 PX9      0.032700
     40 H19        11.5950   -0.7270    6.8160 h1        1 PX9      0.032700
     41 H21        13.6290    0.6300    8.3360 h1        1 PX9      0.041200
     42 H22        13.5240   -1.1670    8.0460 h1        1 PX9      0.041200
     43 H23        15.8290   -0.2450    8.8040 h1        1 PX9      0.054200
     44 H24        15.8510   -1.2660    7.2740 h1        1 PX9      0.054200
     45 H25        16.2160    1.8730    5.3940 h1        1 PX9      0.054200
     46 H26        16.1010    0.0540    5.1490 h1        1 PX9      0.054200
     47 H27        13.9360    0.9930    4.5140 h1        1 PX9      0.041200
     48 H28        13.8880    2.0680    5.9870 h1        1 PX9      0.041200
@<TRIPOS>BOND
     1    1    2 1   
     2    1   22 1   
     3    1   23 1   
     4    1   24 1   
     5    2    3 1   
     6    2   25 1   
     7    2   26 1   
     8    3    4 1   
     9    3   27 1   
    10    3   28 1   
    11    4    5 1   
    12    4   29 1   
    13    4   30 1   
    14    5    6 1   
    15    6    7 ar  
    16    6   11 ar  
    17    7    8 ar  
    18    7   31 1   
    19    8    9 ar  
    20    8   32 1   
    21    9   10 ar  
    22    9   12 1   
    23   10   11 ar  
    24   10   33 1   
    25   11   34 1   
    26   12   13 1   
    27   13   14 1   
    28   13   35 1   
    29   13   36 1   
    30   14   15 1   
    31   14   37 1   
    32   14   38 1   
    33   15   16 1   
    34   15   39 1   
    35   15   40 1   
    36   16   17 1   
    37   16   21 1   
    38   17   18 1   
    39   17   41 1   
    40   17   42 1   
    41   18   19 1   
    42   18   43 1   
    43   18   44 1   
    44   19   20 1   
    45   20   21 1   
    46   20   45 1   
    47   20   46 1   
    48   21   47 1   
    49   21   48 1   
@<TRIPOS>SUBSTRUCTURE
     1 PX9         1 TEMP              0 ****  ****    0 ROOT
