@<TRIPOS>MOLECULE
PXA
   33    35     1     0     0
SMALL
bcc


@<TRIPOS>ATOM
      1 C1         -1.3500    0.0750   -1.9210 cc        1 PXA     -0.411000
      2 C          -2.8080    0.2450   -1.7560 c         1 PXA      0.593100
      3 O          -3.3340    1.1450   -1.1060 o         1 PXA     -0.498100
      4 C2         -0.7900   -0.0210   -3.1750 cd        1 PXA      0.155800
      5 N2         -1.5150    0.1100   -4.3260 nh        1 PXA     -0.839600
      6 C3          0.6990   -0.2340   -3.3410 c         1 PXA      0.573500
      7 O3          1.1710   -0.5130   -4.4510 o         1 PXA     -0.519100
      8 C4          1.5230   -0.1030   -2.1380 cd        1 PXA     -0.209400
      9 O5          1.7760    0.1210    0.1750 os        1 PXA     -0.371800
     10 C6          2.0340    0.0870    2.5450 ca        1 PXA     -0.243900
     11 C7          1.4050    0.0090    3.8030 ca        1 PXA      0.419200
     12 N8          0.0760   -0.0990    3.9920 nb        1 PXA     -0.638000
     13 C9         -0.7270   -0.1260    2.9130 ca        1 PXA      0.318500
     14 C'         -2.2120   -0.2310    3.1030 c         1 PXA      0.492400
     15 O'         -2.7420   -1.1870    3.6570 o         1 PXA     -0.488100
     16 N10        -1.0860   -0.0380    0.4760 nd        1 PXA     -0.611000
     17 C11        -0.5360    0.0160   -0.7140 cc        1 PXA      0.447800
     18 C12         0.9280    0.0150   -0.9220 cc        1 PXA      0.201400
     19 C13         1.1820    0.0540    1.4260 ca        1 PXA      0.258700
     20 C14        -0.2240   -0.0420    1.5770 ca        1 PXA      0.162000
     21 C15         2.9930   -0.1100   -2.3090 c3        1 PXA     -0.045900
     22 C16         3.4980    0.2070    2.4110 c3        1 PXA     -0.048800
     23 H          -3.4220   -0.5260   -2.2790 h4        1 PXA     -0.009800
     24 HN21       -1.0700   -0.0790   -5.1940 hn        1 PXA      0.445800
     25 HN22       -2.5020    0.1550   -4.2930 hn        1 PXA      0.445800
     26 H7          2.0130    0.0280    4.7270 h4        1 PXA      0.037100
     27 H'         -2.7790    0.6260    2.6800 h4        1 PXA      0.037200
     28 H151        3.2790   -0.6770   -3.2290 hc        1 PXA      0.058033
     29 H152        3.3690    0.9400   -2.4090 hc        1 PXA      0.058033
     30 H153        3.4900   -0.5760   -1.4210 hc        1 PXA      0.058033
     31 H161        3.8590   -0.3810    1.5300 hc        1 PXA      0.056700
     32 H162        3.7810    1.2780    2.2510 hc        1 PXA      0.056700
     33 H163        4.0160   -0.1640    3.3290 hc        1 PXA      0.056700
@<TRIPOS>BOND
     1    1    2 1   
     2    1    4 2   
     3    1   17 1   
     4    2    3 2   
     5    2   23 1   
     6    4    5 1   
     7    4    6 1   
     8    5   24 1   
     9    5   25 1   
    10    6    7 2   
    11    6    8 1   
    12    8   18 2   
    13    8   21 1   
    14    9   18 1   
    15    9   19 1   
    16   10   11 ar  
    17   10   19 ar  
    18   10   22 1   
    19   11   12 ar  
    20   11   26 1   
    21   12   13 ar  
    22   13   14 1   
    23   13   20 ar  
    24   14   15 2   
    25   14   27 1   
    26   16   17 2   
    27   16   20 1   
    28   17   18 1   
    29   19   20 ar  
    30   21   28 1   
    31   21   29 1   
    32   21   30 1   
    33   22   31 1   
    34   22   32 1   
    35   22   33 1   
@<TRIPOS>SUBSTRUCTURE
     1 PXA         1 TEMP              0 ****  ****    0 ROOT
