@<TRIPOS>MOLECULE
PXA
   34    36     1     0     0
SMALL
bcc


@<TRIPOS>ATOM
      1 C1         -0.0070   -0.0160   -0.0010 cc        1 PXA     -0.136000
      2 C          -0.8080    0.0530   -1.2660 c         1 PXA      0.574100
      3 O          -0.2550   -0.0640   -2.3630 o         1 PXA     -0.532100
      4 C2          1.3570   -0.0620    0.0150 cd        1 PXA     -0.118200
      5 N2          2.1420   -0.0690   -1.2200 n4        1 PXA     -0.708400
      6 C3          2.1750   -0.1080    1.2760 c         1 PXA      0.589500
      7 O3          3.4090   -0.1790    1.1880 o         1 PXA     -0.522100
      8 C4          1.4300   -0.0640    2.5250 cd        1 PXA     -0.187400
      9 O5         -0.5720    0.0090    3.7300 os        1 PXA     -0.343800
     10 C6         -2.6070    0.0580    4.9680 ca        1 PXA     -0.241900
     11 C7         -4.0160    0.0670    4.9240 ca        1 PXA      0.475200
     12 N8         -4.7530    0.0490    3.7920 nb        1 PXA     -0.640000
     13 C9         -4.1260    0.0230    2.6070 ca        1 PXA      0.361500
     14 C'         -4.9630    0.0100    1.3550 c         1 PXA      0.482400
     15 O'         -4.7390    0.7760    0.4250 o         1 PXA     -0.475100
     16 N10        -2.0570   -0.0320    1.2770 nd        1 PXA     -0.501000
     17 C11        -0.7380   -0.0230    1.2690 cc        1 PXA      0.307800
     18 C12         0.0690   -0.0220    2.4970 cc        1 PXA      0.218400
     19 C13        -1.9530    0.0210    3.7230 ca        1 PXA      0.299700
     20 C14        -2.6920   -0.0020    2.5050 ca        1 PXA      0.113000
     21 C15         2.2030   -0.0600    3.7880 c3        1 PXA     -0.053900
     22 C16        -1.8690    0.0960    6.2450 c3        1 PXA     -0.060800
     23 H          -1.9040    0.2190   -1.1690 h4        1 PXA      0.103200
     24 HN21        1.8420   -0.8520   -1.8210 hn        1 PXA      0.480467
     25 HN22        1.9820    0.8040   -1.7410 hn        1 PXA      0.480467
     26 H7         -4.6030    0.0910    5.8670 h4        1 PXA      0.062100
     27 H'         -5.7850   -0.7390    1.3540 h4        1 PXA      0.055200
     28 H151        1.6620   -0.6390    4.5790 hc        1 PXA      0.073367
     29 H152        2.3340    0.9910    4.1510 hc        1 PXA      0.073367
     30 H153        3.2160   -0.5100    3.6340 hc        1 PXA      0.073367
     31 H161       -0.9330   -0.5140    6.1790 hc        1 PXA      0.070700
     32 H162       -2.4970   -0.2990    7.0820 hc        1 PXA      0.070700
     33 H163       -1.5800    1.1510    6.4880 hc        1 PXA      0.070700
     34 H23         3.1440   -0.1620   -0.9830 hn        1 PXA      0.480467
@<TRIPOS>BOND
     1    1    2 1   
     2    1    4 2   
     3    1   17 1   
     4    2    3 2   
     5    2   23 1   
     6    4    5 1   
     7    4    6 1   
     8    5   24 1   
     9    5   25 1   
    10    5   34 1   
    11    6    7 2   
    12    6    8 1   
    13    8   18 2   
    14    8   21 1   
    15    9   18 1   
    16    9   19 1   
    17   10   11 ar  
    18   10   19 ar  
    19   10   22 1   
    20   11   12 ar  
    21   11   26 1   
    22   12   13 ar  
    23   13   14 1   
    24   13   20 ar  
    25   14   15 2   
    26   14   27 1   
    27   16   17 2   
    28   16   20 1   
    29   17   18 1   
    30   19   20 ar  
    31   21   28 1   
    32   21   29 1   
    33   21   30 1   
    34   22   31 1   
    35   22   32 1   
    36   22   33 1   
@<TRIPOS>SUBSTRUCTURE
     1 PXA         1 TEMP              0 ****  ****    0 ROOT
