@<TRIPOS>MOLECULE
PXA
   33    35     1     0     0
SMALL
bcc


@<TRIPOS>ATOM
      1 C1          0.0010   -0.1130    0.0030 cc        1 PXA     -0.411000
      2 C          -0.7620   -0.3140   -1.2450 c         1 PXA      0.593100
      3 O          -1.5650   -1.2250   -1.4300 o         1 PXA     -0.498100
      4 C2          1.3740   -0.0060   -0.0200 cd        1 PXA      0.155800
      5 N2          2.1120   -0.1530   -1.1600 nv        1 PXA     -0.839600
      6 C3          2.1500    0.2380    1.2550 c         1 PXA      0.573500
      7 O3          3.3540    0.5260    1.2090 o         1 PXA     -0.519100
      8 C4          1.4080    0.1250    2.5120 cd        1 PXA     -0.209400
      9 O5         -0.5800   -0.0920    3.7220 os        1 PXA     -0.371800
     10 C6         -2.6200   -0.0520    4.9550 ca        1 PXA     -0.243900
     11 C7         -4.0260    0.0140    4.9150 ca        1 PXA      0.419200
     12 N8         -4.7590    0.0940    3.7880 nb        1 PXA     -0.638000
     13 C9         -4.1200    0.1030    2.6040 ca        1 PXA      0.318500
     14 C'         -4.9200    0.1770    1.3370 c         1 PXA      0.492400
     15 O'         -5.6540    1.1220    1.0710 o         1 PXA     -0.488100
     16 N10        -2.0620    0.0070    1.2520 nd        1 PXA     -0.611000
     17 C11        -0.7500   -0.0370    1.2490 cc        1 PXA      0.447800
     18 C12         0.0560   -0.0040    2.4880 cc        1 PXA      0.201400
     19 C13        -1.9640   -0.0370    3.7110 ca        1 PXA      0.258700
     20 C14        -2.6960    0.0290    2.4980 ca        1 PXA      0.162000
     21 C15         2.1830    0.1630    3.7720 c3        1 PXA     -0.045900
     22 C16        -1.8790   -0.1400    6.2280 c3        1 PXA     -0.048800
     23 H          -0.5540    0.4440   -2.0380 h4        1 PXA     -0.009800
     24 HN21        3.0850    0.0450   -1.1270 hn        1 PXA      0.445800
     25 HN22        1.6660   -0.2190   -2.0410 hn        1 PXA      0.445800
     26 H7         -4.6070    0.0080    5.8560 h4        1 PXA      0.037100
     27 H'         -4.7690   -0.6920    0.6600 h4        1 PXA      0.037200
     28 H151        1.5850    0.6410    4.5880 hc        1 PXA      0.058033
     29 H152        3.1340    0.7360    3.6320 hc        1 PXA      0.058033
     30 H153        2.4420   -0.8780    4.0920 hc        1 PXA      0.058033
     31 H161       -2.4970    0.2410    7.0780 hc        1 PXA      0.056700
     32 H162       -0.9340    0.4560    6.1730 hc        1 PXA      0.056700
     33 H163       -1.6050   -1.2050    6.4380 hc        1 PXA      0.056700
@<TRIPOS>BOND
     1    1    2 1   
     2    1    4 2   
     3    1   17 1   
     4    2    3 2   
     5    2   23 1   
     6    4    5 1   
     7    4    6 1   
     8    5   24 1   
     9    5   25 1   
    10    6    7 2   
    11    6    8 1   
    12    8   18 2   
    13    8   21 1   
    14    9   18 1   
    15    9   19 1   
    16   10   11 ar  
    17   10   19 ar  
    18   10   22 1   
    19   11   12 ar  
    20   11   26 1   
    21   12   13 ar  
    22   13   14 1   
    23   13   20 ar  
    24   14   15 2   
    25   14   27 1   
    26   16   17 2   
    27   16   20 1   
    28   17   18 1   
    29   19   20 ar  
    30   21   28 1   
    31   21   29 1   
    32   21   30 1   
    33   22   31 1   
    34   22   32 1   
    35   22   33 1   
@<TRIPOS>SUBSTRUCTURE
     1 PXA         1 TEMP              0 ****  ****    0 ROOT
