@<TRIPOS>MOLECULE
PXB
   45    46     1     0     0
SMALL
bcc


@<TRIPOS>ATOM
      1 C1          0.5660   -1.4510    0.1470 c3        1 PXB     -0.096100
      2 C2          1.6790   -0.4410    0.2570 c3        1 PXB     -0.155400
      3 C4          1.7970    0.1020    1.6590 c         1 PXB      0.610100
      4 O6          0.9570   -0.0590    2.5500 o         1 PXB     -0.508100
      5 N8          2.9900    0.8330    1.9930 n         1 PXB     -0.727000
      6 S12         4.7040   -0.2940    3.3210 s4        1 PXB      1.678300
      7 O14         5.4600   -0.4780    2.2060 o         1 PXB     -0.437400
      8 O16         4.8020    0.8260    4.0850 o         1 PXB     -0.437400
      9 C18         3.9450   -1.5050    3.8960 ca        1 PXB     -0.654500
     10 C20         3.9950   -2.7880    3.2750 ca        1 PXB      0.047500
     11 C21         3.3480   -3.8790    3.8040 ca        1 PXB     -0.174000
     12 C22         2.5920   -3.7720    4.9990 ca        1 PXB      0.209000
     13 C23         2.5270   -2.5030    5.6250 ca        1 PXB     -0.174000
     14 C24         3.1760   -1.4140    5.0920 ca        1 PXB      0.047500
     15 C31         1.9310   -4.9010    5.5620 cc        1 PXB     -0.363600
     16 C33         1.5120   -5.0890    6.8890 cd        1 PXB      0.374000
     17 C35         1.5410   -6.1610    4.8910 cc        1 PXB      0.416800
     18 O37         0.9410   -6.3630    6.9740 os        1 PXB     -0.087100
     19 N39         0.9590   -6.9670    5.7980 nd        1 PXB     -0.311300
     20 C42         1.7060   -6.5070    3.4830 ca        1 PXB     -0.172500
     21 C44         2.7560   -7.3470    3.0890 ca        1 PXB     -0.103500
     22 C45         2.8890   -7.7040    1.7480 ca        1 PXB     -0.130500
     23 C46         1.9750   -7.2370    0.8030 ca        1 PXB     -0.105000
     24 C47         0.9240   -6.4100    1.1980 ca        1 PXB     -0.130500
     25 C48         0.7830   -6.0450    2.5360 ca        1 PXB     -0.103500
     26 C55         1.5560   -4.3220    8.1330 c3        1 PXB     -0.172400
     27 H1          0.7800   -2.3460    0.7780 hc        1 PXB      0.059367
     28 H1A        -0.4020   -1.0080    0.4870 hc        1 PXB      0.059367
     29 H1B         0.4600   -1.7770   -0.9170 hc        1 PXB      0.059367
     30 H2          1.4740    0.4290   -0.4280 hc        1 PXB      0.083700
     31 H2A         2.6520   -0.9010   -0.0630 hc        1 PXB      0.083700
     32 HN8         2.7940    1.6040    2.6140 hn        1 PXB      0.306000
     33 H20         4.5870   -2.9020    2.3460 ha        1 PXB      0.168000
     34 H21         3.4180   -4.8610    3.2980 ha        1 PXB      0.180000
     35 H23         1.9300   -2.3830    6.5460 ha        1 PXB      0.180000
     36 H24         3.1030   -0.4320    5.6000 ha        1 PXB      0.168000
     37 H44         3.4610   -7.7380    3.8380 ha        1 PXB      0.146000
     38 H45         3.7090   -8.3710    1.4400 ha        1 PXB      0.148000
     39 H46         2.0760   -7.5330   -0.2530 ha        1 PXB      0.149000
     40 H47         0.1910   -6.0580    0.4560 ha        1 PXB      0.148000
     41 H48        -0.0610   -5.4120    2.8500 ha        1 PXB      0.146000
     42 H55         1.3990   -4.9950    9.0170 hc        1 PXB      0.089367
     43 H55A        0.7420   -3.5500    8.1330 hc        1 PXB      0.089367
     44 H55B        2.5460   -3.8110    8.2400 hc        1 PXB      0.089367
     45 H82         3.4730    1.1590    1.1740 hn        1 PXB      0.306000
@<TRIPOS>BOND
     1    1    2 1   
     2    1   27 1   
     3    1   28 1   
     4    1   29 1   
     5    2    3 1   
     6    2   30 1   
     7    2   31 1   
     8    3    4 2   
     9    3    5 1   
    10    5   32 1   
    11    5   45 1   
    12    6    7 1   
    13    6    8 1   
    14    6    9 1   
    15    9   10 ar  
    16    9   14 ar  
    17   10   11 ar  
    18   10   33 1   
    19   11   12 ar  
    20   11   34 1   
    21   12   13 ar  
    22   12   15 1   
    23   13   14 ar  
    24   13   35 1   
    25   14   36 1   
    26   15   16 2   
    27   15   17 1   
    28   16   18 1   
    29   16   26 1   
    30   17   19 2   
    31   17   20 1   
    32   18   19 1   
    33   20   21 ar  
    34   20   25 ar  
    35   21   22 ar  
    36   21   37 1   
    37   22   23 ar  
    38   22   38 1   
    39   23   24 ar  
    40   23   39 1   
    41   24   25 ar  
    42   24   40 1   
    43   25   41 1   
    44   26   42 1   
    45   26   43 1   
    46   26   44 1   
@<TRIPOS>SUBSTRUCTURE
     1 PXB         1 TEMP              0 ****  ****    0 ROOT
