@<TRIPOS>MOLECULE
PXB
   44    46     1     0     0
SMALL
bcc


@<TRIPOS>ATOM
      1 C1         -4.9000    2.0960   -2.9540 c3        1 PXB     -0.090100
      2 C2         -4.7350    2.1150   -1.4570 c3        1 PXB     -0.150400
      3 C4         -4.0470    0.8600   -0.9610 c         1 PXB      0.690100
      4 O6         -3.7030   -0.0640   -1.7160 o         1 PXB     -0.579100
      5 N8         -3.8010    0.7620    0.4110 n         1 PXB     -0.677300
      6 S12        -3.1980   -0.5160    1.2760 sy        1 PXB      1.513900
      7 O14        -3.2320   -0.1000    2.6270 o         1 PXB     -0.642300
      8 O16        -3.8880   -1.6960    0.9690 o         1 PXB     -0.642300
      9 C18        -1.6060   -0.6270    0.7720 ca        1 PXB     -0.404500
     10 C20        -0.5680   -0.1240    1.5700 ca        1 PXB     -0.004000
     11 C21         0.7600   -0.2590    1.1890 ca        1 PXB     -0.156000
     12 C22         1.0910   -0.9110   -0.0110 ca        1 PXB      0.069000
     13 C23         0.0560   -1.4160   -0.8150 ca        1 PXB     -0.156000
     14 C24        -1.2710   -1.2700   -0.4270 ca        1 PXB     -0.004000
     15 C31         2.4660   -1.0920   -0.4020 cc        1 PXB     -0.287600
     16 C33         3.0220   -2.1850   -1.0560 cd        1 PXB      0.297000
     17 C35         3.6100   -0.1930   -0.1720 cc        1 PXB      0.393800
     18 O37         4.4070   -1.9460   -1.1880 os        1 PXB     -0.112100
     19 N39         4.7220   -0.7770   -0.6690 nd        1 PXB     -0.350300
     20 C42         3.5890    1.1210    0.4580 ca        1 PXB     -0.143500
     21 C44         4.5560    1.4540    1.4170 ca        1 PXB     -0.099000
     22 C45         4.5460    2.7190    2.0040 ca        1 PXB     -0.135500
     23 C46         3.5830    3.6570    1.6330 ca        1 PXB     -0.115000
     24 C47         2.6250    3.3300    0.6730 ca        1 PXB     -0.135500
     25 C48         2.6240    2.0670    0.0860 ca        1 PXB     -0.099000
     26 C55         2.5230   -3.4500   -1.5910 c3        1 PXB     -0.148400
     27 H1         -3.9040    2.0350   -3.4580 hc        1 PXB      0.049700
     28 H1A        -5.4990    1.2070   -3.2700 hc        1 PXB      0.049700
     29 H1B        -5.4210    3.0240   -3.2910 hc        1 PXB      0.049700
     30 H2         -4.1300    3.0100   -1.1490 hc        1 PXB      0.068700
     31 H2A        -5.7400    2.1930   -0.9610 hc        1 PXB      0.068700
     32 HN8        -4.0590    1.5770    0.9250 hn        1 PXB      0.333500
     33 H20        -0.8160    0.3730    2.5260 ha        1 PXB      0.166500
     34 H21         1.5630    0.1440    1.8260 ha        1 PXB      0.149500
     35 H23         0.2970   -1.9240   -1.7620 ha        1 PXB      0.149500
     36 H24        -2.0810   -1.6620   -1.0730 ha        1 PXB      0.166500
     37 H44         5.3240    0.7200    1.7030 ha        1 PXB      0.144500
     38 H45         5.3050    2.9770    2.7570 ha        1 PXB      0.136500
     39 H46         3.5810    4.6560    2.0950 ha        1 PXB      0.135000
     40 H47         1.8690    4.0710    0.3760 ha        1 PXB      0.136500
     41 H48         1.8690    1.8070   -0.6710 ha        1 PXB      0.144500
     42 H55         1.6420   -3.7950   -0.9930 hc        1 PXB      0.072700
     43 H55A        2.2030   -3.3120   -2.6560 hc        1 PXB      0.072700
     44 H55B        3.3210   -4.2340   -1.5600 hc        1 PXB      0.072700
@<TRIPOS>BOND
     1    1    2 1   
     2    1   27 1   
     3    1   28 1   
     4    1   29 1   
     5    2    3 1   
     6    2   30 1   
     7    2   31 1   
     8    3    4 2   
     9    3    5 1   
    10    5    6 1   
    11    5   32 1   
    12    6    7 2   
    13    6    8 2   
    14    6    9 1   
    15    9   10 ar  
    16    9   14 ar  
    17   10   11 ar  
    18   10   33 1   
    19   11   12 ar  
    20   11   34 1   
    21   12   13 ar  
    22   12   15 1   
    23   13   14 ar  
    24   13   35 1   
    25   14   36 1   
    26   15   16 2   
    27   15   17 1   
    28   16   18 1   
    29   16   26 1   
    30   17   19 2   
    31   17   20 1   
    32   18   19 1   
    33   20   21 ar  
    34   20   25 ar  
    35   21   22 ar  
    36   21   37 1   
    37   22   23 ar  
    38   22   38 1   
    39   23   24 ar  
    40   23   39 1   
    41   24   25 ar  
    42   24   40 1   
    43   25   41 1   
    44   26   42 1   
    45   26   43 1   
    46   26   44 1   
@<TRIPOS>SUBSTRUCTURE
     1 PXB         1 TEMP              0 ****  ****    0 ROOT
