@<TRIPOS>MOLECULE
PXB
   45    46     1     0     0
SMALL
bcc


@<TRIPOS>ATOM
      1 C1          0.5820   -1.4570    0.1370 c3        1 PXB     -0.096100
      2 C2          1.6930   -0.4450    0.2520 c3        1 PXB     -0.155400
      3 C4          1.8000    0.1000    1.6540 c         1 PXB      0.610100
      4 O6          0.9550   -0.0610    2.5400 o         1 PXB     -0.508100
      5 N8          2.9900    0.8340    1.9940 nt        1 PXB     -0.727000
      6 S12         4.6960   -0.2880    3.3370 s4        1 PXB      1.678300
      7 O14         5.4620   -0.4710    2.2280 o         1 PXB     -0.437400
      8 O16         4.7850    0.8340    4.1000 o         1 PXB     -0.437400
      9 C18         3.9360   -1.5000    3.9070 ca        1 PXB     -0.654500
     10 C20         3.9940   -2.7840    3.2880 ca        1 PXB      0.047500
     11 C21         3.3460   -3.8760    3.8130 ca        1 PXB     -0.174000
     12 C22         2.5800   -3.7700    5.0010 ca        1 PXB      0.209000
     13 C23         2.5070   -2.5000    5.6260 ca        1 PXB     -0.174000
     14 C24         3.1570   -1.4100    5.0970 ca        1 PXB      0.047500
     15 C31         1.9170   -4.9000    5.5610 cc        1 PXB     -0.363600
     16 C33         1.4880   -5.0870    6.8840 cd        1 PXB      0.374000
     17 C35         1.5360   -6.1610    4.8880 cc        1 PXB      0.416800
     18 O37         0.9210   -6.3630    6.9660 os        1 PXB     -0.087100
     19 N39         0.9490   -6.9680    5.7910 nd        1 PXB     -0.311300
     20 C42         1.7140   -6.5080    3.4810 ca        1 PXB     -0.172500
     21 C44         2.7690   -7.3460    3.0960 ca        1 PXB     -0.103500
     22 C45         2.9150   -7.7040    1.7570 ca        1 PXB     -0.130500
     23 C46         2.0070   -7.2410    0.8040 ca        1 PXB     -0.105000
     24 C47         0.9500   -6.4160    1.1900 ca        1 PXB     -0.130500
     25 C48         0.7970   -6.0500    2.5270 ca        1 PXB     -0.103500
     26 C55         1.5200   -4.3190    8.1270 c3        1 PXB     -0.172400
     27 H1          0.7930   -2.3510    0.7710 hc        1 PXB      0.059367
     28 H1A        -0.3900   -1.0150    0.4700 hc        1 PXB      0.059367
     29 H1B         0.4820   -1.7860   -0.9270 hc        1 PXB      0.059367
     30 H2          1.4910    0.4220   -0.4360 hc        1 PXB      0.083700
     31 H2A         2.6680   -0.9050   -0.0610 hc        1 PXB      0.083700
     32 HN8         2.7890    1.6050    2.6120 hn        1 PXB      0.306000
     33 H20         4.5940   -2.8970    2.3640 ha        1 PXB      0.168000
     34 H21         3.4230   -4.8570    3.3080 ha        1 PXB      0.180000
     35 H23         1.9020   -2.3810    6.5410 ha        1 PXB      0.180000
     36 H24         3.0770   -0.4280    5.6030 ha        1 PXB      0.168000
     37 H44         3.4690   -7.7340    3.8520 ha        1 PXB      0.146000
     38 H45         3.7390   -8.3690    1.4560 ha        1 PXB      0.148000
     39 H46         2.1170   -7.5380   -0.2500 ha        1 PXB      0.149000
     40 H47         0.2220   -6.0670    0.4420 ha        1 PXB      0.148000
     41 H48        -0.0510   -5.4190    2.8330 ha        1 PXB      0.146000
     42 H55         1.3570   -4.9910    9.0100 hc        1 PXB      0.089367
     43 H55A        0.7040   -3.5490    8.1200 hc        1 PXB      0.089367
     44 H55B        2.5080   -3.8050    8.2420 hc        1 PXB      0.089367
     45 H82         3.4780    1.1590    1.1770 hn        1 PXB      0.306000
@<TRIPOS>BOND
     1    1    2 1   
     2    1   27 1   
     3    1   28 1   
     4    1   29 1   
     5    2    3 1   
     6    2   30 1   
     7    2   31 1   
     8    3    4 2   
     9    3    5 1   
    10    5   32 1   
    11    5   45 1   
    12    6    7 1   
    13    6    8 1   
    14    6    9 1   
    15    9   10 ar  
    16    9   14 ar  
    17   10   11 ar  
    18   10   33 1   
    19   11   12 ar  
    20   11   34 1   
    21   12   13 ar  
    22   12   15 1   
    23   13   14 ar  
    24   13   35 1   
    25   14   36 1   
    26   15   16 2   
    27   15   17 1   
    28   16   18 1   
    29   16   26 1   
    30   17   19 2   
    31   17   20 1   
    32   18   19 1   
    33   20   21 ar  
    34   20   25 ar  
    35   21   22 ar  
    36   21   37 1   
    37   22   23 ar  
    38   22   38 1   
    39   23   24 ar  
    40   23   39 1   
    41   24   25 ar  
    42   24   40 1   
    43   25   41 1   
    44   26   42 1   
    45   26   43 1   
    46   26   44 1   
@<TRIPOS>SUBSTRUCTURE
     1 PXB         1 TEMP              0 ****  ****    0 ROOT
