@<TRIPOS>MOLECULE
PXC
   26    28     1     0     0
SMALL
bcc


@<TRIPOS>ATOM
      1 OAA         4.2040    1.2840    1.1110 o         1 PXC     -0.831300
      2 OAB        -4.2040   -1.2840   -1.1140 o         1 PXC     -0.831300
      3 OAC         4.2060    1.2720   -1.1220 o         1 PXC     -0.831300
      4 OAD        -4.2050   -1.2720    1.1180 o         1 PXC     -0.831300
      5 CAE         2.4430   -2.7230    0.0150 ca        1 PXC     -0.128000
      6 CAF        -2.4430    2.7230   -0.0180 ca        1 PXC     -0.128000
      7 CAG         3.3010   -1.5890    0.0090 ca        1 PXC     -0.171000
      8 CAH        -3.3000    1.5890   -0.0130 ca        1 PXC     -0.171000
      9 CAI         1.0890   -2.5820    0.0130 ca        1 PXC     -0.201300
     10 CAJ        -1.0890    2.5820   -0.0160 ca        1 PXC     -0.201300
     11 NAK         0.8560    1.1450   -0.0070 nb        1 PXC     -0.601000
     12 NAL        -0.8550   -1.1450    0.0040 nb        1 PXC     -0.601000
     13 CAM         3.7970    0.8520   -0.0040 c         1 PXC      0.926200
     14 CAN        -3.7970   -0.8520   -0.0000 c         1 PXC      0.926200
     15 CAO         2.8100   -0.3130    0.0020 ca        1 PXC     -0.114900
     16 CAP        -2.8100    0.3130   -0.0050 ca        1 PXC     -0.114900
     17 CAQ         0.4960   -1.2670    0.0050 ca        1 PXC      0.283300
     18 CAR        -0.4960    1.2670   -0.0090 ca        1 PXC      0.283300
     19 CAS         1.3760   -0.1040   -0.0000 ca        1 PXC      0.319300
     20 CAT        -1.3760    0.1040   -0.0030 ca        1 PXC      0.319300
     21 HAE         2.8980   -3.7250    0.0200 ha        1 PXC      0.097000
     22 HAF        -2.8980    3.7250   -0.0240 ha        1 PXC      0.097000
     23 HAG         4.3890   -1.7510    0.0110 ha        1 PXC      0.123000
     24 HAH        -4.3880    1.7510   -0.0140 ha        1 PXC      0.123000
     25 HAI         0.4190   -3.4550    0.0170 ha        1 PXC      0.131000
     26 HAJ        -0.4190    3.4550   -0.0200 ha        1 PXC      0.131000
@<TRIPOS>BOND
     1    1   13 1   
     2    2   14 1   
     3    3   13 1   
     4    4   14 1   
     5    5    7 ar  
     6    5    9 ar  
     7    5   21 1   
     8    6    8 ar  
     9    6   10 ar  
    10    6   22 1   
    11    7   15 ar  
    12    7   23 1   
    13    8   16 ar  
    14    8   24 1   
    15    9   17 ar  
    16    9   25 1   
    17   10   18 ar  
    18   10   26 1   
    19   11   18 ar  
    20   11   19 ar  
    21   12   17 ar  
    22   12   20 ar  
    23   13   15 1   
    24   14   16 1   
    25   15   19 ar  
    26   16   20 ar  
    27   17   19 ar  
    28   18   20 ar  
@<TRIPOS>SUBSTRUCTURE
     1 PXC         1 TEMP              0 ****  ****    0 ROOT
