@<TRIPOS>MOLECULE
PXC
   26    28     1     0     0
SMALL
bcc


@<TRIPOS>ATOM
      1 OAA        -0.2750   -0.9530    0.1200 o         1 PXC     -0.831300
      2 OAB         4.1800   -6.2850    5.5030 o         1 PXC     -0.831300
      3 OAC         1.6490   -0.2140   -0.7400 o         1 PXC     -0.831300
      4 OAD         6.1030   -5.5460    4.6430 o         1 PXC     -0.831300
      5 CAE         2.2330    0.0850    3.7240 ca        1 PXC     -0.128000
      6 CAF         3.5950   -6.5840    1.0390 ca        1 PXC     -0.128000
      7 CAG         1.6250    0.1790    2.4430 ca        1 PXC     -0.171000
      8 CAH         4.2040   -6.6780    2.3200 ca        1 PXC     -0.171000
      9 CAI         2.8530   -1.0580    4.1280 ca        1 PXC     -0.201300
     10 CAJ         2.9750   -5.4410    0.6350 ca        1 PXC     -0.201300
     11 NAK         2.3050   -3.1630    1.0910 nb        1 PXC     -0.601000
     12 NAL         3.5240   -3.3360    3.6710 nb        1 PXC     -0.601000
     13 CAM         0.9570   -0.6860    0.2040 c         1 PXC      0.926200
     14 CAN         4.8720   -5.8120    4.5590 c         1 PXC      0.926200
     15 CAO         1.6320   -0.8670    1.5610 ca        1 PXC     -0.114900
     16 CAP         4.1960   -5.6320    3.2020 ca        1 PXC     -0.114900
     17 CAQ         2.9020   -2.2050    3.2530 ca        1 PXC      0.283300
     18 CAR         2.9260   -4.2940    1.5100 ca        1 PXC      0.283300
     19 CAS         2.2780   -2.1080    1.9390 ca        1 PXC      0.319300
     20 CAT         3.5510   -4.3910    2.8240 ca        1 PXC      0.319300
     21 HAE         2.1940    0.9610    4.3890 ha        1 PXC      0.097000
     22 HAF         3.6340   -7.4600    0.3740 ha        1 PXC      0.097000
     23 HAG         1.1360    1.1220    2.1590 ha        1 PXC      0.123000
     24 HAH         4.6930   -7.6210    2.6040 ha        1 PXC      0.123000
     25 HAI         3.3260   -1.1380    5.1170 ha        1 PXC      0.131000
     26 HAJ         2.5020   -5.3610   -0.3540 ha        1 PXC      0.131000
@<TRIPOS>BOND
     1    1   13 1   
     2    2   14 1   
     3    3   13 1   
     4    4   14 1   
     5    5    7 ar  
     6    5    9 ar  
     7    5   21 1   
     8    6    8 ar  
     9    6   10 ar  
    10    6   22 1   
    11    7   15 ar  
    12    7   23 1   
    13    8   16 ar  
    14    8   24 1   
    15    9   17 ar  
    16    9   25 1   
    17   10   18 ar  
    18   10   26 1   
    19   11   18 ar  
    20   11   19 ar  
    21   12   17 ar  
    22   12   20 ar  
    23   13   15 1   
    24   14   16 1   
    25   15   19 ar  
    26   16   20 ar  
    27   17   19 ar  
    28   18   20 ar  
@<TRIPOS>SUBSTRUCTURE
     1 PXC         1 TEMP              0 ****  ****    0 ROOT
