@<TRIPOS>MOLECULE
PXC
   26    28     1     0     0
SMALL
bcc


@<TRIPOS>ATOM
      1 OAA        -0.2570   -0.9480    0.1000 o         1 PXC     -0.831300
      2 OAB         4.1550   -6.2980    5.5000 o         1 PXC     -0.831300
      3 OAC         1.6730   -0.2010   -0.7370 o         1 PXC     -0.831300
      4 OAD         6.0860   -5.5510    4.6630 o         1 PXC     -0.831300
      5 CAE         2.2130    0.0770    3.7340 ca        1 PXC     -0.128000
      6 CAF         3.6160   -6.5760    1.0290 ca        1 PXC     -0.128000
      7 CAG         1.6170    0.1760    2.4470 ca        1 PXC     -0.171000
      8 CAH         4.2120   -6.6750    2.3160 ca        1 PXC     -0.171000
      9 CAI         2.8310   -1.0670    4.1380 ca        1 PXC     -0.201300
     10 CAJ         2.9980   -5.4310    0.6250 ca        1 PXC     -0.201300
     11 NAK         2.3170   -3.1580    1.0860 nb        1 PXC     -0.601000
     12 NAL         3.5110   -3.3410    3.6770 nb        1 PXC     -0.601000
     13 CAM         0.9730   -0.6800    0.1980 c         1 PXC      0.926200
     14 CAN         4.8560   -5.8190    4.5650 c         1 PXC      0.926200
     15 CAO         1.6350   -0.8650    1.5610 ca        1 PXC     -0.114900
     16 CAP         4.1930   -5.6340    3.2020 ca        1 PXC     -0.114900
     17 CAQ         2.8920   -2.2090    3.2580 ca        1 PXC      0.283300
     18 CAR         2.9370   -4.2900    1.5050 ca        1 PXC      0.283300
     19 CAS         2.2800   -2.1070    1.9380 ca        1 PXC      0.319300
     20 CAT         3.5490   -4.3920    2.8250 ca        1 PXC      0.319300
     21 HAE         2.1650    0.9490    4.4030 ha        1 PXC      0.097000
     22 HAF         3.6640   -7.4480    0.3600 ha        1 PXC      0.097000
     23 HAG         1.1280    1.1190    2.1640 ha        1 PXC      0.123000
     24 HAH         4.7000   -7.6180    2.5990 ha        1 PXC      0.123000
     25 HAI         3.2940   -1.1510    5.1320 ha        1 PXC      0.131000
     26 HAJ         2.5340   -5.3480   -0.3690 ha        1 PXC      0.131000
@<TRIPOS>BOND
     1    1   13 1   
     2    2   14 1   
     3    3   13 1   
     4    4   14 1   
     5    5    7 ar  
     6    5    9 ar  
     7    5   21 1   
     8    6    8 ar  
     9    6   10 ar  
    10    6   22 1   
    11    7   15 ar  
    12    7   23 1   
    13    8   16 ar  
    14    8   24 1   
    15    9   17 ar  
    16    9   25 1   
    17   10   18 ar  
    18   10   26 1   
    19   11   18 ar  
    20   11   19 ar  
    21   12   17 ar  
    22   12   20 ar  
    23   13   15 1   
    24   14   16 1   
    25   15   19 ar  
    26   16   20 ar  
    27   17   19 ar  
    28   18   20 ar  
@<TRIPOS>SUBSTRUCTURE
     1 PXC         1 TEMP              0 ****  ****    0 ROOT
