@<TRIPOS>MOLECULE
PXE
   26    26     1     0     0
SMALL
bcc


@<TRIPOS>ATOM
      1 OAA        -0.0300    0.0090   -0.0450 oh        1 PXE     -0.340500
      2 NAB         1.2770   -0.0010   -0.0620 n2        1 PXE     -0.406200
      3 CAC         1.8880   -0.0040    1.1050 cc        1 PXE      0.419900
      4 CAD         1.2100    0.0040    2.4080 cc        1 PXE     -0.199600
      5 CAE         1.8590    0.0010    3.5880 cd        1 PXE     -0.143400
      6 CAF         3.3400   -0.0100    3.6250 c         1 PXE      0.564500
      7 CAG         4.0160   -0.0180    2.3170 cd        1 PXE     -0.239200
      8 CAH         3.3680   -0.0150    1.1370 cc        1 PXE     -0.086800
      9 OAI         3.9980   -0.0130    4.6750 o         1 PXE     -0.524100
     10 CAJ         4.1080   -0.0230   -0.1480 c3        1 PXE     -0.065900
     11 CAK         1.0970    0.0100    4.8780 c3        1 PXE     -0.019500
     12 CAL         1.3840   -1.2380    5.6910 c3        1 PXE     -0.095100
     13 CAM         1.4030    1.2560    5.6860 c3        1 PXE     -0.095100
     14 HOAA       -0.2900    0.0090   -0.9910 ho        1 PXE      0.447000
     15 HAJ         3.8510    0.8840   -0.7500 hc        1 PXE      0.056033
     16 HAJA        5.2130   -0.0320    0.0240 hc        1 PXE      0.056033
     17 HAJB        3.8370   -0.9290   -0.7460 hc        1 PXE      0.056033
     18 HAK        -0.0070    0.0180    4.6370 hc        1 PXE      0.045700
     19 HAL         1.1340   -2.1540    5.1040 hc        1 PXE      0.043367
     20 HALA        2.4640   -1.2780    5.9770 hc        1 PXE      0.043367
     21 HALB        0.7680   -1.2320    6.6220 hc        1 PXE      0.043367
     22 HAM         0.7870    1.2630    6.6170 hc        1 PXE      0.043367
     23 HAMA        2.4830    1.2800    5.9730 hc        1 PXE      0.043367
     24 HAMB        1.1680    2.1730    5.0950 hc        1 PXE      0.043367
     25 HAD         0.1050    0.0130    2.3760 ha        1 PXE      0.152000
     26 HAG         5.1180   -0.0260    2.3610 ha        1 PXE      0.156000
@<TRIPOS>BOND
     1    1    2 1   
     2    1   14 1   
     3    2    3 2   
     4    3    4 1   
     5    3    8 1   
     6    4    5 2   
     7    4   25 1   
     8    5    6 1   
     9    5   11 1   
    10    6    7 1   
    11    6    9 2   
    12    7    8 2   
    13    7   26 1   
    14    8   10 1   
    15   10   15 1   
    16   10   16 1   
    17   10   17 1   
    18   11   12 1   
    19   11   13 1   
    20   11   18 1   
    21   12   19 1   
    22   12   20 1   
    23   12   21 1   
    24   13   22 1   
    25   13   23 1   
    26   13   24 1   
@<TRIPOS>SUBSTRUCTURE
     1 PXE         1 TEMP              0 ****  ****    0 ROOT
