@<TRIPOS>MOLECULE
PXE
   26    26     1     0     0
SMALL
bcc


@<TRIPOS>ATOM
      1 OAA        -0.0410    0.0070   -0.0370 oh        1 PXE     -0.340500
      2 NAB         1.2660   -0.0030   -0.0590 n2        1 PXE     -0.406200
      3 CAC         1.8810   -0.0040    1.1070 cc        1 PXE      0.419900
      4 CAD         1.2080    0.0060    2.4120 cc        1 PXE     -0.199600
      5 CAE         1.8610    0.0020    3.5890 cd        1 PXE     -0.143400
      6 CAF         3.3430   -0.0130    3.6200 c         1 PXE      0.564500
      7 CAG         4.0130   -0.0200    2.3100 cd        1 PXE     -0.239200
      8 CAH         3.3610   -0.0160    1.1330 cc        1 PXE     -0.086800
      9 OAI         4.0040   -0.0200    4.6680 o         1 PXE     -0.524100
     10 CAJ         4.0960   -0.0230   -0.1550 c3        1 PXE     -0.065900
     11 CAK         1.1030    0.0120    4.8820 c3        1 PXE     -0.019500
     12 CAL         1.3900   -1.2370    5.6940 c3        1 PXE     -0.095100
     13 CAM         1.4170    1.2580    5.6890 c3        1 PXE     -0.095100
     14 HOAA       -0.3050    0.0060   -0.9820 ho        1 PXE      0.447000
     15 HAJ         5.2020   -0.0310    0.0130 hc        1 PXE      0.056033
     16 HAJA        3.8370    0.8850   -0.7550 hc        1 PXE      0.056033
     17 HAJB        3.8240   -0.9280   -0.7530 hc        1 PXE      0.056033
     18 HAK        -0.0010    0.0240    4.6440 hc        1 PXE      0.045700
     19 HAL         2.4700   -1.2800    5.9760 hc        1 PXE      0.043367
     20 HALA        0.7770   -1.2280    6.6270 hc        1 PXE      0.043367
     21 HALB        1.1350   -2.1510    5.1070 hc        1 PXE      0.043367
     22 HAM         0.8040    1.2660    6.6220 hc        1 PXE      0.043367
     23 HAMA        2.4980    1.2780    5.9710 hc        1 PXE      0.043367
     24 HAMB        1.1830    2.1760    5.0990 hc        1 PXE      0.043367
     25 HAD         0.1030    0.0170    2.3830 ha        1 PXE      0.152000
     26 HAG         5.1160   -0.0290    2.3510 ha        1 PXE      0.156000
@<TRIPOS>BOND
     1    1    2 1   
     2    1   14 1   
     3    2    3 2   
     4    3    4 1   
     5    3    8 1   
     6    4    5 2   
     7    4   25 1   
     8    5    6 1   
     9    5   11 1   
    10    6    7 1   
    11    6    9 2   
    12    7    8 2   
    13    7   26 1   
    14    8   10 1   
    15   10   15 1   
    16   10   16 1   
    17   10   17 1   
    18   11   12 1   
    19   11   13 1   
    20   11   18 1   
    21   12   19 1   
    22   12   20 1   
    23   12   21 1   
    24   13   22 1   
    25   13   23 1   
    26   13   24 1   
@<TRIPOS>SUBSTRUCTURE
     1 PXE         1 TEMP              0 ****  ****    0 ROOT
