@<TRIPOS>MOLECULE
PXE
   26    26     1     0     0
SMALL
bcc


@<TRIPOS>ATOM
      1 OAA         2.6620    2.2790    0.0960 oh        1 PXE     -0.340500
      2 NAB         2.7140    0.9740    0.0550 n2        1 PXE     -0.406200
      3 CAC         1.5620    0.3330    0.0240 cc        1 PXE      0.419900
      4 CAD         0.2420    0.9770    0.0330 cc        1 PXE     -0.199600
      5 CAE        -0.9210    0.2970    0.0020 cd        1 PXE     -0.143400
      6 CAF        -0.9180   -1.1840   -0.0460 c         1 PXE      0.564500
      7 CAG         0.4070   -1.8250   -0.0540 cd        1 PXE     -0.239200
      8 CAH         1.5690   -1.1470   -0.0230 cc        1 PXE     -0.086800
      9 OAI        -1.9510   -1.8670   -0.0760 o         1 PXE     -0.524100
     10 CAJ         2.8730   -1.8530   -0.0340 c3        1 PXE     -0.065900
     11 CAK        -2.2300    1.0260    0.0130 c3        1 PXE     -0.019500
     12 CAL        -3.0220    0.7480   -1.2510 c3        1 PXE     -0.095100
     13 CAM        -3.0430    0.6680    1.2430 c3        1 PXE     -0.095100
     14 HOAA        3.6010    2.5630    0.1130 ho        1 PXE      0.447000
     15 HAJ         3.4580   -1.6030    0.8860 hc        1 PXE      0.056033
     16 HAJA        2.7290   -2.9620   -0.0700 hc        1 PXE      0.056033
     17 HAJB        3.4740   -1.5450   -0.9260 hc        1 PXE      0.056033
     18 HAK        -2.0170    2.1350    0.0510 hc        1 PXE      0.045700
     19 HAL        -3.9680    1.3400   -1.2400 hc        1 PXE      0.043367
     20 HALA       -2.4310    1.0350   -2.1530 hc        1 PXE      0.043367
     21 HALB       -3.2790   -0.3370   -1.3190 hc        1 PXE      0.043367
     22 HAM        -2.4690    0.8970    2.1720 hc        1 PXE      0.043367
     23 HAMA       -3.9900    1.2600    1.2540 hc        1 PXE      0.043367
     24 HAMB       -3.3020   -0.4190    1.2380 hc        1 PXE      0.043367
     25 HAD         0.2450    2.0820    0.0690 ha        1 PXE      0.152000
     26 HAG         0.3910   -2.9280   -0.0900 ha        1 PXE      0.156000
@<TRIPOS>BOND
     1    1    2 1   
     2    1   14 1   
     3    2    3 2   
     4    3    4 1   
     5    3    8 1   
     6    4    5 2   
     7    4   25 1   
     8    5    6 1   
     9    5   11 1   
    10    6    7 1   
    11    6    9 2   
    12    7    8 2   
    13    7   26 1   
    14    8   10 1   
    15   10   15 1   
    16   10   16 1   
    17   10   17 1   
    18   11   12 1   
    19   11   13 1   
    20   11   18 1   
    21   12   19 1   
    22   12   20 1   
    23   12   21 1   
    24   13   22 1   
    25   13   23 1   
    26   13   24 1   
@<TRIPOS>SUBSTRUCTURE
     1 PXE         1 TEMP              0 ****  ****    0 ROOT
