@<TRIPOS>MOLECULE
PXE
   26    26     1     0     0
SMALL
bcc


@<TRIPOS>ATOM
      1 OAA        -0.0320   -0.0010   -0.0450 oh        1 PXE     -0.340500
      2 NAB         1.2760   -0.0060   -0.0620 n2        1 PXE     -0.406200
      3 CAC         1.8870   -0.0060    1.1060 cc        1 PXE      0.419900
      4 CAD         1.2100   -0.0000    2.4090 cc        1 PXE     -0.199600
      5 CAE         1.8590    0.0010    3.5880 cd        1 PXE     -0.143400
      6 CAF         3.3410   -0.0040    3.6240 c         1 PXE      0.564500
      7 CAG         4.0160   -0.0100    2.3160 cd        1 PXE     -0.239200
      8 CAH         3.3670   -0.0110    1.1370 cc        1 PXE     -0.086800
      9 OAI         3.9980   -0.0040    4.6740 o         1 PXE     -0.524100
     10 CAJ         4.1070   -0.0170   -0.1480 c3        1 PXE     -0.065900
     11 CAK         1.0970    0.0060    4.8790 c3        1 PXE     -0.019500
     12 CAL         1.3900   -1.2400    5.6920 c3        1 PXE     -0.095100
     13 CAM         1.3990    1.2550    5.6860 c3        1 PXE     -0.095100
     14 HOAA       -0.2920   -0.0030   -0.9900 ho        1 PXE      0.447000
     15 HAJ         3.8460    0.8890   -0.7510 hc        1 PXE      0.056033
     16 HAJA        5.2120   -0.0210    0.0230 hc        1 PXE      0.056033
     17 HAJB        3.8390   -0.9240   -0.7460 hc        1 PXE      0.056033
     18 HAK        -0.0070    0.0100    4.6370 hc        1 PXE      0.045700
     19 HAL         1.1440   -2.1570    5.1050 hc        1 PXE      0.043367
     20 HALA        2.4700   -1.2750    5.9780 hc        1 PXE      0.043367
     21 HALB        0.7740   -1.2360    6.6230 hc        1 PXE      0.043367
     22 HAM         0.7830    1.2590    6.6170 hc        1 PXE      0.043367
     23 HAMA        2.4790    1.2830    5.9720 hc        1 PXE      0.043367
     24 HAMB        1.1590    2.1700    5.0950 hc        1 PXE      0.043367
     25 HAD         0.1040    0.0040    2.3770 ha        1 PXE      0.152000
     26 HAG         5.1180   -0.0140    2.3600 ha        1 PXE      0.156000
@<TRIPOS>BOND
     1    1    2 1   
     2    1   14 1   
     3    2    3 2   
     4    3    4 1   
     5    3    8 1   
     6    4    5 2   
     7    4   25 1   
     8    5    6 1   
     9    5   11 1   
    10    6    7 1   
    11    6    9 2   
    12    7    8 2   
    13    7   26 1   
    14    8   10 1   
    15   10   15 1   
    16   10   16 1   
    17   10   17 1   
    18   11   12 1   
    19   11   13 1   
    20   11   18 1   
    21   12   19 1   
    22   12   20 1   
    23   12   21 1   
    24   13   22 1   
    25   13   23 1   
    26   13   24 1   
@<TRIPOS>SUBSTRUCTURE
     1 PXE         1 TEMP              0 ****  ****    0 ROOT
