@<TRIPOS>MOLECULE
PXF
   35    37     1     0     0
SMALL
bcc


@<TRIPOS>ATOM
      1 C1         -0.0110    0.0090    0.0020 cc        1 PXF     -0.142000
      2 C          -0.8150   -0.0430   -1.2630 c         1 PXF      0.574100
      3 O          -0.2550    0.0400   -2.3590 o         1 PXF     -0.534100
      4 C2          1.3520    0.0400    0.0210 cd        1 PXF     -0.113200
      5 N2          2.1390    0.0410   -1.2130 n4        1 PXF     -0.709400
      6 C3          2.1680    0.0730    1.2850 c         1 PXF      0.590500
      7 O3          3.4030    0.1270    1.1970 o         1 PXF     -0.523100
      8 C4          1.4230    0.0410    2.5320 cd        1 PXF     -0.194400
      9 O5         -0.5890   -0.0080    3.7270 os        1 PXF     -0.342800
     10 C6         -2.5990   -0.0270    4.9840 ca        1 PXF     -0.094600
     11 C7         -3.9850   -0.0250    5.0200 ca        1 PXF     -0.101000
     12 C8         -4.7480   -0.0140    3.8230 ca        1 PXF      0.162900
     13 F8         -6.0960   -0.0130    3.9240 f         1 PXF     -0.104900
     14 C9         -4.1350   -0.0120    2.5620 ca        1 PXF     -0.213900
     15 C'         -4.9810   -0.0130    1.3420 c         1 PXF      0.581500
     16 O'         -4.6490   -0.5220    0.2750 o         1 PXF     -0.486100
     17 N10        -2.0600    0.0270    1.2770 nd        1 PXF     -0.509000
     18 C11        -0.7440    0.0160    1.2730 cc        1 PXF      0.319800
     19 C12         0.0600    0.0120    2.5020 cc        1 PXF      0.218400
     20 C13        -1.9740   -0.0120    3.7150 ca        1 PXF      0.253700
     21 C14        -2.7120    0.0020    2.5040 ca        1 PXF      0.274300
     22 C15         2.1920    0.0340    3.7970 c3        1 PXF     -0.051900
     23 C16        -1.7890   -0.0530    6.2210 c3        1 PXF     -0.066800
     24 H          -1.9190   -0.1640   -1.1650 h4        1 PXF      0.109200
     25 HN21        1.8520    0.8310   -1.8090 hn        1 PXF      0.480467
     26 HN22        1.9650   -0.8260   -1.7390 hn        1 PXF      0.480467
     27 H7         -4.5170   -0.0320    5.9880 ha        1 PXF      0.186000
     28 H'         -5.9700    0.4810    1.4840 h4        1 PXF      0.040200
     29 H151        1.6590    0.6280    4.5810 hc        1 PXF      0.072033
     30 H152        3.2120    0.4670    3.6420 hc        1 PXF      0.072033
     31 H153        2.3050   -1.0160    4.1680 hc        1 PXF      0.072033
     32 H161       -1.3500   -1.0730    6.3650 hc        1 PXF      0.072033
     33 H162       -2.4100    0.1970    7.1170 hc        1 PXF      0.072033
     34 H163       -0.9460    0.6800    6.1500 hc        1 PXF      0.072033
     35 H23         3.1420    0.1160   -0.9740 hn        1 PXF      0.480467
@<TRIPOS>BOND
     1    1    2 1   
     2    1    4 2   
     3    1   18 1   
     4    2    3 2   
     5    2   24 1   
     6    4    5 1   
     7    4    6 1   
     8    5   25 1   
     9    5   26 1   
    10    5   35 1   
    11    6    7 2   
    12    6    8 1   
    13    8   19 2   
    14    8   22 1   
    15    9   19 1   
    16    9   20 1   
    17   10   11 ar  
    18   10   20 ar  
    19   10   23 1   
    20   11   12 ar  
    21   11   27 1   
    22   12   13 1   
    23   12   14 ar  
    24   14   15 1   
    25   14   21 ar  
    26   15   16 2   
    27   15   28 1   
    28   17   18 2   
    29   17   21 1   
    30   18   19 1   
    31   20   21 ar  
    32   22   29 1   
    33   22   30 1   
    34   22   31 1   
    35   23   32 1   
    36   23   33 1   
    37   23   34 1   
@<TRIPOS>SUBSTRUCTURE
     1 PXF         1 TEMP              0 ****  ****    0 ROOT
