@<TRIPOS>MOLECULE
PXF
   34    36     1     0     0
SMALL
bcc


@<TRIPOS>ATOM
      1 C1         -0.0130   -0.1480   -0.0180 cc        1 PXF     -0.454000
      2 C          -0.7920   -0.3190   -1.2460 c         1 PXF      0.602100
      3 O          -0.3000   -0.4540   -2.3770 o         1 PXF     -0.592100
      4 C2          1.3790   -0.0780   -0.0190 cd        1 PXF      0.203800
      5 N2          2.1390   -0.2230   -1.1270 nh        1 PXF     -0.804600
      6 C3          2.1460    0.1700    1.2710 c         1 PXF      0.562500
      7 O3          3.3550    0.4330    1.2320 o         1 PXF     -0.516100
      8 C4          1.3940    0.0840    2.5180 cd        1 PXF     -0.216400
      9 O5         -0.5990   -0.1000    3.7070 os        1 PXF     -0.371800
     10 C6         -2.6040    0.0010    4.9670 ca        1 PXF     -0.086600
     11 C7         -3.9890    0.0900    5.0160 ca        1 PXF     -0.161000
     12 C8         -4.7480    0.1600    3.8260 ca        1 PXF      0.174900
     13 F8         -6.0930    0.2440    3.9290 f         1 PXF     -0.112900
     14 C9         -4.1340    0.1290    2.5610 ca        1 PXF     -0.246900
     15 C'         -4.9370    0.1960    1.3210 c         1 PXF      0.584500
     16 O'         -6.0050    0.8040    1.2490 o         1 PXF     -0.507100
     17 N10        -2.0720   -0.0160    1.2520 nd        1 PXF     -0.666000
     18 C11        -0.7580   -0.0560    1.2340 cc        1 PXF      0.472800
     19 C12         0.0400   -0.0240    2.4800 cc        1 PXF      0.202400
     20 C13        -1.9880   -0.0200    3.7000 ca        1 PXF      0.193700
     21 C14        -2.7200    0.0310    2.4930 ca        1 PXF      0.331300
     22 C15         2.1540    0.1240    3.7880 c3        1 PXF     -0.043900
     23 C16        -1.7900   -0.0750    6.2000 c3        1 PXF     -0.057800
     24 H          -1.9000   -0.3230   -1.1320 h4        1 PXF      0.031200
     25 HN21        3.1230   -0.0980   -1.0600 hn        1 PXF      0.467300
     26 HN22        1.7230   -0.3630   -2.0230 hn        1 PXF      0.467300
     27 H7         -4.5110    0.1140    5.9850 ha        1 PXF      0.163000
     28 H'         -4.5150   -0.3500    0.4470 h4        1 PXF      0.029200
     29 H151        3.1250    0.6620    3.6480 hc        1 PXF      0.057700
     30 H152        2.3720   -0.9180    4.1340 hc        1 PXF      0.057700
     31 H153        1.5600    0.6390    4.5840 hc        1 PXF      0.057700
     32 H161       -1.4260   -1.1230    6.3490 hc        1 PXF      0.059033
     33 H162       -0.8950    0.5920    6.1150 hc        1 PXF      0.059033
     34 H163       -2.3840    0.2280    7.0970 hc        1 PXF      0.059033
@<TRIPOS>BOND
     1    1    2 1   
     2    1    4 2   
     3    1   18 1   
     4    2    3 2   
     5    2   24 1   
     6    4    5 1   
     7    4    6 1   
     8    5   25 1   
     9    5   26 1   
    10    6    7 2   
    11    6    8 1   
    12    8   19 2   
    13    8   22 1   
    14    9   19 1   
    15    9   20 1   
    16   10   11 ar  
    17   10   20 ar  
    18   10   23 1   
    19   11   12 ar  
    20   11   27 1   
    21   12   13 1   
    22   12   14 ar  
    23   14   15 1   
    24   14   21 ar  
    25   15   16 2   
    26   15   28 1   
    27   17   18 2   
    28   17   21 1   
    29   18   19 1   
    30   20   21 ar  
    31   22   29 1   
    32   22   30 1   
    33   22   31 1   
    34   23   32 1   
    35   23   33 1   
    36   23   34 1   
@<TRIPOS>SUBSTRUCTURE
     1 PXF         1 TEMP              0 ****  ****    0 ROOT
