@<TRIPOS>MOLECULE
PXF
   34    36     1     0     0
SMALL
bcc


@<TRIPOS>ATOM
      1 C1         -1.3850    0.0730   -2.1740 cc        1 PXF     -0.418000
      2 C          -2.8410    0.2220   -1.9750 c         1 PXF      0.593100
      3 O          -3.3650    1.1120   -1.3110 o         1 PXF     -0.497100
      4 C2         -0.8540   -0.0130   -3.4430 cd        1 PXF      0.161800
      5 N2         -1.6100    0.1030   -4.5730 nh        1 PXF     -0.840600
      6 C3          0.6340   -0.2040   -3.6460 c         1 PXF      0.573500
      7 O3          1.0820   -0.4560   -4.7730 o         1 PXF     -0.521100
      8 C4          1.4830   -0.0860   -2.4620 cd        1 PXF     -0.217400
      9 O5          1.7840    0.1180   -0.1540 os        1 PXF     -0.371800
     10 C6          2.1310    0.0770    2.1900 ca        1 PXF     -0.091600
     11 C7          1.6220    0.0030    3.4790 ca        1 PXF     -0.155000
     12 C8          0.2290   -0.0950    3.7000 ca        1 PXF      0.168900
     13 F8         -0.2150   -0.1620    4.9760 f         1 PXF     -0.114900
     14 C9         -0.6820   -0.1080    2.6300 ca        1 PXF     -0.237900
     15 C'         -2.1420   -0.1940    2.8640 c         1 PXF      0.584500
     16 O'         -2.6310   -0.8720    3.7670 o         1 PXF     -0.508100
     17 N10        -1.0620   -0.0260    0.2150 nd        1 PXF     -0.627000
     18 C11        -0.5410    0.0230   -0.9890 cc        1 PXF      0.458800
     19 C12         0.9170    0.0220   -1.2310 cc        1 PXF      0.204400
     20 C13         1.2180    0.0540    1.1160 ca        1 PXF      0.201700
     21 C14        -0.1800   -0.0280    1.3060 ca        1 PXF      0.320300
     22 C15         2.9490   -0.0930   -2.6630 c3        1 PXF     -0.043900
     23 C16         3.5850    0.1840    1.9380 c3        1 PXF     -0.056800
     24 H          -3.4560   -0.5570   -2.4850 h4        1 PXF     -0.010800
     25 HN21       -1.1820   -0.0580   -5.4550 hn        1 PXF      0.447300
     26 HN22       -2.5960    0.1580   -4.5180 hn        1 PXF      0.447300
     27 H7          2.3000    0.0150    4.3470 ha        1 PXF      0.163000
     28 H'         -2.7720    0.4030    2.1660 h4        1 PXF      0.040200
     29 H151        3.2150   -0.6410   -3.6010 hc        1 PXF      0.057367
     30 H152        3.3270    0.9580   -2.7490 hc        1 PXF      0.057367
     31 H153        3.4630   -0.5790   -1.7970 hc        1 PXF      0.057367
     32 H161        3.8870   -0.5100    1.1130 hc        1 PXF      0.058700
     33 H162        3.8370    1.2280    1.6190 hc        1 PXF      0.058700
     34 H163        4.1740   -0.0630    2.8540 hc        1 PXF      0.058700
@<TRIPOS>BOND
     1    1    2 1   
     2    1    4 2   
     3    1   18 1   
     4    2    3 2   
     5    2   24 1   
     6    4    5 1   
     7    4    6 1   
     8    5   25 1   
     9    5   26 1   
    10    6    7 2   
    11    6    8 1   
    12    8   19 2   
    13    8   22 1   
    14    9   19 1   
    15    9   20 1   
    16   10   11 ar  
    17   10   20 ar  
    18   10   23 1   
    19   11   12 ar  
    20   11   27 1   
    21   12   13 1   
    22   12   14 ar  
    23   14   15 1   
    24   14   21 ar  
    25   15   16 2   
    26   15   28 1   
    27   17   18 2   
    28   17   21 1   
    29   18   19 1   
    30   20   21 ar  
    31   22   29 1   
    32   22   30 1   
    33   22   31 1   
    34   23   32 1   
    35   23   33 1   
    36   23   34 1   
@<TRIPOS>SUBSTRUCTURE
     1 PXF         1 TEMP              0 ****  ****    0 ROOT
