@<TRIPOS>MOLECULE
PXF
   34    36     1     0     0
SMALL
bcc


@<TRIPOS>ATOM
      1 C1         -0.0000   -0.1240    0.0110 cc        1 PXF     -0.418000
      2 C          -0.7580   -0.3120   -1.2420 c         1 PXF      0.593100
      3 O          -1.5670   -1.2150   -1.4390 o         1 PXF     -0.497100
      4 C2          1.3750   -0.0250   -0.0060 cd        1 PXF      0.161800
      5 N2          2.1150   -0.1640   -1.1450 nv        1 PXF     -0.840600
      6 C3          2.1480    0.2060    1.2740 c         1 PXF      0.573500
      7 O3          3.3580    0.4680    1.2330 o         1 PXF     -0.521100
      8 C4          1.3980    0.1120    2.5260 cd        1 PXF     -0.217400
      9 O5         -0.6000   -0.0810    3.7210 os        1 PXF     -0.371800
     10 C6         -2.6160   -0.0270    4.9660 ca        1 PXF     -0.091600
     11 C7         -4.0020    0.0350    5.0080 ca        1 PXF     -0.155000
     12 C8         -4.7570    0.0970    3.8140 ca        1 PXF      0.168900
     13 F8         -6.1040    0.1530    3.9100 f         1 PXF     -0.114900
     14 C9         -4.1350    0.0830    2.5530 ca        1 PXF     -0.237900
     15 C'         -4.9280    0.1300    1.3040 c         1 PXF      0.584500
     16 O'         -5.9570    0.7960    1.1950 o         1 PXF     -0.508100
     17 N10        -2.0670   -0.0120    1.2510 nd        1 PXF     -0.627000
     18 C11        -0.7550   -0.0490    1.2540 cc        1 PXF      0.458800
     19 C12         0.0440   -0.0090    2.4960 cc        1 PXF      0.204400
     20 C13        -1.9910   -0.0300    3.7030 ca        1 PXF      0.201700
     21 C14        -2.7190    0.0150    2.4930 ca        1 PXF      0.320300
     22 C15         2.1640    0.1580    3.7920 c3        1 PXF     -0.043900
     23 C16        -1.8070   -0.0960    6.2040 c3        1 PXF     -0.056800
     24 H          -0.5400    0.4490   -2.0300 h4        1 PXF     -0.010800
     25 HN21        3.0920    0.0080   -1.1050 hn        1 PXF      0.447300
     26 HN22        1.6740   -0.2460   -2.0260 hn        1 PXF      0.447300
     27 H7         -4.5300    0.0430    5.9740 ha        1 PXF      0.163000
     28 H'         -4.5310   -0.4850    0.4650 h4        1 PXF      0.040200
     29 H151        3.1250    0.7130    3.6500 hc        1 PXF      0.057367
     30 H152        2.4020   -0.8820    4.1310 hc        1 PXF      0.057367
     31 H153        1.5660    0.6590    4.5940 hc        1 PXF      0.057367
     32 H161       -1.4040   -1.1320    6.3350 hc        1 PXF      0.058700
     33 H162       -2.4180    0.1680    7.1010 hc        1 PXF      0.058700
     34 H163       -0.9380    0.6060    6.1370 hc        1 PXF      0.058700
@<TRIPOS>BOND
     1    1    2 1   
     2    1    4 2   
     3    1   18 1   
     4    2    3 2   
     5    2   24 1   
     6    4    5 1   
     7    4    6 1   
     8    5   25 1   
     9    5   26 1   
    10    6    7 2   
    11    6    8 1   
    12    8   19 2   
    13    8   22 1   
    14    9   19 1   
    15    9   20 1   
    16   10   11 ar  
    17   10   20 ar  
    18   10   23 1   
    19   11   12 ar  
    20   11   27 1   
    21   12   13 1   
    22   12   14 ar  
    23   14   15 1   
    24   14   21 ar  
    25   15   16 2   
    26   15   28 1   
    27   17   18 2   
    28   17   21 1   
    29   18   19 1   
    30   20   21 ar  
    31   22   29 1   
    32   22   30 1   
    33   22   31 1   
    34   23   32 1   
    35   23   33 1   
    36   23   34 1   
@<TRIPOS>SUBSTRUCTURE
     1 PXF         1 TEMP              0 ****  ****    0 ROOT
