@<TRIPOS>MOLECULE
PXG
   39    39     1     0     0
SMALL
bcc


@<TRIPOS>ATOM
      1 N1          0.3950    1.1490    0.4830 n2        1 PXG     -0.275000
      2 C2          1.6030    0.3180    0.5530 c3        1 PXG     -0.056000
      3 C2A         1.5790   -0.8520   -0.4330 c3        1 PXG     -0.191000
      4 C3          1.9230   -0.2180    1.9330 c2        1 PXG     -0.041000
      5 O3          3.2350   -0.6250    2.1500 oh        1 PXG     -0.301000
      6 C5         -0.2960    0.3290    2.6800 c2        1 PXG     -0.171000
      7 C6         -0.4370    1.1340    1.4480 c1        1 PXG     -0.334000
      8 C5A        -1.3750    0.1800    3.4810 c2        1 PXG      0.032000
      9 OP4        -2.6020    0.7430    3.2330 oh        1 PXG     -0.354000
     10 P          -4.7970    1.1020    3.9480 p3        1 PXG      2.432000
     11 OP1        -4.7180    1.9660    2.7530 o         1 PXG     -1.146667
     12 OP2        -5.4150   -0.2370    3.8480 o         1 PXG     -1.146667
     13 OP3        -4.6090    1.6850    5.2940 o         1 PXG     -1.146667
     14 C4          1.0260   -0.2410    2.9540 c2        1 PXG     -0.112000
     15 C4A         1.3740   -0.6800    4.3480 c3        1 PXG     -0.005000
     16 C8          5.0780   -3.2070    6.4800 c2        1 PXG     -0.079000
     17 O2          6.6950   -4.7580    7.3240 o         1 PXG     -0.584500
     18 C9          4.3970   -2.7690    5.2060 c3        1 PXG     -0.119000
     19 C10         3.1420   -1.9340    5.4930 c2        1 PXG      0.053000
     20 C11         2.9510   -1.3170    6.7130 c2        1 PXG     -0.277000
     21 C12         4.0860   -1.2820    7.6200 c2        1 PXG     -0.109000
     22 C13         4.9190   -2.3080    7.4430 c1        1 PXG     -0.208000
     23 O8          5.3260   -5.4520    5.7190 o         1 PXG     -0.584500
     24 N9          2.2070   -1.8650    4.4600 n3        1 PXG     -0.270000
     25 H2A1        0.7500   -1.5550   -0.1850 hc        1 PXG      0.048333
     26 H2A2        1.4290   -0.4770   -1.4730 hc        1 PXG      0.048333
     27 H2A3        2.5440   -1.4150   -0.3960 hc        1 PXG      0.048333
     28 HO3         3.6620   -0.6590    1.2850 ho        1 PXG      0.193000
     29 H6          2.4710    0.9850    0.2550 h1        1 PXG      0.038000
     30 H5A1       -2.5610    1.3150    2.4350 ho        1 PXG      0.299000
     31 H5A2       -1.4290   -0.4090    4.4100 h4        1 PXG      0.125000
     32 H4A1        0.4300   -0.9100    4.9220 h1        1 PXG      0.079000
     33 H4A2        1.8680    0.1990    4.8640 h1        1 PXG      0.079000
     34 H9          4.1170   -3.7290    4.6860 hc        1 PXG      0.117500
     35 H11         5.0590   -2.1780    4.5230 hc        1 PXG      0.117500
     36 H12         2.0370   -0.7710    6.9640 ha        1 PXG      0.122000
     37 H13         4.2450   -0.4180    8.2680 ha        1 PXG      0.108000
     38 HN9         2.5680   -2.1780    3.5800 hn        1 PXG      0.201000
     39 C7          5.7350   -4.5600    6.5230 c2        1 PXG      0.366000
@<TRIPOS>BOND
     1    1    2 1   
     2    1    7 1   
     3    2    3 1   
     4    2    4 1   
     5    2   29 1   
     6    3   25 1   
     7    3   26 1   
     8    3   27 1   
     9    4    5 1   
    10    4   14 1   
    11    5   28 1   
    12    6    7 1   
    13    6    8 1   
    14    6   14 1   
    15    8    9 1   
    16    8   31 1   
    17    9   30 1   
    18   10   11 1   
    19   10   12 1   
    20   10   13 1   
    21   14   15 1   
    22   15   24 1   
    23   15   32 1   
    24   15   33 1   
    25   16   18 1   
    26   16   22 1   
    27   16   39 1   
    28   17   39 1   
    29   18   19 1   
    30   18   34 1   
    31   18   35 1   
    32   19   20 1   
    33   19   24 1   
    34   20   21 1   
    35   20   36 1   
    36   21   22 1   
    37   21   37 1   
    38   23   39 1   
    39   24   38 1   
@<TRIPOS>SUBSTRUCTURE
     1 PXG         1 TEMP              0 ****  ****    0 ROOT
