@<TRIPOS>MOLECULE
PXG
   39    40     1     0     0
SMALL
bcc


@<TRIPOS>ATOM
      1 N1          2.2500    0.6470    3.6040 nb        1 PXG     -0.675000
      2 C2          3.0510    0.4820    2.5130 ca        1 PXG      0.306600
      3 C2A         4.5170    0.7360    2.6240 c3        1 PXG     -0.107400
      4 C3          2.5330    0.0450    1.2740 ca        1 PXG     -0.002200
      5 O3          3.4650   -0.1600    0.2760 oh        1 PXG     -0.541100
      6 C5          0.3280    0.0100    2.2400 ca        1 PXG     -0.136600
      7 C6          0.9470    0.4070    3.4670 ca        1 PXG      0.373200
      8 C5A        -1.1690   -0.2060    2.2660 c3        1 PXG      0.240700
      9 OP4        -1.8060    0.5640    3.2020 os        1 PXG     -0.561200
     10 P          -2.3920   -0.2580    4.6210 p5        1 PXG      1.314900
     11 OP1        -1.1770   -0.1140    5.5070 o         1 PXG     -0.921833
     12 OP2        -3.5990    0.5450    5.0050 o         1 PXG     -0.921833
     13 OP3        -2.6460   -1.6480    4.1020 o         1 PXG     -0.921833
     14 C4          1.1430   -0.1910    1.1250 ca        1 PXG     -0.173300
     15 C4A         0.6110   -0.7350   -0.1710 c3        1 PXG      0.225100
     16 C8          0.4900    0.0430   -5.0160 ca        1 PXG     -0.105600
     17 O2          0.5610    0.4560   -7.3760 o         1 PXG     -0.850300
     18 C9          0.7340    0.4940   -3.7220 ca        1 PXG     -0.150000
     19 C10         0.5180   -0.3480   -2.5990 ca        1 PXG      0.116600
     20 C11         0.0120   -1.6440   -2.8270 ca        1 PXG     -0.204000
     21 C12        -0.2350   -2.0830   -4.1280 ca        1 PXG     -0.143000
     22 C13         0.0030   -1.2560   -5.2170 ca        1 PXG     -0.151000
     23 O8          1.1660    2.1150   -6.0260 o         1 PXG     -0.850300
     24 N9          0.9010    0.1050   -1.3190 nh        1 PXG     -0.748600
     25 H2A1        5.0640   -0.2400    2.6430 hc        1 PXG      0.020700
     26 H2A2        4.8640    1.3090    1.7290 hc        1 PXG      0.020700
     27 H2A3        4.7770    1.3080    3.5460 hc        1 PXG      0.020700
     28 HO3         2.9980   -0.2680   -0.5640 ho        1 PXG      0.432000
     29 H6          0.2640    0.4760    4.3810 h4        1 PXG      0.154100
     30 H5A1       -1.5730    0.0650    1.2430 h1        1 PXG      0.022200
     31 H5A2       -1.3570   -1.3080    2.4580 h1        1 PXG      0.022200
     32 H4A1        1.1150   -1.7320   -0.3530 h1        1 PXG      0.045700
     33 H4A2       -0.4950   -0.9370   -0.0720 h1        1 PXG      0.045700
     34 H9          1.1090    1.5220   -3.5950 ha        1 PXG      0.149000
     35 H11        -0.1980   -2.3220   -1.9880 ha        1 PXG      0.120000
     36 H12        -0.6290   -3.0980   -4.2820 ha        1 PXG      0.093000
     37 H13        -0.1820   -1.5920   -6.2480 ha        1 PXG      0.136000
     38 HN9         0.6690    1.0650   -1.1630 hn        1 PXG      0.397800
     39 C7          0.7560    0.9340   -6.2170 c         1 PXG      0.906200
@<TRIPOS>BOND
     1    1    2 ar  
     2    1    7 ar  
     3    2    3 1   
     4    2    4 ar  
     5    3   25 1   
     6    3   26 1   
     7    3   27 1   
     8    4    5 1   
     9    4   14 ar  
    10    5   28 1   
    11    6    7 ar  
    12    6    8 1   
    13    6   14 ar  
    14    7   29 1   
    15    8    9 1   
    16    8   30 1   
    17    8   31 1   
    18    9   10 1   
    19   10   11 1   
    20   10   12 1   
    21   10   13 1   
    22   14   15 1   
    23   15   24 1   
    24   15   32 1   
    25   15   33 1   
    26   16   18 ar  
    27   16   22 ar  
    28   16   39 1   
    29   17   39 1   
    30   18   19 ar  
    31   18   34 1   
    32   19   20 ar  
    33   19   24 1   
    34   20   21 ar  
    35   20   35 1   
    36   21   22 ar  
    37   21   36 1   
    38   22   37 1   
    39   23   39 1   
    40   24   38 1   
@<TRIPOS>SUBSTRUCTURE
     1 PXG         1 TEMP              0 ****  ****    0 ROOT
