@<TRIPOS>MOLECULE
PXG
   39    39     1     0     0
SMALL
bcc


@<TRIPOS>ATOM
      1 N1          0.1520    0.3130    0.2710 n3        1 PXG     -0.196000
      2 C2          1.2760   -0.6600    0.2800 c3        1 PXG      0.122000
      3 C2A         2.3460   -0.3950   -0.6520 c2        1 PXG     -0.871000
      4 C3          1.7840   -0.7920    1.7180 c2        1 PXG      0.057000
      5 O3          3.0720   -1.2400    1.8290 oh        1 PXG     -0.313000
      6 C5         -0.2910    0.0520    2.6170 c2        1 PXG     -0.184000
      7 C6         -0.5710    0.6540    1.3040 c1        1 PXG     -0.200000
      8 C5A        -1.2660    0.0980    3.5570 c2        1 PXG      0.054000
      9 OP4        -2.4990    0.6610    3.3780 oh        1 PXG     -0.345000
     10 P          -4.6200    1.3690    4.1680 p3        1 PXG      2.425000
     11 OP1        -4.4900    1.9200    2.8020 o         1 PXG     -1.140667
     12 OP2        -5.3730    0.1170    4.3860 o         1 PXG     -1.140667
     13 OP3        -4.2840    2.2070    5.3360 o         1 PXG     -1.140667
     14 C4          1.0420   -0.5110    2.8250 c2        1 PXG     -0.212000
     15 C4A         1.6050   -0.6180    4.2080 c3        1 PXG     -0.009000
     16 C8          4.9650   -3.3010    6.6010 c2        1 PXG     -0.184000
     17 O2          5.5040   -5.5150    7.3560 o         1 PXG     -0.583000
     18 C9          4.2560   -2.9910    5.4870 c2        1 PXG     -0.094000
     19 C10         3.4160   -1.7430    5.3930 c3        1 PXG     -0.007000
     20 C11         3.0800   -1.2000    6.7580 c2        1 PXG     -0.098000
     21 C12         3.7950   -1.5660    7.8420 c2        1 PXG     -0.235000
     22 C13         4.9390   -2.4280    7.7350 c1        1 PXG     -0.048000
     23 O8          6.9180   -4.5230    5.9510 o         1 PXG     -0.583000
     24 N9          2.2280   -1.8930    4.5490 n3        1 PXG     -0.275000
     25 H2A1        0.8000   -1.6650    0.0390 h1        1 PXG      0.051000
     26 H2A2        2.4260   -0.9830   -1.5580 ha        1 PXG      0.058500
     27 H2A3        2.9210    0.5220   -0.5880 ha        1 PXG      0.058500
     28 HO3         3.4400   -1.2210    0.9100 ho        1 PXG      0.262000
     29 H6          0.0240    0.7860   -0.5940 hn        1 PXG      0.208000
     30 H5A1       -2.5590    1.1110    2.5050 ho        1 PXG      0.297000
     31 H5A2       -1.1970   -0.3260    4.5720 h4        1 PXG      0.140000
     32 H4A1        0.7890   -0.4630    4.9710 h1        1 PXG      0.057500
     33 H4A2        2.3350    0.2410    4.3350 h1        1 PXG      0.057500
     34 H9          4.3410   -3.5940    4.5700 ha        1 PXG      0.136000
     35 H11         4.1250   -0.9590    4.9430 h1        1 PXG      0.086000
     36 H12         2.2780   -0.4490    6.8010 ha        1 PXG      0.121000
     37 H13         3.5660   -1.1590    8.8380 ha        1 PXG      0.111000
     38 HN9         2.4850   -2.3930    3.7160 hn        1 PXG      0.175000
     39 C7          5.8600   -4.5320    6.6460 c2        1 PXG      0.384000
@<TRIPOS>BOND
     1    1    2 1   
     2    1    7 1   
     3    1   29 1   
     4    2    3 1   
     5    2    4 1   
     6    2   25 1   
     7    3   26 1   
     8    3   27 1   
     9    4    5 1   
    10    4   14 1   
    11    5   28 1   
    12    6    7 1   
    13    6    8 1   
    14    6   14 1   
    15    8    9 1   
    16    8   31 1   
    17    9   30 1   
    18   10   11 1   
    19   10   12 1   
    20   10   13 1   
    21   14   15 1   
    22   15   24 1   
    23   15   32 1   
    24   15   33 1   
    25   16   18 1   
    26   16   22 1   
    27   16   39 1   
    28   17   39 1   
    29   18   19 1   
    30   18   34 1   
    31   19   20 1   
    32   19   24 1   
    33   19   35 1   
    34   20   21 1   
    35   20   36 1   
    36   21   22 1   
    37   21   37 1   
    38   23   39 1   
    39   24   38 1   
@<TRIPOS>SUBSTRUCTURE
     1 PXG         1 TEMP              0 ****  ****    0 ROOT
