@<TRIPOS>MOLECULE
PXG
   39    39     1     0     0
SMALL
bcc


@<TRIPOS>ATOM
      1 N1          0.3910    1.0910    0.4480 n2        1 PXG     -0.274000
      2 C2          1.5880    0.2450    0.5250 c3        1 PXG     -0.056000
      3 C2A         1.5360   -0.9470   -0.4340 c3        1 PXG     -0.191000
      4 C3          1.9140   -0.2650    1.9130 c2        1 PXG     -0.041000
      5 O3          3.2220   -0.6870    2.1250 oh        1 PXG     -0.301000
      6 C5         -0.2890    0.3320    2.6700 c2        1 PXG     -0.171000
      7 C6         -0.4300    1.1110    1.4210 c1        1 PXG     -0.334000
      8 C5A        -1.3610    0.2180    3.4860 c2        1 PXG      0.032000
      9 OP4        -2.5820    0.7930    3.2380 oh        1 PXG     -0.354000
     10 P          -4.7630    1.2040    3.9670 p3        1 PXG      2.432000
     11 OP1        -4.6840    2.0380    2.7520 o         1 PXG     -1.146667
     12 OP2        -5.4020   -0.1280    3.9050 o         1 PXG     -1.146667
     13 OP3        -4.5510    1.8140    5.2970 o         1 PXG     -1.146667
     14 C4          1.0280   -0.2520    2.9430 c2        1 PXG     -0.112000
     15 C4A         1.3830   -0.6650    4.3430 c3        1 PXG     -0.005000
     16 C8          5.0720   -3.1990    6.4940 c2        1 PXG     -0.079000
     17 O2          6.6750   -4.7550    7.3570 o         1 PXG     -0.584500
     18 C9          4.3840   -2.7790    5.2180 c3        1 PXG     -0.119000
     19 C10         3.1450   -1.9190    5.4990 c2        1 PXG      0.053000
     20 C11         2.9760   -1.2720    6.7060 c2        1 PXG     -0.277000
     21 C12         4.1200   -1.2340    7.6010 c2        1 PXG     -0.109000
     22 C13         4.9360   -2.2770    7.4390 c1        1 PXG     -0.208000
     23 O8          5.2790   -5.4640    5.7810 o         1 PXG     -0.584500
     24 N9          2.2000   -1.8590    4.4730 n7        1 PXG     -0.270000
     25 H2A1        0.6990   -1.6320   -0.1620 hc        1 PXG      0.048333
     26 H2A2        1.3810   -0.5940   -1.4810 hc        1 PXG      0.048333
     27 H2A3        2.4940   -1.5240   -0.3940 hc        1 PXG      0.048333
     28 HO3         3.6390   -0.7470    1.2570 ho        1 PXG      0.193000
     29 H6          2.4630    0.8910    0.2030 h1        1 PXG      0.038000
     30 H5A1       -2.5410    1.3470    2.4270 ho        1 PXG      0.299000
     31 H5A2       -1.4130   -0.3490    4.4280 h4        1 PXG      0.125000
     32 H4A1        0.4420   -0.8670    4.9320 h1        1 PXG      0.079000
     33 H4A2        1.8960    0.2180    4.8340 h1        1 PXG      0.079000
     34 H9          4.0850   -3.7470    4.7220 hc        1 PXG      0.117500
     35 H11         5.0480   -2.2130    4.5160 hc        1 PXG      0.117500
     36 H12         2.0720   -0.7080    6.9550 ha        1 PXG      0.122000
     37 H13         4.2980   -0.3590    8.2290 ha        1 PXG      0.108000
     38 HN9         2.5480   -2.1970    3.5970 hn        1 PXG      0.201000
     39 C7          5.7100   -4.5610    6.5610 c2        1 PXG      0.366000
@<TRIPOS>BOND
     1    1    2 1   
     2    1    7 1   
     3    2    3 1   
     4    2    4 1   
     5    2   29 1   
     6    3   25 1   
     7    3   26 1   
     8    3   27 1   
     9    4    5 1   
    10    4   14 1   
    11    5   28 1   
    12    6    7 1   
    13    6    8 1   
    14    6   14 1   
    15    8    9 1   
    16    8   31 1   
    17    9   30 1   
    18   10   11 1   
    19   10   12 1   
    20   10   13 1   
    21   14   15 1   
    22   15   24 1   
    23   15   32 1   
    24   15   33 1   
    25   16   18 1   
    26   16   22 1   
    27   16   39 1   
    28   17   39 1   
    29   18   19 1   
    30   18   34 1   
    31   18   35 1   
    32   19   20 1   
    33   19   24 1   
    34   20   21 1   
    35   20   36 1   
    36   21   22 1   
    37   21   37 1   
    38   23   39 1   
    39   24   38 1   
@<TRIPOS>SUBSTRUCTURE
     1 PXG         1 TEMP              0 ****  ****    0 ROOT
