@<TRIPOS>MOLECULE
PXK
   29    29     1     0     0
SMALL
bcc


@<TRIPOS>ATOM
      1 S1         -0.3550    1.9990    1.1240 s4        1 PXK      1.128000
      2 C2          0.7170    0.8110    0.8590 c2        1 PXK     -0.713000
      3 C3          1.5180    0.5320    2.0570 c2        1 PXK     -0.040000
      4 N4          1.1450    1.2900    3.1980 n2        1 PXK      0.067000
      5 C5          0.1580    2.0660    2.8920 c2        1 PXK     -0.383000
      6 N6          2.4860   -0.4140    1.8340 n2        1 PXK     -0.095000
      7 C7          2.3270   -0.7720    0.5230 c2        1 PXK     -0.009000
      8 C8          1.2540   -0.0730   -0.1470 c2        1 PXK     -0.136000
      9 C9          0.9200   -0.2900   -1.4670 c1        1 PXK     -0.143000
     10 C10         2.5310   -2.4650   -3.1580 c1        1 PXK     -0.206000
     11 C11         3.1450   -3.2840   -3.7810 c1        1 PXK     -0.221000
     12 C12         3.8850   -4.2720   -4.5330 c3        1 PXK      0.060000
     13 C13         4.7310   -5.1200   -3.5840 c3        1 PXK     -0.200000
     14 C14         4.8050   -3.5800   -5.5370 c3        1 PXK     -0.200000
     15 C15         2.9180   -5.1830   -5.2870 c3        1 PXK     -0.200000
     16 H5         -0.3190    2.7710    3.5780 h5        1 PXK      0.210000
     17 H7          2.9720   -1.5250    0.0550 h4        1 PXK      0.191000
     18 H9          1.9790   -1.7270   -2.5990 ha        1 PXK      0.273000
     19 H9A         0.1030    0.2910   -1.9150 ha        1 PXK      0.040000
     20 H13         5.4540   -4.4760   -3.0290 hc        1 PXK      0.074889
     21 H13A        4.0780   -5.6440   -2.8460 hc        1 PXK      0.074889
     22 H13B        5.3020   -5.8830   -4.1650 hc        1 PXK      0.074889
     23 H14         5.3760   -4.3450   -6.1170 hc        1 PXK      0.074889
     24 H14A        5.5280   -2.9170   -5.0060 hc        1 PXK      0.074889
     25 H14B        4.2070   -2.9620   -6.2480 hc        1 PXK      0.074889
     26 H15         2.2960   -4.5860   -5.9950 hc        1 PXK      0.074889
     27 H15A        3.4910   -5.9460   -5.8670 hc        1 PXK      0.074889
     28 H15B        2.2430   -5.7080   -4.5710 hc        1 PXK      0.074889
     29 HS1        -1.4850    1.3500    1.2940 hs        1 PXK     -0.095000
@<TRIPOS>BOND
     1    1    2 1   
     2    1    5 1   
     3    1   29 1   
     4    2    3 1   
     5    2    8 1   
     6    3    4 1   
     7    3    6 1   
     8    4    5 1   
     9    5   16 1   
    10    6    7 1   
    11    7    8 1   
    12    7   17 1   
    13    8    9 1   
    14    9   19 1   
    15   10   11 1   
    16   10   18 1   
    17   11   12 1   
    18   12   13 1   
    19   12   14 1   
    20   12   15 1   
    21   13   20 1   
    22   13   21 1   
    23   13   22 1   
    24   14   23 1   
    25   14   24 1   
    26   14   25 1   
    27   15   26 1   
    28   15   27 1   
    29   15   28 1   
@<TRIPOS>SUBSTRUCTURE
     1 PXK         1 TEMP              0 ****  ****    0 ROOT
