@<TRIPOS>MOLECULE
PXK
   29    29     1     0     0
SMALL
bcc


@<TRIPOS>ATOM
      1 S1         -0.4420    1.8860    1.1850 s4        1 PXK      1.128000
      2 C2          0.7470    0.8380    0.8430 c2        1 PXK     -0.713000
      3 C3          1.7650    0.8130    1.9020 c2        1 PXK     -0.040000
      4 N4          1.4640    1.6370    3.0180 n2        1 PXK      0.067000
      5 C5          0.3310    2.2270    2.8220 c2        1 PXK     -0.383000
      6 N6          2.8210   -0.0070    1.5960 n2        1 PXK     -0.095000
      7 C7          2.5120   -0.5320    0.3710 c2        1 PXK     -0.009000
      8 C8          1.2480   -0.0710   -0.1590 c2        1 PXK     -0.136000
      9 C9          0.7450   -0.4830   -1.3740 c1        1 PXK     -0.143000
     10 C10         2.4070   -2.5890   -3.1040 c1        1 PXK     -0.206000
     11 C11         3.0430   -3.3800   -3.7400 c1        1 PXK     -0.221000
     12 C12         3.8120   -4.3350   -4.5070 c3        1 PXK      0.060000
     13 C13         4.6350   -5.2150   -3.5670 c3        1 PXK     -0.200000
     14 C14         4.7580   -3.5980   -5.4560 c3        1 PXK     -0.200000
     15 C15         2.8740   -5.2200   -5.3260 c3        1 PXK     -0.200000
     16 H5         -0.1340    2.9320    3.5160 h5        1 PXK      0.210000
     17 H7          3.1840   -1.2350   -0.1340 h4        1 PXK      0.191000
     18 H9          1.8330   -1.8770   -2.5320 ha        1 PXK      0.273000
     19 H9A        -0.2130   -0.0780   -1.7220 ha        1 PXK      0.040000
     20 H13         5.3370   -4.5890   -2.9660 hc        1 PXK      0.075000
     21 H13A        3.9640   -5.7700   -2.8710 hc        1 PXK      0.075000
     22 H13B        5.2280   -5.9510   -4.1610 hc        1 PXK      0.075000
     23 H14         5.3500   -4.3360   -6.0470 hc        1 PXK      0.075000
     24 H14A        5.4600   -2.9520   -4.8780 hc        1 PXK      0.075000
     25 H14B        4.1770   -2.9560   -6.1590 hc        1 PXK      0.075000
     26 H15         2.2700   -4.5980   -6.0280 hc        1 PXK      0.075000
     27 H15A        3.4690   -5.9560   -5.9180 hc        1 PXK      0.075000
     28 H15B        2.1810   -5.7760   -4.6520 hc        1 PXK      0.075000
     29 HS1        -1.4130    1.1090    1.6090 hs        1 PXK     -0.095000
@<TRIPOS>BOND
     1    1    2 1   
     2    1    5 1   
     3    1   29 1   
     4    2    3 1   
     5    2    8 1   
     6    3    4 1   
     7    3    6 1   
     8    4    5 1   
     9    5   16 1   
    10    6    7 1   
    11    7    8 1   
    12    7   17 1   
    13    8    9 1   
    14    9   19 1   
    15   10   11 1   
    16   10   18 1   
    17   11   12 1   
    18   12   13 1   
    19   12   14 1   
    20   12   15 1   
    21   13   20 1   
    22   13   21 1   
    23   13   22 1   
    24   14   23 1   
    25   14   24 1   
    26   14   25 1   
    27   15   26 1   
    28   15   27 1   
    29   15   28 1   
@<TRIPOS>SUBSTRUCTURE
     1 PXK         1 TEMP              0 ****  ****    0 ROOT
