@<TRIPOS>MOLECULE
PXK
   29    30     1     0     0
SMALL
bcc


@<TRIPOS>ATOM
      1 S1         -1.0300   -0.5540    1.4080 sx        1 PXK      0.335500
      2 C2         -1.4190    0.4650    0.2100 cc        1 PXK     -0.357800
      3 C3         -2.8800    0.3500   -0.1150 cc        1 PXK      0.174300
      4 N4         -3.5520   -0.6340    0.6210 nf        1 PXK     -0.047600
      5 C5         -2.7150   -1.2220    1.4250 cf        1 PXK     -0.330400
      6 N6         -3.2480    1.2490   -1.0750 nc        1 PXK     -0.551000
      7 C7         -2.0980    1.9270   -1.3910 cd        1 PXK      0.265200
      8 C8         -0.9580    1.4820   -0.6470 cd        1 PXK     -0.064600
      9 C9          0.3980    2.0460   -0.7660 c3        1 PXK      0.055000
     10 C10         1.4510    1.1270   -0.4410 c1        1 PXK     -0.134100
     11 C11         2.3480    0.3760   -0.1860 c1        1 PXK     -0.143100
     12 C12         3.4390   -0.5250    0.1110 c3        1 PXK      0.030100
     13 C13         2.9870   -1.9700   -0.0950 c3        1 PXK     -0.083767
     14 C14         4.6160   -0.2330   -0.8210 c3        1 PXK     -0.083767
     15 C15         3.8900   -0.3400    1.5580 c3        1 PXK     -0.083767
     16 H5         -2.9890   -2.0220    2.1130 h5        1 PXK      0.198000
     17 H7         -2.1080    2.7140   -2.1470 h4        1 PXK      0.028100
     18 H9          0.5510    2.4170   -1.8210 hc        1 PXK      0.075700
     19 H9A         0.4760    2.9470   -0.0870 hc        1 PXK      0.075700
     20 H13         2.6770   -2.1330   -1.1540 hc        1 PXK      0.039589
     21 H13A        3.8270   -2.6650    0.1460 hc        1 PXK      0.039589
     22 H13B        2.1230   -2.2070    0.5710 hc        1 PXK      0.039589
     23 H14         4.9720    0.8140   -0.6770 hc        1 PXK      0.039589
     24 H14A        5.4550   -0.9340   -0.5960 hc        1 PXK      0.039589
     25 H14B        4.3100   -0.3670   -1.8850 hc        1 PXK      0.039589
     26 H15         3.0530   -0.5680    2.2600 hc        1 PXK      0.039589
     27 H15A        4.7410   -1.0280    1.7780 hc        1 PXK      0.039589
     28 H15B        4.2250    0.7110    1.7290 hc        1 PXK      0.039589
     29 HS1        -0.4400   -1.5460    0.7860 hs        1 PXK      0.286000
@<TRIPOS>BOND
     1    1    2 1   
     2    1    5 2   
     3    1   29 1   
     4    2    3 1   
     5    2    8 2   
     6    3    4 2   
     7    3    6 1   
     8    4    5 1   
     9    5   16 1   
    10    6    7 2   
    11    7    8 1   
    12    7   17 1   
    13    8    9 1   
    14    9   10 1   
    15    9   18 1   
    16    9   19 1   
    17   10   11 3   
    18   11   12 1   
    19   12   13 1   
    20   12   14 1   
    21   12   15 1   
    22   13   20 1   
    23   13   21 1   
    24   13   22 1   
    25   14   23 1   
    26   14   24 1   
    27   14   25 1   
    28   15   26 1   
    29   15   27 1   
    30   15   28 1   
@<TRIPOS>SUBSTRUCTURE
     1 PXK         1 TEMP              0 ****  ****    0 ROOT
