@<TRIPOS>MOLECULE
PXK
   29    30     1     0     0
SMALL
bcc


@<TRIPOS>ATOM
      1 S1          0.1910   -0.9070   -0.5240 sx        1 PXK      0.335500
      2 C2          1.6120   -0.2100   -0.1850 cc        1 PXK     -0.358800
      3 C3          1.5550    0.4580    1.1590 cc        1 PXK      0.174300
      4 N4          0.3410    0.2780    1.8340 nf        1 PXK     -0.047600
      5 C5         -0.4560   -0.4490    1.1060 cf        1 PXK     -0.330400
      6 N6          2.7200    1.1130    1.4380 nc        1 PXK     -0.551000
      7 C7          3.5260    0.8930    0.3500 cd        1 PXK      0.266200
      8 C8          2.9050    0.0870   -0.6580 cd        1 PXK     -0.064600
      9 C9          3.5270   -0.2870   -1.9400 c3        1 PXK      0.055000
     10 C10         3.0950   -1.5520   -2.4600 c1        1 PXK     -0.135100
     11 C11         2.7630   -2.6100   -2.9110 c1        1 PXK     -0.141100
     12 C12         2.3780   -3.8920   -3.4600 c3        1 PXK      0.031100
     13 C13         3.1490   -5.0070   -2.7550 c3        1 PXK     -0.084767
     14 C14         2.6970   -3.9310   -4.9540 c3        1 PXK     -0.084767
     15 C15         0.8800   -4.1160   -3.2630 c3        1 PXK     -0.084767
     16 H5         -1.4670   -0.7300    1.4020 h5        1 PXK      0.198000
     17 H7          4.5340    1.3090    0.3130 h4        1 PXK      0.028100
     18 H9          4.6490   -0.3100   -1.8120 hc        1 PXK      0.075200
     19 H9A         3.3010    0.5190   -2.7010 hc        1 PXK      0.075200
     20 H13         4.2470   -4.8660   -2.8920 hc        1 PXK      0.039700
     21 H13A        2.9210   -5.0060   -1.6620 hc        1 PXK      0.039700
     22 H13B        2.8560   -5.9960   -3.1830 hc        1 PXK      0.039700
     23 H14         3.7900   -3.7810   -5.1210 hc        1 PXK      0.039700
     24 H14A        2.1390   -3.1280   -5.4920 hc        1 PXK      0.039700
     25 H14B        2.4000   -4.9210   -5.3760 hc        1 PXK      0.039700
     26 H15         0.2960   -3.3300   -3.7960 hc        1 PXK      0.039700
     27 H15A        0.5930   -5.1150   -3.6710 hc        1 PXK      0.039700
     28 H15B        0.6230   -4.0850   -2.1770 hc        1 PXK      0.039700
     29 HS1         0.4100   -2.1790   -0.2890 hs        1 PXK      0.286000
@<TRIPOS>BOND
     1    1    2 1   
     2    1    5 2   
     3    1   29 1   
     4    2    3 1   
     5    2    8 2   
     6    3    4 2   
     7    3    6 1   
     8    4    5 1   
     9    5   16 1   
    10    6    7 2   
    11    7    8 1   
    12    7   17 1   
    13    8    9 1   
    14    9   10 1   
    15    9   18 1   
    16    9   19 1   
    17   10   11 3   
    18   11   12 1   
    19   12   13 1   
    20   12   14 1   
    21   12   15 1   
    22   13   20 1   
    23   13   21 1   
    24   13   22 1   
    25   14   23 1   
    26   14   24 1   
    27   14   25 1   
    28   15   26 1   
    29   15   27 1   
    30   15   28 1   
@<TRIPOS>SUBSTRUCTURE
     1 PXK         1 TEMP              0 ****  ****    0 ROOT
