@<TRIPOS>MOLECULE
PXL
   21    21     1     0     0
SMALL
bcc


@<TRIPOS>ATOM
      1 OP4         0.0310   -0.0590    0.0000 oh        1 PXL     -0.594800
      2 C5A         1.4490    0.0170    0.0100 c3        1 PXL      0.175700
      3 C5          1.9310    0.0180    1.4230 ca        1 PXL     -0.137600
      4 C6          1.0190   -0.0500    2.4850 ca        1 PXL      0.377200
      5 N1          1.3730   -0.0530    3.7880 nb        1 PXL     -0.621000
      6 C2          2.6770    0.0110    4.0960 ca        1 PXL      0.385600
      7 C3          3.6880    0.0840    3.0730 ca        1 PXL      0.082800
      8 C4          3.3130    0.0870    1.7180 ca        1 PXL     -0.251600
      9 C4A         4.2950    0.1590    0.6310 c         1 PXL      0.585500
     10 O4A         5.5180    0.2210    0.8060 o         1 PXL     -0.552100
     11 O3          4.9650    0.1440    3.5440 oh        1 PXL     -0.490100
     12 C2A         3.1300    0.0110    5.5180 c3        1 PXL     -0.141400
     13 HP4        -0.2320   -0.0570   -0.9280 ho        1 PXL      0.410000
     14 H5A1        1.7760    0.9630   -0.5070 h1        1 PXL      0.036700
     15 H5A2        1.8750   -0.8690   -0.5390 h1        1 PXL      0.036700
     16 H6         -0.0700   -0.1040    2.2880 h4        1 PXL      0.051100
     17 H4A         3.8780    0.1550   -0.4020 h4        1 PXL      0.008200
     18 HO3         5.5970    0.1910    2.8060 ho        1 PXL      0.459000
     19 H2A1        3.7110    0.9470    5.7150 hc        1 PXL      0.060033
     20 H2A2        3.8110   -0.8620    5.6820 hc        1 PXL      0.060033
     21 H2A3        2.2770   -0.0490    6.2350 hc        1 PXL      0.060033
@<TRIPOS>BOND
     1    1    2 1   
     2    1   13 1   
     3    2    3 1   
     4    2   14 1   
     5    2   15 1   
     6    3    4 ar  
     7    3    8 ar  
     8    4    5 ar  
     9    4   16 1   
    10    5    6 ar  
    11    6    7 ar  
    12    6   12 1   
    13    7    8 ar  
    14    7   11 1   
    15    8    9 1   
    16    9   10 2   
    17    9   17 1   
    18   11   18 1   
    19   12   19 1   
    20   12   20 1   
    21   12   21 1   
@<TRIPOS>SUBSTRUCTURE
     1 PXL         1 TEMP              0 ****  ****    0 ROOT
