@<TRIPOS>MOLECULE
PXL
   21    21     1     0     0
SMALL
bcc


@<TRIPOS>ATOM
      1 OP4         0.6380    0.0060   -3.4850 oh        1 PXL     -0.594800
      2 C5A        -0.4170   -0.0270   -2.5360 c3        1 PXL      0.175700
      3 C5          0.1600   -0.0280   -1.1600 ca        1 PXL     -0.137600
      4 C6          1.5490    0.0000   -0.9710 ca        1 PXL      0.377200
      5 N1          2.1480    0.0010    0.2390 nb        1 PXL     -0.621000
      6 C2          1.3760   -0.0260    1.3350 ca        1 PXL      0.385600
      7 C3         -0.0610   -0.0570    1.2410 ca        1 PXL      0.082800
      8 C4         -0.6790   -0.0580   -0.0210 ca        1 PXL     -0.251600
      9 C4A        -2.1370   -0.0880   -0.1820 c         1 PXL      0.585500
     10 O4A        -2.9370   -0.1150    0.7610 o         1 PXL     -0.552100
     11 O3         -0.7050   -0.0830    2.4420 oh        1 PXL     -0.490100
     12 C2A         1.9800   -0.0270    2.7000 c3        1 PXL     -0.141400
     13 HP4         0.2200    0.0050   -4.3540 ho        1 PXL      0.410000
     14 H5A1       -1.0330   -0.9560   -2.6940 h1        1 PXL      0.036700
     15 H5A2       -1.0730    0.8780   -2.6750 h1        1 PXL      0.036700
     16 H6          2.2330    0.0240   -1.8410 h4        1 PXL      0.051100
     17 H4A        -2.5110   -0.0850   -1.2320 h4        1 PXL      0.008200
     18 HO3        -1.6680   -0.1020    2.3100 ho        1 PXL      0.459000
     19 H2A1        1.6080    0.8650    3.2620 hc        1 PXL      0.060033
     20 H2A2        1.6470   -0.9460    3.2440 hc        1 PXL      0.060033
     21 H2A3        3.0960   -0.0030    2.6700 hc        1 PXL      0.060033
@<TRIPOS>BOND
     1    1    2 1   
     2    1   13 1   
     3    2    3 1   
     4    2   14 1   
     5    2   15 1   
     6    3    4 ar  
     7    3    8 ar  
     8    4    5 ar  
     9    4   16 1   
    10    5    6 ar  
    11    6    7 ar  
    12    6   12 1   
    13    7    8 ar  
    14    7   11 1   
    15    8    9 1   
    16    9   10 2   
    17    9   17 1   
    18   11   18 1   
    19   12   19 1   
    20   12   20 1   
    21   12   21 1   
@<TRIPOS>SUBSTRUCTURE
     1 PXL         1 TEMP              0 ****  ****    0 ROOT
