@<TRIPOS>MOLECULE
PXL
   21    21     1     0     0
SMALL
bcc


@<TRIPOS>ATOM
      1 OP4         0.0370   -0.0730   -0.0060 oh        1 PXL     -0.594800
      2 C5A         1.4550    0.0080    0.0070 c3        1 PXL      0.175700
      3 C5          1.9330    0.0140    1.4220 ca        1 PXL     -0.137600
      4 C6          1.0180   -0.0550    2.4820 ca        1 PXL      0.377200
      5 N1          1.3700   -0.0550    3.7850 nb        1 PXL     -0.621000
      6 C2          2.6730    0.0150    4.0960 ca        1 PXL      0.385600
      7 C3          3.6860    0.0890    3.0750 ca        1 PXL      0.082800
      8 C4          3.3140    0.0880    1.7200 ca        1 PXL     -0.251600
      9 C4A         4.2980    0.1620    0.6340 c         1 PXL      0.585500
     10 O4A         5.5200    0.2290    0.8120 o         1 PXL     -0.552100
     11 O3          4.9620    0.1550    3.5490 oh        1 PXL     -0.490100
     12 C2A         3.1230    0.0190    5.5190 c3        1 PXL     -0.141400
     13 HP4        -0.2250   -0.0740   -0.9340 ho        1 PXL      0.410000
     14 H5A1        1.7800    0.9540   -0.5110 h1        1 PXL      0.036700
     15 H5A2        1.8850   -0.8780   -0.5390 h1        1 PXL      0.036700
     16 H6         -0.0690   -0.1150    2.2830 h4        1 PXL      0.051100
     17 H4A         3.8840    0.1540   -0.4000 h4        1 PXL      0.008200
     18 HO3         5.5950    0.2030    2.8130 ho        1 PXL      0.459000
     19 H2A1        3.7010    0.9570    5.7150 hc        1 PXL      0.060033
     20 H2A2        3.8050   -0.8520    5.6870 hc        1 PXL      0.060033
     21 H2A3        2.2680   -0.0410    6.2350 hc        1 PXL      0.060033
@<TRIPOS>BOND
     1    1    2 1   
     2    1   13 1   
     3    2    3 1   
     4    2   14 1   
     5    2   15 1   
     6    3    4 ar  
     7    3    8 ar  
     8    4    5 ar  
     9    4   16 1   
    10    5    6 ar  
    11    6    7 ar  
    12    6   12 1   
    13    7    8 ar  
    14    7   11 1   
    15    8    9 1   
    16    9   10 2   
    17    9   17 1   
    18   11   18 1   
    19   12   19 1   
    20   12   20 1   
    21   12   21 1   
@<TRIPOS>SUBSTRUCTURE
     1 PXL         1 TEMP              0 ****  ****    0 ROOT
