@<TRIPOS>MOLECULE
PXM
   24    24     1     0     0
SMALL
bcc


@<TRIPOS>ATOM
      1 N1          2.0140   -0.1640    0.8110 nb        1 PXM     -0.643000
      2 C2          0.9800   -0.1190    1.6750 ca        1 PXM      0.393600
      3 C2A         1.2120   -0.2330    3.1450 c3        1 PXM     -0.139400
      4 C3         -0.3630    0.0460    1.2160 ca        1 PXM      0.027800
      5 O3         -1.3220    0.0930    2.1960 oh        1 PXM     -0.496100
      6 C4         -0.6270    0.1820   -0.1570 ca        1 PXM     -0.136300
      7 C5          0.4630    0.1200   -1.0410 ca        1 PXM     -0.174600
      8 C5A         0.2680    0.2420   -2.5150 c3        1 PXM      0.183700
      9 O5          1.4960   -0.0310   -3.1750 oh        1 PXM     -0.595800
     10 C6          1.7530   -0.0520   -0.5030 ca        1 PXM      0.391200
     11 C4A        -2.0300    0.4120   -0.6390 c3        1 PXM      0.196100
     12 N4         -2.8840   -0.7450   -0.4810 n3        1 PXM     -0.928800
     13 H2A1        0.9640    0.7450    3.6290 hc        1 PXM      0.056700
     14 H2A2        0.5270   -1.0130    3.5630 hc        1 PXM      0.056700
     15 H2A3        2.2680   -0.5020    3.3880 hc        1 PXM      0.056700
     16 HO3        -2.1950   -0.0220    1.7900 ho        1 PXM      0.442000
     17 H5A1       -0.0730    1.2850   -2.7690 h1        1 PXM      0.030700
     18 H5A2       -0.5120   -0.4920   -2.8640 h1        1 PXM      0.030700
     19 HO5         1.3320    0.1100   -4.1150 ho        1 PXM      0.406000
     20 H6          2.6320   -0.1050   -1.1730 h4        1 PXM      0.045100
     21 H4A1       -2.0010    0.7840   -1.7060 h1        1 PXM      0.038200
     22 H4A2       -2.4860    1.2480   -0.0270 h1        1 PXM      0.038200
     23 HN41       -3.7480   -0.6100   -0.9660 hn        1 PXM      0.359800
     24 HN42       -2.4390   -1.5760   -0.8140 hn        1 PXM      0.359800
@<TRIPOS>BOND
     1    1    2 ar  
     2    1   10 ar  
     3    2    3 1   
     4    2    4 ar  
     5    3   13 1   
     6    3   14 1   
     7    3   15 1   
     8    4    5 1   
     9    4    6 ar  
    10    5   16 1   
    11    6    7 ar  
    12    6   11 1   
    13    7    8 1   
    14    7   10 ar  
    15    8    9 1   
    16    8   17 1   
    17    8   18 1   
    18    9   19 1   
    19   10   20 1   
    20   11   12 1   
    21   11   21 1   
    22   11   22 1   
    23   12   23 1   
    24   12   24 1   
@<TRIPOS>SUBSTRUCTURE
     1 PXM         1 TEMP              0 ****  ****    0 ROOT
