@<TRIPOS>MOLECULE
PXM
   25    25     1     0     0
SMALL
bcc


@<TRIPOS>ATOM
      1 N1         -0.0300    0.1510   -0.0220 nb        1 PXM     -0.594000
      2 C2          1.3180    0.0700    0.0600 ca        1 PXM      0.386600
      3 C2A         2.1420    0.0910   -1.1850 c3        1 PXM     -0.170400
      4 C3          1.9640   -0.0310    1.3210 ca        1 PXM      0.001800
      5 O3          3.3260   -0.1700    1.4700 oh        1 PXM     -0.551100
      6 C4          1.2050   -0.0320    2.5120 ca        1 PXM     -0.169300
      7 C5         -0.1890    0.0510    2.4070 ca        1 PXM     -0.146600
      8 C5A        -1.0820    0.0770    3.6040 c3        1 PXM      0.177700
      9 O5         -2.3960   -0.2590    3.1950 oh        1 PXM     -0.585800
     10 C6         -0.7480    0.1380    1.1090 ca        1 PXM      0.422200
     11 C4A         1.9230   -0.0660    3.8170 c3        1 PXM      0.181100
     12 N4          2.6720   -1.3520    3.9970 n4        1 PXM     -0.841600
     13 H2A1        2.7910    1.0030   -1.1920 hc        1 PXM      0.073367
     14 H2A2        2.7870   -0.8220   -1.2280 hc        1 PXM      0.073367
     15 H2A3        1.5050    0.1120   -2.1060 hc        1 PXM      0.073367
     16 HO3         3.7590    0.0770    0.6360 ho        1 PXM      0.467000
     17 H5A1       -1.0540    1.1020    4.0690 h1        1 PXM      0.037200
     18 H5A2       -0.7450   -0.6800    4.3670 h1        1 PXM      0.037200
     19 HO5        -3.0010    0.1010    3.8560 ho        1 PXM      0.429000
     20 H6         -1.8500    0.1930    0.9860 h4        1 PXM      0.075100
     21 H4A1        1.2160    0.0480    4.6890 hx        1 PXM      0.115700
     22 H4A2        2.6860    0.7690    3.8470 hx        1 PXM      0.115700
     23 HN41        3.3570   -1.4530    3.2340 hn        1 PXM      0.464133
     24 HN42        2.0260   -2.1460    3.9590 hn        1 PXM      0.464133
     25 H43         3.1620   -1.3530    4.8940 hn        1 PXM      0.464133
@<TRIPOS>BOND
     1    1    2 ar  
     2    1   10 ar  
     3    2    3 1   
     4    2    4 ar  
     5    3   13 1   
     6    3   14 1   
     7    3   15 1   
     8    4    5 1   
     9    4    6 ar  
    10    5   16 1   
    11    6    7 ar  
    12    6   11 1   
    13    7    8 1   
    14    7   10 ar  
    15    8    9 1   
    16    8   17 1   
    17    8   18 1   
    18    9   19 1   
    19   10   20 1   
    20   11   12 1   
    21   11   21 1   
    22   11   22 1   
    23   12   23 1   
    24   12   24 1   
    25   12   25 1   
@<TRIPOS>SUBSTRUCTURE
     1 PXM         1 TEMP              0 ****  ****    0 ROOT
