@<TRIPOS>MOLECULE
PXM
   25    25     1     0     0
SMALL
bcc


@<TRIPOS>ATOM
      1 N1         -0.0220    0.1410   -0.0270 nb        1 PXM     -0.594000
      2 C2          1.3250    0.0560    0.0590 ca        1 PXM      0.386600
      3 C2A         2.1530    0.0660   -1.1830 c3        1 PXM     -0.170400
      4 C3          1.9660   -0.0390    1.3240 ca        1 PXM      0.001800
      5 O3          3.3280   -0.1810    1.4780 oh        1 PXM     -0.551100
      6 C4          1.2040   -0.0300    2.5120 ca        1 PXM     -0.169300
      7 C5         -0.1890    0.0570    2.4020 ca        1 PXM     -0.146600
      8 C5A        -1.0860    0.0950    3.5970 c3        1 PXM      0.177700
      9 O5         -2.4000   -0.2370    3.1850 oh        1 PXM     -0.585800
     10 C6         -0.7440    0.1380    1.1020 ca        1 PXM      0.422200
     11 C4A         1.9170   -0.0570    3.8200 c3        1 PXM      0.181100
     12 N4          2.6620   -1.3450    4.0100 n4        1 PXM     -0.841600
     13 H2A1        2.7950   -0.8500   -1.2170 hc        1 PXM      0.073367
     14 H2A2        1.5200    0.0830   -2.1060 hc        1 PXM      0.073367
     15 H2A3        2.8050    0.9760   -1.1930 hc        1 PXM      0.073367
     16 HO3         3.7640    0.0580    0.6440 ho        1 PXM      0.467000
     17 H5A1       -0.7540   -0.6590    4.3650 h1        1 PXM      0.037200
     18 H5A2       -1.0540    1.1230    4.0550 h1        1 PXM      0.037200
     19 HO5        -3.0050    0.1300    3.8430 ho        1 PXM      0.429000
     20 H6         -1.8460    0.1970    0.9750 h4        1 PXM      0.075100
     21 H4A1        2.6830    0.7750    3.8470 hx        1 PXM      0.115700
     22 H4A2        1.2090    0.0640    4.6880 hx        1 PXM      0.115700
     23 HN41        3.1490   -1.3410    4.9090 hn        1 PXM      0.464133
     24 HN42        3.3500   -1.4520    3.2500 hn        1 PXM      0.464133
     25 H43         2.0130   -2.1360    3.9760 hn        1 PXM      0.464133
@<TRIPOS>BOND
     1    1    2 ar  
     2    1   10 ar  
     3    2    3 1   
     4    2    4 ar  
     5    3   13 1   
     6    3   14 1   
     7    3   15 1   
     8    4    5 1   
     9    4    6 ar  
    10    5   16 1   
    11    6    7 ar  
    12    6   11 1   
    13    7    8 1   
    14    7   10 ar  
    15    8    9 1   
    16    8   17 1   
    17    8   18 1   
    18    9   19 1   
    19   10   20 1   
    20   11   12 1   
    21   11   21 1   
    22   11   22 1   
    23   12   23 1   
    24   12   24 1   
    25   12   25 1   
@<TRIPOS>SUBSTRUCTURE
     1 PXM         1 TEMP              0 ****  ****    0 ROOT
