@<TRIPOS>MOLECULE
PXM
   25    25     1     0     0
SMALL
bcc


@<TRIPOS>ATOM
      1 N1         -0.0290    0.1540   -0.0210 nb        1 PXM     -0.594000
      2 C2          1.3180    0.0690    0.0600 ca        1 PXM      0.386600
      3 C2A         2.1420    0.0890   -1.1850 c3        1 PXM     -0.170400
      4 C3          1.9640   -0.0330    1.3220 ca        1 PXM      0.001800
      5 O3          3.3260   -0.1740    1.4710 oh        1 PXM     -0.551100
      6 C4          1.2060   -0.0320    2.5130 ca        1 PXM     -0.169300
      7 C5         -0.1890    0.0540    2.4080 ca        1 PXM     -0.146600
      8 C5A        -1.0820    0.0830    3.6050 c3        1 PXM      0.177700
      9 O5         -2.3960   -0.2480    3.1960 oh        1 PXM     -0.585800
     10 C6         -0.7470    0.1420    1.1100 ca        1 PXM      0.422200
     11 C4A         1.9230   -0.0680    3.8180 c3        1 PXM      0.181100
     12 N4          2.6700   -1.3550    3.9970 nz        1 PXM     -0.841600
     13 H2A1        2.7850   -0.8260   -1.2270 hc        1 PXM      0.073367
     14 H2A2        1.5050    0.1110   -2.1060 hc        1 PXM      0.073367
     15 H2A3        2.7930    1.0000   -1.1910 hc        1 PXM      0.073367
     16 HO3         3.7590    0.0710    0.6360 ho        1 PXM      0.467000
     17 H5A1       -0.7460   -0.6760    4.3680 h1        1 PXM      0.037200
     18 H5A2       -1.0500    1.1070    4.0700 h1        1 PXM      0.037200
     19 HO5        -3.0000    0.1120    3.8580 ho        1 PXM      0.429000
     20 H6         -1.8500    0.2000    0.9870 h4        1 PXM      0.075100
     21 H4A1        2.6880    0.7660    3.8480 hx        1 PXM      0.115700
     22 H4A2        1.2170    0.0480    4.6890 hx        1 PXM      0.115700
     23 HN41        3.1600   -1.3570    4.8950 hn        1 PXM      0.464133
     24 HN42        3.3550   -1.4570    3.2340 hn        1 PXM      0.464133
     25 H43         2.0220   -2.1470    3.9600 hn        1 PXM      0.464133
@<TRIPOS>BOND
     1    1    2 ar  
     2    1   10 ar  
     3    2    3 1   
     4    2    4 ar  
     5    3   13 1   
     6    3   14 1   
     7    3   15 1   
     8    4    5 1   
     9    4    6 ar  
    10    5   16 1   
    11    6    7 ar  
    12    6   11 1   
    13    7    8 1   
    14    7   10 ar  
    15    8    9 1   
    16    8   17 1   
    17    8   18 1   
    18    9   19 1   
    19   10   20 1   
    20   11   12 1   
    21   11   21 1   
    22   11   22 1   
    23   12   23 1   
    24   12   24 1   
    25   12   25 1   
@<TRIPOS>SUBSTRUCTURE
     1 PXM         1 TEMP              0 ****  ****    0 ROOT
