@<TRIPOS>MOLECULE
PXN
   61    60     1     0     0
SMALL
bcc


@<TRIPOS>ATOM
      1 CAA         1.1930    0.9140   -0.9830 c3        1 PXN     -0.128600
      2 CAB        10.3640   -3.5400   -1.3770 c3        1 PXN     -0.128600
      3 CAC         3.9860   -2.4300   -1.3560 c3        1 PXN      0.140900
      4 OAD         3.3590   -1.2930   -0.7640 os        1 PXN     -0.434850
      5 CAE         1.9470   -1.4690   -0.6530 c3        1 PXN      0.114400
      6 CAF         1.4110   -0.2010    0.0210 c3        1 PXN      0.140850
      7 OAG         0.1910   -0.5930    0.6440 oh        1 PXN     -0.601300
      8 OAH         9.8670   -2.5330   -3.5220 oh        1 PXN     -0.601300
      9 CAI         9.7630   -3.7210   -2.7580 c3        1 PXN      0.140850
     10 CAJ         8.3030   -4.1810   -2.6720 c3        1 PXN      0.114400
     11 OAK         7.5720   -3.1050   -2.0880 os        1 PXN     -0.434850
     12 CAL         6.1690   -3.3700   -2.0460 c3        1 PXN      0.140900
     13 CAM         5.4940   -2.1560   -1.3980 c3        1 PXN     -0.049000
     14 CAN         5.7840   -0.8890   -2.2100 c3        1 PXN      0.140900
     15 OAO         5.2760   -1.1010   -3.5280 os        1 PXN     -0.434850
     16 CAP         5.5550   -0.0010   -4.3920 c3        1 PXN      0.114400
     17 CAQ         4.8560   -0.3030   -5.7220 c3        1 PXN      0.140850
     18 OAR         3.4620   -0.4630   -5.5280 oh        1 PXN     -0.601300
     19 OAS         5.8120   -3.9630    4.2220 oh        1 PXN     -0.601300
     20 CAT         5.7740   -4.2800    2.8340 c3        1 PXN      0.140850
     21 CAU         6.2270   -3.0030    2.1160 c3        1 PXN      0.114400
     22 OAV         5.7640   -3.1180    0.7720 os        1 PXN     -0.434850
     23 CAW         6.0360   -1.9350    0.0180 c3        1 PXN      0.140900
     24 CAX         5.4600   -1.5200   -6.3960 c3        1 PXN     -0.128600
     25 CAY         6.6760   -5.4530    2.5060 c3        1 PXN     -0.128600
     26 HAA         0.8920    1.8540   -0.4620 hc        1 PXN      0.046117
     27 HAAA        0.3900    0.6360   -1.7060 hc        1 PXN      0.046117
     28 HAAB        2.1400    1.0960   -1.5450 hc        1 PXN      0.046117
     29 HABA       11.3910   -3.1140   -1.4630 hc        1 PXN      0.046117
     30 HABB        9.7340   -2.8420   -0.7740 hc        1 PXN      0.046117
     31 HAC         3.5940   -2.5720   -2.3990 h1        1 PXN      0.045200
     32 HACA        3.7790   -3.3420   -0.7350 h1        1 PXN      0.045200
     33 HAE         1.4980   -1.6020   -1.6710 h1        1 PXN      0.041450
     34 HAEA        1.7200   -2.3680   -0.0210 h1        1 PXN      0.041450
     35 HAF         2.1380    0.1330    0.8160 h1        1 PXN      0.061700
     36 HOAG       -0.2270    0.2140    0.9640 ho        1 PXN      0.407500
     37 HOAH        9.3040   -1.8730   -3.0960 ho        1 PXN      0.407500
     38 HAI        10.3480   -4.4820   -3.3480 h1        1 PXN      0.061700
     39 HAJ         7.9040   -4.3980   -3.6970 h1        1 PXN      0.041450
     40 HAJA        8.2130   -5.0940   -2.0280 h1        1 PXN      0.041450
     41 HAL         5.7840   -3.5110   -3.0910 h1        1 PXN      0.045200
     42 HALA        5.9800   -4.2890   -1.4310 h1        1 PXN      0.045200
     43 HAN         6.8910   -0.7110   -2.2590 h1        1 PXN      0.045200
     44 HANA        5.2660   -0.0070   -1.7470 h1        1 PXN      0.045200
     45 HAP         6.6620    0.0930   -4.5400 h1        1 PXN      0.041450
     46 HAPA        5.1470    0.9440   -3.9460 h1        1 PXN      0.041450
     47 HAQ         4.9410    0.6020   -6.3890 h1        1 PXN      0.061700
     48 HOAR        3.3460   -1.1800   -4.8910 ho        1 PXN      0.407500
     49 HAT         4.7130   -4.5160    2.5370 h1        1 PXN      0.061700
     50 HAU         7.3440   -2.9130    2.1260 h1        1 PXN      0.041450
     51 HAUA        5.7720   -2.1030    2.6080 h1        1 PXN      0.041450
     52 HAW         5.5190   -1.0600    0.4940 h1        1 PXN      0.045200
     53 HAWA        7.1450   -1.7630   -0.0180 h1        1 PXN      0.045200
     54 HAX         6.5200   -1.3150   -6.6790 hc        1 PXN      0.046117
     55 HAXA        4.8790   -1.7740   -7.3140 hc        1 PXN      0.046117
     56 HAXB        5.4370   -2.3940   -5.7010 hc        1 PXN      0.046117
     57 HAY         6.2770   -6.3910    2.9610 hc        1 PXN      0.046117
     58 HAYA        6.7280   -5.5790    1.3980 hc        1 PXN      0.046117
     59 HAYB        7.7060   -5.2760    2.9000 hc        1 PXN      0.046117
     60 HOAS        5.6260   -4.7810    4.6960 ho        1 PXN      0.407500
     61 HAB        10.4170   -4.5210   -0.8500 hc        1 PXN      0.046117
@<TRIPOS>BOND
     1    1    6 1   
     2    1   26 1   
     3    1   27 1   
     4    1   28 1   
     5    2    9 1   
     6    2   29 1   
     7    2   30 1   
     8    2   61 1   
     9    3    4 1   
    10    3   13 1   
    11    3   31 1   
    12    3   32 1   
    13    4    5 1   
    14    5    6 1   
    15    5   33 1   
    16    5   34 1   
    17    6    7 1   
    18    6   35 1   
    19    7   36 1   
    20    8    9 1   
    21    8   37 1   
    22    9   10 1   
    23    9   38 1   
    24   10   11 1   
    25   10   39 1   
    26   10   40 1   
    27   11   12 1   
    28   12   13 1   
    29   12   41 1   
    30   12   42 1   
    31   13   14 1   
    32   13   23 1   
    33   14   15 1   
    34   14   43 1   
    35   14   44 1   
    36   15   16 1   
    37   16   17 1   
    38   16   45 1   
    39   16   46 1   
    40   17   18 1   
    41   17   24 1   
    42   17   47 1   
    43   18   48 1   
    44   19   20 1   
    45   19   60 1   
    46   20   21 1   
    47   20   25 1   
    48   20   49 1   
    49   21   22 1   
    50   21   50 1   
    51   21   51 1   
    52   22   23 1   
    53   23   52 1   
    54   23   53 1   
    55   24   54 1   
    56   24   55 1   
    57   24   56 1   
    58   25   57 1   
    59   25   58 1   
    60   25   59 1   
@<TRIPOS>SUBSTRUCTURE
     1 PXN         1 TEMP              0 ****  ****    0 ROOT
