@<TRIPOS>MOLECULE
PXN
   61    60     1     0     0
SMALL
bcc


@<TRIPOS>ATOM
      1 CAA         1.2170    0.9430   -0.9400 c3        1 PXN     -0.128600
      2 CAB        10.3530   -3.5790   -1.4010 c3        1 PXN     -0.128600
      3 CAC         3.9850   -2.4180   -1.3560 c3        1 PXN      0.140900
      4 OAD         3.3670   -1.2830   -0.7500 os        1 PXN     -0.434850
      5 CAE         1.9540   -1.4490   -0.6390 c3        1 PXN      0.114400
      6 CAF         1.4290   -0.1840    0.0510 c3        1 PXN      0.140850
      7 OAG         0.2080   -0.5740    0.6710 oh        1 PXN     -0.601300
      8 OAH         9.8600   -2.5430   -3.5330 oh        1 PXN     -0.601300
      9 CAI         9.7480   -3.7400   -2.7830 c3        1 PXN      0.140850
     10 CAJ         8.2850   -4.1890   -2.6990 c3        1 PXN      0.114400
     11 OAK         7.5640   -3.1140   -2.1020 os        1 PXN     -0.434850
     12 CAL         6.1590   -3.3670   -2.0600 c3        1 PXN      0.140900
     13 CAM         5.4940   -2.1560   -1.3970 c3        1 PXN     -0.049000
     14 CAN         5.7930   -0.8820   -2.1950 c3        1 PXN      0.140900
     15 OAO         5.2810   -1.0740   -3.5140 os        1 PXN     -0.434850
     16 CAP         5.5670    0.0330   -4.3660 c3        1 PXN      0.114400
     17 CAQ         4.8630   -0.2480   -5.6990 c3        1 PXN      0.140850
     18 OAR         3.4680   -0.4000   -5.5030 oh        1 PXN     -0.601300
     19 OAS         5.8080   -4.0300    4.2010 oh        1 PXN     -0.601300
     20 CAT         5.7660   -4.3300    2.8100 c3        1 PXN      0.140850
     21 CAU         6.2260   -3.0490    2.1060 c3        1 PXN      0.114400
     22 OAV         5.7600   -3.1450    0.7610 os        1 PXN     -0.434850
     23 CAW         6.0400   -1.9560    0.0210 c3        1 PXN      0.140900
     24 CAX         5.4570   -1.4610   -6.3880 c3        1 PXN     -0.128600
     25 CAY         6.6590   -5.5060    2.4660 c3        1 PXN     -0.128600
     26 HAA         0.9250    1.8800   -0.4080 hc        1 PXN      0.046117
     27 HAAA        0.4110    0.6790   -1.6650 hc        1 PXN      0.046117
     28 HAAB        2.1640    1.1250   -1.5030 hc        1 PXN      0.046117
     29 HABA       11.3840   -3.1610   -1.4840 hc        1 PXN      0.046117
     30 HABB        9.7300   -2.8840   -0.7880 hc        1 PXN      0.046117
     31 HAC         3.5890   -2.5450   -2.3990 h1        1 PXN      0.045200
     32 HACA        3.7710   -3.3350   -0.7450 h1        1 PXN      0.045200
     33 HAE         1.5030   -1.5660   -1.6580 h1        1 PXN      0.041450
     34 HAEA        1.7200   -2.3530   -0.0170 h1        1 PXN      0.041450
     35 HAF         2.1600    0.1350    0.8470 h1        1 PXN      0.061700
     36 HOAG       -0.2030    0.2330    1.0020 ho        1 PXN      0.407500
     37 HOAH        9.3040   -1.8840   -3.0980 ho        1 PXN      0.407500
     38 HAI        10.3260   -4.4980   -3.3840 h1        1 PXN      0.061700
     39 HAJ         7.8820   -4.3900   -3.7270 h1        1 PXN      0.041450
     40 HAJA        8.1890   -5.1090   -2.0660 h1        1 PXN      0.041450
     41 HAL         5.7710   -3.4940   -3.1060 h1        1 PXN      0.045200
     42 HALA        5.9630   -4.2920   -1.4550 h1        1 PXN      0.045200
     43 HAN         6.9020   -0.7120   -2.2440 h1        1 PXN      0.045200
     44 HANA        5.2840   -0.0020   -1.7220 h1        1 PXN      0.045200
     45 HAP         6.6740    0.1210   -4.5160 h1        1 PXN      0.041450
     46 HAPA        5.1680    0.9760   -3.9080 h1        1 PXN      0.041450
     47 HAQ         4.9530    0.6640   -6.3540 h1        1 PXN      0.061700
     48 HOAR        3.3480   -1.1230   -4.8740 ho        1 PXN      0.407500
     49 HAT         4.7020   -4.5550    2.5120 h1        1 PXN      0.061700
     50 HAU         7.3440   -2.9670    2.1150 h1        1 PXN      0.041450
     51 HAUA        5.7790   -2.1510    2.6090 h1        1 PXN      0.041450
     52 HAW         5.5320   -1.0810    0.5070 h1        1 PXN      0.045200
     53 HAWA        7.1500   -1.7910   -0.0160 h1        1 PXN      0.045200
     54 HAX         6.5170   -1.2610   -6.6710 hc        1 PXN      0.046117
     55 HAXA        4.8710   -1.7000   -7.3080 hc        1 PXN      0.046117
     56 HAXB        5.4280   -2.3430   -5.7040 hc        1 PXN      0.046117
     57 HAY         6.2540   -6.4460    2.9110 hc        1 PXN      0.046117
     58 HAYA        6.7080   -5.6200    1.3570 hc        1 PXN      0.046117
     59 HAYB        7.6900   -5.3410    2.8610 hc        1 PXN      0.046117
     60 HOAS        5.6170   -4.8520    4.6660 ho        1 PXN      0.407500
     61 HAB        10.4000   -4.5670   -0.8870 hc        1 PXN      0.046117
@<TRIPOS>BOND
     1    1    6 1   
     2    1   26 1   
     3    1   27 1   
     4    1   28 1   
     5    2    9 1   
     6    2   29 1   
     7    2   30 1   
     8    2   61 1   
     9    3    4 1   
    10    3   13 1   
    11    3   31 1   
    12    3   32 1   
    13    4    5 1   
    14    5    6 1   
    15    5   33 1   
    16    5   34 1   
    17    6    7 1   
    18    6   35 1   
    19    7   36 1   
    20    8    9 1   
    21    8   37 1   
    22    9   10 1   
    23    9   38 1   
    24   10   11 1   
    25   10   39 1   
    26   10   40 1   
    27   11   12 1   
    28   12   13 1   
    29   12   41 1   
    30   12   42 1   
    31   13   14 1   
    32   13   23 1   
    33   14   15 1   
    34   14   43 1   
    35   14   44 1   
    36   15   16 1   
    37   16   17 1   
    38   16   45 1   
    39   16   46 1   
    40   17   18 1   
    41   17   24 1   
    42   17   47 1   
    43   18   48 1   
    44   19   20 1   
    45   19   60 1   
    46   20   21 1   
    47   20   25 1   
    48   20   49 1   
    49   21   22 1   
    50   21   50 1   
    51   21   51 1   
    52   22   23 1   
    53   23   52 1   
    54   23   53 1   
    55   24   54 1   
    56   24   55 1   
    57   24   56 1   
    58   25   57 1   
    59   25   58 1   
    60   25   59 1   
@<TRIPOS>SUBSTRUCTURE
     1 PXN         1 TEMP              0 ****  ****    0 ROOT
