@<TRIPOS>MOLECULE
PXN
   61    60     1     0     0
SMALL
bcc


@<TRIPOS>ATOM
      1 CAA         4.1350    3.5540   -0.7470 c3        1 PXN     -0.127600
      2 CAB        -3.3240   -4.2450   -1.0590 c3        1 PXN     -0.127600
      3 CAC         0.6800    0.4970    0.6240 c3        1 PXN      0.138150
      4 OAD         1.5230    1.1900   -0.3000 os        1 PXN     -0.434100
      5 CAE         2.4880    2.0060    0.3590 c3        1 PXN      0.093650
      6 CAF         3.6940    2.1140   -0.5850 c3        1 PXN      0.136600
      7 OAG         4.7550    1.2950   -0.1130 oh        1 PXN     -0.606550
      8 OAH        -4.7880   -2.3570   -0.6660 oh        1 PXN     -0.606550
      9 CAI        -3.9870   -3.3410   -0.0370 c3        1 PXN      0.136600
     10 CAJ        -2.9470   -2.6870    0.8800 c3        1 PXN      0.093650
     11 OAK        -2.1730   -1.8160    0.0570 os        1 PXN     -0.434100
     12 CAL        -1.1880   -1.1050    0.8080 c3        1 PXN      0.138150
     13 CAM        -0.3430   -0.3020   -0.1880 c3        1 PXN     -0.075000
     14 CAN        -1.2310    0.6430   -1.0020 c3        1 PXN      0.138150
     15 OAO        -1.8780    1.5240   -0.0830 os        1 PXN     -0.434100
     16 CAP        -2.7630    2.4290   -0.7400 c3        1 PXN      0.093650
     17 CAQ        -3.2970    3.3770    0.3400 c3        1 PXN      0.136600
     18 OAR        -2.2280    4.0440    0.9910 oh        1 PXN     -0.606550
     19 OAS         3.4800   -1.0200    1.5250 oh        1 PXN     -0.606550
     20 CAT         3.3010   -2.1700    0.7130 c3        1 PXN      0.136600
     21 CAU         2.6180   -1.7990   -0.6110 c3        1 PXN      0.093650
     22 OAV         1.2370   -2.1370   -0.4900 os        1 PXN     -0.434100
     23 CAW         0.3510   -1.2590   -1.1700 c3        1 PXN      0.138150
     24 CAX        -4.1690    2.6370    1.3360 c3        1 PXN     -0.127600
     25 CAY         4.6260   -2.8620    0.4570 c3        1 PXN     -0.127600
     26 HAA         4.3590    4.0130    0.2460 hc        1 PXN      0.046450
     27 HAAA        5.0560    3.6000   -1.3760 hc        1 PXN      0.046450
     28 HAAB        3.3290    4.1470   -1.2410 hc        1 PXN      0.046450
     29 HABA       -4.0860   -4.6250   -1.7810 hc        1 PXN      0.046450
     30 HABB       -2.5440   -3.6780   -1.6230 hc        1 PXN      0.046450
     31 HAC         1.3100   -0.2000    1.2440 h1        1 PXN      0.050450
     32 HACA        0.1530    1.2410    1.2790 h1        1 PXN      0.050450
     33 HAE         2.0240    3.0100    0.5490 h1        1 PXN      0.043825
     34 HAEA        2.8020    1.5460    1.3350 h1        1 PXN      0.043825
     35 HAF         3.4310    1.6620   -1.5850 h1        1 PXN      0.082200
     36 HOAG        5.1400    1.7330    0.6560 ho        1 PXN      0.408250
     37 HOAH       -4.1900   -1.7750   -1.1530 ho        1 PXN      0.408250
     38 HAI        -4.7130   -3.9250    0.5970 h1        1 PXN      0.082200
     39 HAJ        -3.4560   -2.0910    1.6830 h1        1 PXN      0.043825
     40 HAJA       -2.2850   -3.4640    1.3430 h1        1 PXN      0.043825
     41 HAL        -1.7010   -0.4120    1.5270 h1        1 PXN      0.050450
     42 HALA       -0.5350   -1.8320    1.3610 h1        1 PXN      0.050450
     43 HAN        -0.6030    1.2440   -1.7140 h1        1 PXN      0.050450
     44 HANA       -2.0040    0.0550   -1.5660 h1        1 PXN      0.050450
     45 HAP        -2.2010    3.0070   -1.5200 h1        1 PXN      0.043825
     46 HAPA       -3.6030    1.8610   -1.2170 h1        1 PXN      0.043825
     47 HAQ        -3.8770    4.2050   -0.1580 h1        1 PXN      0.082200
     48 HOAR       -1.6560    3.3610    1.3640 ho        1 PXN      0.408250
     49 HAT         2.6180   -2.8290    1.3230 h1        1 PXN      0.082200
     50 HAU         2.7600   -0.7050   -0.8240 h1        1 PXN      0.043825
     51 HAUA        3.0340   -2.4050   -1.4590 h1        1 PXN      0.043825
     52 HAW        -0.4220   -1.9350   -1.6300 h1        1 PXN      0.050450
     53 HAWA        0.8760   -0.6700   -1.9650 h1        1 PXN      0.050450
     54 HAX        -3.6090    1.7740    1.7700 hc        1 PXN      0.046450
     55 HAXA       -4.4690    3.3250    2.1620 hc        1 PXN      0.046450
     56 HAXB       -5.0850    2.2510    0.8310 hc        1 PXN      0.046450
     57 HAY         5.1460   -3.0510    1.4260 hc        1 PXN      0.046450
     58 HAYA        4.4570   -3.8360   -0.0600 hc        1 PXN      0.046450
     59 HAYB        5.2850   -2.2240   -0.1800 hc        1 PXN      0.046450
     60 HOAS        4.0540   -0.4110    1.0380 ho        1 PXN      0.408250
     61 HAB        -2.8400   -5.1100   -0.5490 hc        1 PXN      0.046450
@<TRIPOS>BOND
     1    1    6 1   
     2    1   26 1   
     3    1   27 1   
     4    1   28 1   
     5    2    9 1   
     6    2   29 1   
     7    2   30 1   
     8    2   61 1   
     9    3    4 1   
    10    3   13 1   
    11    3   31 1   
    12    3   32 1   
    13    4    5 1   
    14    5    6 1   
    15    5   33 1   
    16    5   34 1   
    17    6    7 1   
    18    6   35 1   
    19    7   36 1   
    20    8    9 1   
    21    8   37 1   
    22    9   10 1   
    23    9   38 1   
    24   10   11 1   
    25   10   39 1   
    26   10   40 1   
    27   11   12 1   
    28   12   13 1   
    29   12   41 1   
    30   12   42 1   
    31   13   14 1   
    32   13   23 1   
    33   14   15 1   
    34   14   43 1   
    35   14   44 1   
    36   15   16 1   
    37   16   17 1   
    38   16   45 1   
    39   16   46 1   
    40   17   18 1   
    41   17   24 1   
    42   17   47 1   
    43   18   48 1   
    44   19   20 1   
    45   19   60 1   
    46   20   21 1   
    47   20   25 1   
    48   20   49 1   
    49   21   22 1   
    50   21   50 1   
    51   21   51 1   
    52   22   23 1   
    53   23   52 1   
    54   23   53 1   
    55   24   54 1   
    56   24   55 1   
    57   24   56 1   
    58   25   57 1   
    59   25   58 1   
    60   25   59 1   
@<TRIPOS>SUBSTRUCTURE
     1 PXN         1 TEMP              0 ****  ****    0 ROOT
