@<TRIPOS>MOLECULE
PXO
   12    11     1     0     0
SMALL
bcc


@<TRIPOS>ATOM
      1 C3          2.3130   -0.1510   -0.2330 c3        1 PXO     -0.092100
      2 C2          0.9320   -0.4020    0.3150 c3        1 PXO     -0.151700
      3 C1         -0.0550    0.5950   -0.1920 c2        1 PXO      0.361200
      4 N1         -1.3530    0.5510   -0.1700 n2        1 PXO     -0.454200
      5 O1         -1.9140   -0.5150    0.3590 oh        1 PXO     -0.362500
      6 H3          2.6780    0.8630    0.0600 hc        1 PXO      0.037367
      7 H3A         3.0270   -0.9110    0.1670 hc        1 PXO      0.037367
      8 H3B         2.3150   -0.2170   -1.3470 hc        1 PXO      0.037367
      9 H2          0.5950   -1.4400    0.0430 hc        1 PXO      0.063200
     10 H2A         0.9490   -0.3490    1.4380 hc        1 PXO      0.063200
     11 H1          0.3580    1.5150   -0.6500 h4        1 PXO      0.025800
     12 HO1        -2.8750   -0.3600    0.2670 ho        1 PXO      0.436000
@<TRIPOS>BOND
     1    1    2 1   
     2    1    6 1   
     3    1    7 1   
     4    1    8 1   
     5    2    3 1   
     6    2    9 1   
     7    2   10 1   
     8    3    4 2   
     9    3   11 1   
    10    4    5 1   
    11    5   12 1   
@<TRIPOS>SUBSTRUCTURE
     1 PXO         1 TEMP              0 ****  ****    0 ROOT
