@<TRIPOS>MOLECULE
PXO
   12    11     1     0     0
SMALL
bcc


@<TRIPOS>ATOM
      1 C3         -0.0340    0.2540   -0.0100 c3        1 PXO     -0.092100
      2 C2          1.3870   -0.2460   -0.0030 c3        1 PXO     -0.151700
      3 C1          1.9300   -0.3520    1.3820 c2        1 PXO      0.361200
      4 N1          2.9780   -0.9890    1.8080 n2        1 PXO     -0.454200
      5 O1          3.6830   -1.6570    0.9200 oh        1 PXO     -0.362500
      6 H3         -0.7010   -0.4400    0.5570 hc        1 PXO      0.037367
      7 H3A        -0.1020    1.2660    0.4560 hc        1 PXO      0.037367
      8 H3B        -0.4090    0.3240   -1.0600 hc        1 PXO      0.037367
      9 H2          2.0420    0.4530   -0.5910 hc        1 PXO      0.063200
     10 H2A         1.4440   -1.2480   -0.5090 hc        1 PXO      0.063200
     11 H1          1.3790    0.1900    2.1760 h4        1 PXO      0.025800
     12 HO1         4.4050   -2.0680    1.4360 ho        1 PXO      0.436000
@<TRIPOS>BOND
     1    1    2 1   
     2    1    6 1   
     3    1    7 1   
     4    1    8 1   
     5    2    3 1   
     6    2    9 1   
     7    2   10 1   
     8    3    4 2   
     9    3   11 1   
    10    4    5 1   
    11    5   12 1   
@<TRIPOS>SUBSTRUCTURE
     1 PXO         1 TEMP              0 ****  ****    0 ROOT
