@<TRIPOS>MOLECULE
PXO
   12    11     1     0     0
SMALL
bcc


@<TRIPOS>ATOM
      1 C3         -0.0350    0.2290   -0.0370 c3        1 PXO     -0.092100
      2 C2          1.3920   -0.2530   -0.0040 c3        1 PXO     -0.151700
      3 C1          1.9140   -0.3460    1.3900 c2        1 PXO      0.361200
      4 N1          2.9680   -0.9610    1.8330 n2        1 PXO     -0.454200
      5 O1          3.7010   -1.6150    0.9570 oh        1 PXO     -0.362500
      6 H3         -0.7020   -0.4710    0.5230 hc        1 PXO      0.037367
      7 H3A        -0.1240    1.2420    0.4240 hc        1 PXO      0.037367
      8 H3B        -0.3940    0.2890   -1.0920 hc        1 PXO      0.037367
      9 H2          2.0480    0.4530   -0.5850 hc        1 PXO      0.063200
     10 H2A         1.4700   -1.2560   -0.5050 hc        1 PXO      0.063200
     11 H1          1.3390    0.1850    2.1740 h4        1 PXO      0.025800
     12 HO1         4.4230   -2.0100    1.4860 ho        1 PXO      0.436000
@<TRIPOS>BOND
     1    1    2 1   
     2    1    6 1   
     3    1    7 1   
     4    1    8 1   
     5    2    3 1   
     6    2    9 1   
     7    2   10 1   
     8    3    4 2   
     9    3   11 1   
    10    4    5 1   
    11    5   12 1   
@<TRIPOS>SUBSTRUCTURE
     1 PXO         1 TEMP              0 ****  ****    0 ROOT
