@<TRIPOS>MOLECULE
PXO
   12    11     1     0     0
SMALL
bcc


@<TRIPOS>ATOM
      1 C3         -0.0290    0.2550   -0.0210 c3        1 PXO     -0.092100
      2 C2          1.3890   -0.2520   -0.0050 c3        1 PXO     -0.151700
      3 C1          1.9330   -0.3370    1.3810 c2        1 PXO      0.361200
      4 N1          2.9730   -0.9790    1.8180 n2        1 PXO     -0.454200
      5 O1          3.6680   -1.6750    0.9430 oh        1 PXO     -0.362500
      6 H3         -0.6990   -0.4250    0.5590 hc        1 PXO      0.037367
      7 H3A        -0.0910    1.2760    0.4290 hc        1 PXO      0.037367
      8 H3B        -0.4050    0.3080   -1.0710 hc        1 PXO      0.037367
      9 H2          2.0480    0.4330   -0.6060 hc        1 PXO      0.063200
     10 H2A         1.4400   -1.2630   -0.4950 hc        1 PXO      0.063200
     11 H1          1.3900    0.2300    2.1630 h4        1 PXO      0.025800
     12 HO1         4.3840   -2.0840    1.4680 ho        1 PXO      0.436000
@<TRIPOS>BOND
     1    1    2 1   
     2    1    6 1   
     3    1    7 1   
     4    1    8 1   
     5    2    3 1   
     6    2    9 1   
     7    2   10 1   
     8    3    4 2   
     9    3   11 1   
    10    4    5 1   
    11    5   12 1   
@<TRIPOS>SUBSTRUCTURE
     1 PXO         1 TEMP              0 ****  ****    0 ROOT
