@<TRIPOS>MOLECULE
PXP
   26    26     1     0     0
SMALL
bcc


@<TRIPOS>ATOM
      1 N1         -0.0850   -0.0600   -0.0560 nb        1 PXP     -0.671000
      2 C2          1.2770   -0.0660   -0.0460 ca        1 PXP      0.306600
      3 C2A         2.0290   -0.1380   -1.3320 c3        1 PXP     -0.111400
      4 C3          2.0000    0.0090    1.1670 ca        1 PXP      0.013800
      5 O3          3.3780   -0.0040    1.0710 oh        1 PXP     -0.535100
      6 C4          1.3180    0.1020    2.4010 ca        1 PXP     -0.222300
      7 C4A         2.0760    0.2340    3.6800 c3        1 PXP      0.169700
      8 O4A         3.0020   -0.8320    3.8680 oh        1 PXP     -0.645800
      9 C5         -0.0810    0.0940    2.3830 ca        1 PXP     -0.080600
     10 C6         -0.7220    0.0110    1.1130 ca        1 PXP      0.377200
     11 C5A        -0.9080    0.1610    3.6300 c3        1 PXP      0.201700
     12 O4P        -2.2540    0.0620    3.3780 os        1 PXP     -0.558200
     13 P          -3.0760    0.0460    4.9380 p5        1 PXP      1.308900
     14 O1P        -2.6020    1.3620    5.4950 o         1 PXP     -0.927167
     15 O2P        -4.5190   -0.0620    4.5450 o         1 PXP     -0.927167
     16 O3P        -2.4310   -1.1660    5.5580 o         1 PXP     -0.927167
     17 H2A1        1.4050   -0.5510   -2.1600 hc        1 PXP      0.026700
     18 H2A2        2.9320   -0.7840   -1.2000 hc        1 PXP      0.026700
     19 H2A3        2.3730    0.8860   -1.6220 hc        1 PXP      0.026700
     20 HO3         3.7320   -0.1750    1.9570 ho        1 PXP      0.427000
     21 H4A1        1.3790    0.2900    4.5600 h1        1 PXP      0.065700
     22 H4A2        2.7230    1.1550    3.6590 h1        1 PXP      0.065700
     23 HOA4        2.4800   -1.6410    3.9290 ho        1 PXP      0.413000
     24 H6         -1.8330    0.0010    1.1050 h4        1 PXP      0.074100
     25 H5A1       -0.6960    1.1400    4.1600 h1        1 PXP      0.050200
     26 H5A2       -0.5930   -0.6840    4.3200 h1        1 PXP      0.050200
@<TRIPOS>BOND
     1    1    2 ar  
     2    1   10 ar  
     3    2    3 1   
     4    2    4 ar  
     5    3   17 1   
     6    3   18 1   
     7    3   19 1   
     8    4    5 1   
     9    4    6 ar  
    10    5   20 1   
    11    6    7 1   
    12    6    9 ar  
    13    7    8 1   
    14    7   21 1   
    15    7   22 1   
    16    8   23 1   
    17    9   10 ar  
    18    9   11 1   
    19   10   24 1   
    20   11   12 1   
    21   11   25 1   
    22   11   26 1   
    23   12   13 1   
    24   13   14 1   
    25   13   15 1   
    26   13   16 1   
@<TRIPOS>SUBSTRUCTURE
     1 PXP         1 TEMP              0 ****  ****    0 ROOT
