@<TRIPOS>MOLECULE
PXP
   26    26     1     0     0
SMALL
bcc


@<TRIPOS>ATOM
      1 N1         -0.0700   -0.0440   -0.0600 nb        1 PXP     -0.671000
      2 C2          1.2920   -0.0410   -0.0410 ca        1 PXP      0.306600
      3 C2A         2.0530   -0.0960   -1.3230 c3        1 PXP     -0.111400
      4 C3          2.0070    0.0300    1.1770 ca        1 PXP      0.013800
      5 O3          3.3850    0.0280    1.0900 oh        1 PXP     -0.535100
      6 C4          1.3170    0.1080    2.4070 ca        1 PXP     -0.222300
      7 C4A         2.0660    0.2350    3.6920 c3        1 PXP      0.169700
      8 O4A         2.9980   -0.8260    3.8770 oh        1 PXP     -0.645800
      9 C5         -0.0820    0.0890    2.3800 ca        1 PXP     -0.080600
     10 C6         -0.7150    0.0120    1.1060 ca        1 PXP      0.377200
     11 C5A        -0.9170    0.1390    3.6230 c3        1 PXP      0.201700
     12 O4P        -2.2610    0.0330    3.3620 os        1 PXP     -0.558200
     13 P          -3.0930   -0.0020    4.9160 p5        1 PXP      1.308900
     14 O1P        -2.6310    1.3140    5.4860 o         1 PXP     -0.927167
     15 O2P        -4.5320   -0.1170    4.5140 o         1 PXP     -0.927167
     16 O3P        -2.4420   -1.2140    5.5300 o         1 PXP     -0.927167
     17 H2A1        1.4380   -0.5100   -2.1580 hc        1 PXP      0.027033
     18 H2A2        2.9610   -0.7340   -1.1900 hc        1 PXP      0.027033
     19 H2A3        2.3870    0.9330   -1.6040 hc        1 PXP      0.027033
     20 HO3         3.7350   -0.1470    1.9760 ho        1 PXP      0.427000
     21 H4A1        1.3630    0.2780    4.5680 h1        1 PXP      0.065700
     22 H4A2        2.7050    1.1610    3.6830 h1        1 PXP      0.065700
     23 HOA4        2.4820   -1.6390    3.9290 ho        1 PXP      0.413000
     24 H6         -1.8260   -0.0060    1.0910 h4        1 PXP      0.074100
     25 H5A1       -0.7160    1.1160    4.1620 h1        1 PXP      0.050200
     26 H5A2       -0.6010   -0.7080    4.3080 h1        1 PXP      0.050200
@<TRIPOS>BOND
     1    1    2 ar  
     2    1   10 ar  
     3    2    3 1   
     4    2    4 ar  
     5    3   17 1   
     6    3   18 1   
     7    3   19 1   
     8    4    5 1   
     9    4    6 ar  
    10    5   20 1   
    11    6    7 1   
    12    6    9 ar  
    13    7    8 1   
    14    7   21 1   
    15    7   22 1   
    16    8   23 1   
    17    9   10 ar  
    18    9   11 1   
    19   10   24 1   
    20   11   12 1   
    21   11   25 1   
    22   11   26 1   
    23   12   13 1   
    24   13   14 1   
    25   13   15 1   
    26   13   16 1   
@<TRIPOS>SUBSTRUCTURE
     1 PXP         1 TEMP              0 ****  ****    0 ROOT
