@<TRIPOS>MOLECULE
PXP
   26    26     1     0     0
SMALL
bcc


@<TRIPOS>ATOM
      1 N1          2.0850   -0.2510    2.0850 nb        1 PXP     -0.671000
      2 C2          1.2370   -0.1520    3.1460 ca        1 PXP      0.306600
      3 C2A         1.7670   -0.2780    4.5340 c3        1 PXP     -0.111400
      4 C3         -0.1440    0.0830    2.9590 ca        1 PXP      0.013800
      5 O3         -0.9210    0.1680    4.0980 oh        1 PXP     -0.535100
      6 C4         -0.6740    0.2310    1.6580 ca        1 PXP     -0.222300
      7 C4A        -2.1220    0.5320    1.4560 c3        1 PXP      0.169700
      8 O4A        -2.9630   -0.4400    2.0710 oh        1 PXP     -0.645800
      9 C5          0.2010    0.1150    0.5720 ca        1 PXP     -0.080600
     10 C6          1.5750   -0.1270    0.8590 ca        1 PXP      0.377200
     11 C5A        -0.2530    0.2260   -0.8510 c3        1 PXP      0.201700
     12 O4P         0.7610    0.0040   -1.7490 os        1 PXP     -0.558200
     13 P           0.0510    0.0610   -3.3620 p5        1 PXP      1.308900
     14 O1P        -0.5220    1.4530   -3.3430 o         1 PXP     -0.927167
     15 O2P         1.2340   -0.1910   -4.2480 o         1 PXP     -0.927167
     16 O3P        -0.9700   -1.0390   -3.2340 o         1 PXP     -0.927167
     17 H2A1        1.9030    0.7410    4.9760 hc        1 PXP      0.027033
     18 H2A2        1.0320   -0.8370    5.1650 hc        1 PXP      0.027033
     19 H2A3        2.7480   -0.8110    4.5620 hc        1 PXP      0.027033
     20 HO3        -1.8490    0.1020    3.8270 ho        1 PXP      0.427000
     21 H4A1       -2.3980    1.4940    1.9710 h1        1 PXP      0.065700
     22 H4A2       -2.3720    0.6110    0.3630 h1        1 PXP      0.065700
     23 HOA4       -2.7830   -1.2780    1.6290 ho        1 PXP      0.413000
     24 H6          2.2650   -0.2230   -0.0070 h4        1 PXP      0.074100
     25 H5A1       -1.0820   -0.5280   -1.0280 h1        1 PXP      0.050200
     26 H5A2       -0.6820    1.2610   -1.0200 h1        1 PXP      0.050200
@<TRIPOS>BOND
     1    1    2 ar  
     2    1   10 ar  
     3    2    3 1   
     4    2    4 ar  
     5    3   17 1   
     6    3   18 1   
     7    3   19 1   
     8    4    5 1   
     9    4    6 ar  
    10    5   20 1   
    11    6    7 1   
    12    6    9 ar  
    13    7    8 1   
    14    7   21 1   
    15    7   22 1   
    16    8   23 1   
    17    9   10 ar  
    18    9   11 1   
    19   10   24 1   
    20   11   12 1   
    21   11   25 1   
    22   11   26 1   
    23   12   13 1   
    24   13   14 1   
    25   13   15 1   
    26   13   16 1   
@<TRIPOS>SUBSTRUCTURE
     1 PXP         1 TEMP              0 ****  ****    0 ROOT
