@<TRIPOS>MOLECULE
PXS
  107   106     1     0     0
SMALL
bcc


@<TRIPOS>ATOM
      1 C01         0.0920    0.2460    0.5070 c3        1 PXS     -0.092100
      2 C02         1.5910    0.0920    0.4930 c3        1 PXS     -0.080400
      3 C03         2.1850    0.2980    1.8700 c3        1 PXS     -0.079400
      4 C04         3.6900    0.1420    1.8510 c3        1 PXS     -0.079400
      5 C05         4.2820    0.3480    3.2280 c3        1 PXS     -0.078400
      6 C06         5.7880    0.1920    3.2090 c3        1 PXS     -0.079400
      7 C07         6.3800    0.3980    4.5860 c3        1 PXS     -0.079400
      8 C08         7.8850    0.2420    4.5670 c3        1 PXS     -0.079400
      9 C09         8.4770    0.4490    5.9440 c3        1 PXS     -0.079400
     10 C10         9.9820    0.2920    5.9240 c3        1 PXS     -0.079400
     11 C11        10.5740    0.4980    7.3020 c3        1 PXS     -0.079400
     12 C12        12.0800    0.3420    7.2810 c3        1 PXS     -0.079400
     13 C13        12.6710    0.5480    8.6600 c3        1 PXS     -0.078400
     14 C14        14.1770    0.3950    8.6340 c3        1 PXS     -0.079400
     15 C15        14.7590    0.5830   10.0190 c3        1 PXS     -0.126400
     16 C16        16.2550    0.5720    9.9780 c         1 PXS      0.633100
     17 O17        16.8030   -0.0480   11.0690 os        1 PXS     -0.435900
     18 C18        18.2350   -0.0610   11.1510 c3        1 PXS      0.135400
     19 C19        18.6200   -0.4910   12.5660 c3        1 PXS      0.148100
     20 C20        17.8500   -1.7010   13.0500 c3        1 PXS     -0.114100
     21 O21        18.3370    0.6440   13.4090 os        1 PXS     -0.439900
     22 C22        19.0370    0.7580   14.5790 c         1 PXS      0.635100
     23 C23        18.6240    1.9600   15.3720 c3        1 PXS     -0.127400
     24 C24        19.8200    2.6050   16.0410 c3        1 PXS     -0.079400
     25 C25        19.3810    3.7310   16.9520 c3        1 PXS     -0.078400
     26 C26        20.5730    4.3940   17.6100 c3        1 PXS     -0.079400
     27 C27        20.1390    5.5180   18.5260 c3        1 PXS     -0.079400
     28 C28        21.3300    6.1810   19.1830 c3        1 PXS     -0.079400
     29 C29        20.8960    7.3050   20.1000 c3        1 PXS     -0.078400
     30 C30        22.0870    7.9680   20.7580 c3        1 PXS     -0.079400
     31 C31        21.6540    9.0920   21.6740 c3        1 PXS     -0.079400
     32 C32        22.8450    9.7550   22.3320 c3        1 PXS     -0.079400
     33 C33        22.4120   10.8790   23.2490 c3        1 PXS     -0.078400
     34 C34        23.6030   11.5420   23.9060 c3        1 PXS     -0.079400
     35 C35        23.1700   12.6650   24.8230 c3        1 PXS     -0.079400
     36 C36        24.3600   13.3300   25.4810 c3        1 PXS     -0.080400
     37 C37        23.9340   14.4490   26.3950 c3        1 PXS     -0.092100
     38 O38        19.8820   -0.0960   14.8510 o         1 PXS     -0.546000
     39 O39        17.0160    1.0400    9.1290 o         1 PXS     -0.543000
     40 H01        -0.3240    0.0900   -0.5170 hc        1 PXS      0.032700
     41 H01A       -0.1950    1.2690    0.8530 hc        1 PXS      0.032700
     42 H01B       -0.3740   -0.4990    1.1960 hc        1 PXS      0.032700
     43 H02         1.8610   -0.9320    0.1200 hc        1 PXS      0.038700
     44 H02A        2.0400    0.8320   -0.2220 hc        1 PXS      0.038700
     45 H03         1.7390   -0.4420    2.5860 hc        1 PXS      0.039700
     46 H03A        1.9170    1.3210    2.2440 hc        1 PXS      0.039700
     47 H04         3.9570   -0.8820    1.4760 hc        1 PXS      0.039700
     48 H04A        4.1360    0.8820    1.1350 hc        1 PXS      0.039700
     49 H05         4.0150    1.3720    3.6030 hc        1 PXS      0.039700
     50 H05A        3.8360   -0.3920    3.9440 hc        1 PXS      0.039700
     51 H06         6.2330    0.9320    2.4930 hc        1 PXS      0.039700
     52 H06A        6.0540   -0.8320    2.8340 hc        1 PXS      0.039700
     53 H07         5.9340   -0.3420    5.3020 hc        1 PXS      0.039700
     54 H07A        6.1130    1.4220    4.9610 hc        1 PXS      0.039700
     55 H08         8.3310    0.9820    3.8510 hc        1 PXS      0.039700
     56 H08A        8.1520   -0.7820    4.1920 hc        1 PXS      0.039700
     57 H09         8.2100    1.4720    6.3190 hc        1 PXS      0.039700
     58 H09A        8.0310   -0.2910    6.6600 hc        1 PXS      0.039700
     59 H10        10.2490   -0.7320    5.5500 hc        1 PXS      0.040700
     60 H10A       10.4280    1.0320    5.2080 hc        1 PXS      0.040700
     61 H11        10.1290   -0.2410    8.0180 hc        1 PXS      0.039700
     62 H11A       10.3070    1.5220    7.6760 hc        1 PXS      0.039700
     63 H12        12.5260    1.0830    6.5660 hc        1 PXS      0.042700
     64 H12A       12.3460   -0.6810    6.9070 hc        1 PXS      0.042700
     65 H13        12.4020    1.5700    9.0350 hc        1 PXS      0.041200
     66 H13A       12.2280   -0.1950    9.3740 hc        1 PXS      0.041200
     67 H14        14.4480   -0.6220    8.2460 hc        1 PXS      0.057700
     68 H14A       14.6280    1.1470    7.9330 hc        1 PXS      0.057700
     69 H15        14.4450    1.5750   10.4440 hc        1 PXS      0.078700
     70 H15A       14.3940   -0.2180   10.7130 hc        1 PXS      0.078700
     71 H18        18.6350    0.9600   10.9200 h1        1 PXS      0.065200
     72 H18A       18.6230   -0.8050   10.4080 h1        1 PXS      0.065200
     73 H19        19.7280   -0.6950   12.5850 h1        1 PXS      0.076700
     74 H20        18.1980   -1.9850   14.0720 hc        1 PXS      0.053367
     75 H20A       18.0200   -2.5540   12.3520 hc        1 PXS      0.053367
     76 H20B       16.7570   -1.4760   13.0850 hc        1 PXS      0.053367
     77 H23        17.8860    1.6120   16.1440 hc        1 PXS      0.078700
     78 H23A       18.1020    2.6940   14.7030 hc        1 PXS      0.078700
     79 H24        20.5200    3.0010   15.2590 hc        1 PXS      0.057700
     80 H24A       20.3820    1.8310   16.6280 hc        1 PXS      0.057700
     81 H25        18.6910    3.3310   17.7410 hc        1 PXS      0.041200
     82 H25A       18.8050    4.4920   16.3630 hc        1 PXS      0.041200
     83 H26        21.1510    3.6320   18.1960 hc        1 PXS      0.042700
     84 H26A       21.2620    4.7970   16.8210 hc        1 PXS      0.042700
     85 H27        19.4500    5.1150   19.3150 hc        1 PXS      0.039700
     86 H27A       19.5600    6.2790   17.9400 hc        1 PXS      0.039700
     87 H28        22.0180    6.5840   18.3950 hc        1 PXS      0.040700
     88 H28A       21.9090    5.4190   19.7700 hc        1 PXS      0.040700
     89 H29        20.2070    6.9020   20.8890 hc        1 PXS      0.039700
     90 H29A       20.3170    8.0660   19.5140 hc        1 PXS      0.039700
     91 H30        22.7760    8.3710   19.9690 hc        1 PXS      0.039700
     92 H30A       22.6660    7.2060   21.3440 hc        1 PXS      0.039700
     93 H31        21.0750    9.8540   21.0880 hc        1 PXS      0.039700
     94 H31A       20.9650    8.6890   22.4630 hc        1 PXS      0.039700
     95 H32        23.5340   10.1580   21.5430 hc        1 PXS      0.039700
     96 H32A       23.4240    8.9930   22.9180 hc        1 PXS      0.039700
     97 H33        21.7230   10.4760   24.0370 hc        1 PXS      0.039700
     98 H33A       21.8330   11.6410   22.6630 hc        1 PXS      0.039700
     99 H34        24.2920   11.9450   23.1170 hc        1 PXS      0.039700
    100 H34A       24.1810   10.7800   24.4920 hc        1 PXS      0.039700
    101 H35        22.4810   12.2630   25.6120 hc        1 PXS      0.039700
    102 H35A       22.5910   13.4280   24.2370 hc        1 PXS      0.039700
    103 H36        25.0490   13.7300   24.6910 hc        1 PXS      0.038700
    104 H36A       24.9380   12.5660   26.0660 hc        1 PXS      0.038700
    105 H37        23.2670   14.0650   27.2050 hc        1 PXS      0.032700
    106 H37A       24.8260   14.9250   26.8700 hc        1 PXS      0.032700
    107 H37B       23.3770   15.2330   25.8260 hc        1 PXS      0.032700
@<TRIPOS>BOND
     1    1    2 1   
     2    1   40 1   
     3    1   41 1   
     4    1   42 1   
     5    2    3 1   
     6    2   43 1   
     7    2   44 1   
     8    3    4 1   
     9    3   45 1   
    10    3   46 1   
    11    4    5 1   
    12    4   47 1   
    13    4   48 1   
    14    5    6 1   
    15    5   49 1   
    16    5   50 1   
    17    6    7 1   
    18    6   51 1   
    19    6   52 1   
    20    7    8 1   
    21    7   53 1   
    22    7   54 1   
    23    8    9 1   
    24    8   55 1   
    25    8   56 1   
    26    9   10 1   
    27    9   57 1   
    28    9   58 1   
    29   10   11 1   
    30   10   59 1   
    31   10   60 1   
    32   11   12 1   
    33   11   61 1   
    34   11   62 1   
    35   12   13 1   
    36   12   63 1   
    37   12   64 1   
    38   13   14 1   
    39   13   65 1   
    40   13   66 1   
    41   14   15 1   
    42   14   67 1   
    43   14   68 1   
    44   15   16 1   
    45   15   69 1   
    46   15   70 1   
    47   16   17 1   
    48   16   39 2   
    49   17   18 1   
    50   18   19 1   
    51   18   71 1   
    52   18   72 1   
    53   19   20 1   
    54   19   21 1   
    55   19   73 1   
    56   20   74 1   
    57   20   75 1   
    58   20   76 1   
    59   21   22 1   
    60   22   23 1   
    61   22   38 2   
    62   23   24 1   
    63   23   77 1   
    64   23   78 1   
    65   24   25 1   
    66   24   79 1   
    67   24   80 1   
    68   25   26 1   
    69   25   81 1   
    70   25   82 1   
    71   26   27 1   
    72   26   83 1   
    73   26   84 1   
    74   27   28 1   
    75   27   85 1   
    76   27   86 1   
    77   28   29 1   
    78   28   87 1   
    79   28   88 1   
    80   29   30 1   
    81   29   89 1   
    82   29   90 1   
    83   30   31 1   
    84   30   91 1   
    85   30   92 1   
    86   31   32 1   
    87   31   93 1   
    88   31   94 1   
    89   32   33 1   
    90   32   95 1   
    91   32   96 1   
    92   33   34 1   
    93   33   97 1   
    94   33   98 1   
    95   34   35 1   
    96   34   99 1   
    97   34  100 1   
    98   35   36 1   
    99   35  101 1   
   100   35  102 1   
   101   36   37 1   
   102   36  103 1   
   103   36  104 1   
   104   37  105 1   
   105   37  106 1   
   106   37  107 1   
@<TRIPOS>SUBSTRUCTURE
     1 PXS         1 TEMP              0 ****  ****    0 ROOT
