@<TRIPOS>MOLECULE
PXS
  107   106     1     0     0
SMALL
bcc


@<TRIPOS>ATOM
      1 C01        19.0970    5.1570   -0.5270 c3        1 PXS     -0.092100
      2 C02        18.2280    4.1250    0.1440 c3        1 PXS     -0.080400
      3 C03        16.8270    4.1200   -0.4300 c3        1 PXS     -0.079400
      4 C04        15.9580    3.0820    0.2470 c3        1 PXS     -0.079400
      5 C05        14.5580    3.0790   -0.3280 c3        1 PXS     -0.078400
      6 C06        13.6880    2.0410    0.3490 c3        1 PXS     -0.079400
      7 C07        12.2880    2.0370   -0.2260 c3        1 PXS     -0.079400
      8 C08        11.4190    0.9990    0.4520 c3        1 PXS     -0.079400
      9 C09        10.0190    0.9960   -0.1230 c3        1 PXS     -0.079400
     10 C10         9.1500   -0.0420    0.5550 c3        1 PXS     -0.079400
     11 C11         7.7490   -0.0450   -0.0200 c3        1 PXS     -0.079400
     12 C12         6.8810   -1.0830    0.6580 c3        1 PXS     -0.079400
     13 C13         5.4800   -1.0860    0.0830 c3        1 PXS     -0.078400
     14 C14         4.6140   -2.1210    0.7670 c3        1 PXS     -0.079400
     15 C15         3.2210   -2.1320    0.1740 c3        1 PXS     -0.126400
     16 C16         2.3190   -3.0530    0.9360 c         1 PXS      0.634100
     17 O17         1.4380   -3.7130    0.1220 os        1 PXS     -0.435900
     18 C18         0.4920   -4.5780    0.7650 c3        1 PXS      0.135400
     19 C19        -0.5840   -4.9400   -0.2580 c3        1 PXS      0.148100
     20 C20        -0.0140   -5.3500   -1.5990 c3        1 PXS     -0.114100
     21 O21        -1.3940   -3.7570   -0.4070 os        1 PXS     -0.439900
     22 C22        -2.6880   -3.9190   -0.8220 c         1 PXS      0.635100
     23 C23        -3.4060   -2.6130   -0.9650 c3        1 PXS     -0.127400
     24 C24        -4.8450   -2.7320   -0.5100 c3        1 PXS     -0.079400
     25 C25        -5.6030   -1.4510   -0.7870 c3        1 PXS     -0.078400
     26 C26        -7.0380   -1.5560   -0.3160 c3        1 PXS     -0.079400
     27 C27        -7.8010   -0.2790   -0.5960 c3        1 PXS     -0.079400
     28 C28        -9.2360   -0.3830   -0.1240 c3        1 PXS     -0.079400
     29 C29        -9.9990    0.8940   -0.4040 c3        1 PXS     -0.078400
     30 C30       -11.4330    0.7910    0.0680 c3        1 PXS     -0.079400
     31 C31       -12.1970    2.0680   -0.2110 c3        1 PXS     -0.079400
     32 C32       -13.6310    1.9640    0.2610 c3        1 PXS     -0.079400
     33 C33       -14.3950    3.2410   -0.0180 c3        1 PXS     -0.078400
     34 C34       -15.8290    3.1380    0.4550 c3        1 PXS     -0.079400
     35 C35       -16.5930    4.4150    0.1760 c3        1 PXS     -0.079400
     36 C36       -18.0280    4.3130    0.6480 c3        1 PXS     -0.080400
     37 C37       -18.7920    5.5820    0.3720 c3        1 PXS     -0.092100
     38 O38        -3.1050   -5.0590   -1.0350 o         1 PXS     -0.546000
     39 O39         2.2710   -3.2690    2.1480 o         1 PXS     -0.543000
     40 H01        19.1780    4.9520   -1.6230 hc        1 PXS      0.032700
     41 H01A       18.6700    6.1800   -0.3940 hc        1 PXS      0.032700
     42 H01B       20.1250    5.1430   -0.0900 hc        1 PXS      0.032700
     43 H02        18.6860    3.1080    0.0200 hc        1 PXS      0.038700
     44 H02A       18.1790    4.3320    1.2460 hc        1 PXS      0.038700
     45 H03        16.3670    5.1360   -0.3060 hc        1 PXS      0.039700
     46 H03A       16.8740    3.9110   -1.5320 hc        1 PXS      0.039700
     47 H04        16.4180    2.0670    0.1220 hc        1 PXS      0.039700
     48 H04A       15.9120    3.2910    1.3480 hc        1 PXS      0.039700
     49 H05        14.0970    4.0940   -0.2040 hc        1 PXS      0.039700
     50 H05A       14.6040    2.8700   -1.4290 hc        1 PXS      0.039700
     51 H06        14.1490    1.0250    0.2250 hc        1 PXS      0.039700
     52 H06A       13.6420    2.2500    1.4510 hc        1 PXS      0.039700
     53 H07        11.8280    3.0530   -0.1010 hc        1 PXS      0.039700
     54 H07A       12.3340    1.8280   -1.3270 hc        1 PXS      0.039700
     55 H08        11.8790   -0.0160    0.3270 hc        1 PXS      0.039700
     56 H08A       11.3730    1.2080    1.5530 hc        1 PXS      0.039700
     57 H09         9.5580    2.0110    0.0020 hc        1 PXS      0.039700
     58 H09A       10.0640    0.7870   -1.2240 hc        1 PXS      0.039700
     59 H10         9.6100   -1.0570    0.4300 hc        1 PXS      0.040700
     60 H10A        9.1040    0.1670    1.6560 hc        1 PXS      0.040700
     61 H11         7.2890    0.9710    0.1050 hc        1 PXS      0.039700
     62 H11A        7.7950   -0.2540   -1.1210 hc        1 PXS      0.039700
     63 H12         7.3410   -2.0990    0.5340 hc        1 PXS      0.042700
     64 H12A        6.8340   -0.8740    1.7600 hc        1 PXS      0.042700
     65 H13         5.0210   -0.0690    0.2060 hc        1 PXS      0.041200
     66 H13A        5.5260   -1.2990   -1.0170 hc        1 PXS      0.041200
     67 H14         5.0780   -3.1370    0.6570 hc        1 PXS      0.057700
     68 H14A        4.5500   -1.9040    1.8670 hc        1 PXS      0.057700
     69 H15         2.7670   -1.1050    0.2240 hc        1 PXS      0.078700
     70 H15A        3.2520   -2.4410   -0.9040 hc        1 PXS      0.078700
     71 H18         1.0300   -5.5040    1.0960 h1        1 PXS      0.065200
     72 H18A        0.0440   -4.0560    1.6500 h1        1 PXS      0.065200
     73 H19        -1.2180   -5.7670    0.1710 h1        1 PXS      0.076700
     74 H20         0.6660   -6.2230   -1.4640 hc        1 PXS      0.053367
     75 H20A       -0.8450   -5.6320   -2.2900 hc        1 PXS      0.053367
     76 H20B        0.5640   -4.5070   -2.0480 hc        1 PXS      0.053367
     77 H23        -2.8700   -1.8200   -0.3790 hc        1 PXS      0.078700
     78 H23A       -3.3620   -2.3260   -2.0510 hc        1 PXS      0.078700
     79 H24        -5.3350   -3.5920   -1.0400 hc        1 PXS      0.057700
     80 H24A       -4.8740   -2.9590    0.5880 hc        1 PXS      0.057700
     81 H25        -5.0980   -0.5940   -0.2690 hc        1 PXS      0.041200
     82 H25A       -5.5830   -1.2320   -1.8870 hc        1 PXS      0.041200
     83 H26        -7.5410   -2.4160   -0.8320 hc        1 PXS      0.042700
     84 H26A       -7.0580   -1.7730    0.7840 hc        1 PXS      0.042700
     85 H27        -7.2970    0.5810   -0.0810 hc        1 PXS      0.039700
     86 H27A       -7.7820   -0.0620   -1.6970 hc        1 PXS      0.039700
     87 H28        -9.7390   -1.2430   -0.6390 hc        1 PXS      0.040700
     88 H28A       -9.2550   -0.5990    0.9760 hc        1 PXS      0.040700
     89 H29        -9.4950    1.7540    0.1110 hc        1 PXS      0.039700
     90 H29A       -9.9800    1.1110   -1.5040 hc        1 PXS      0.039700
     91 H30       -11.9380   -0.0690   -0.4470 hc        1 PXS      0.039700
     92 H30A      -11.4530    0.5740    1.1690 hc        1 PXS      0.039700
     93 H31       -11.6930    2.9280    0.3040 hc        1 PXS      0.039700
     94 H31A      -12.1780    2.2840   -1.3120 hc        1 PXS      0.039700
     95 H32       -14.1360    1.1050   -0.2540 hc        1 PXS      0.039700
     96 H32A      -13.6500    1.7480    1.3620 hc        1 PXS      0.039700
     97 H33       -13.8900    4.1010    0.4970 hc        1 PXS      0.039700
     98 H33A      -14.3760    3.4580   -1.1180 hc        1 PXS      0.039700
     99 H34       -16.3340    2.2780   -0.0600 hc        1 PXS      0.039700
    100 H34A      -15.8480    2.9210    1.5550 hc        1 PXS      0.039700
    101 H35       -16.0890    5.2750    0.6910 hc        1 PXS      0.039700
    102 H35A      -16.5740    4.6320   -0.9250 hc        1 PXS      0.039700
    103 H36       -18.5300    3.4520    0.1330 hc        1 PXS      0.038700
    104 H36A      -18.0440    4.0950    1.7480 hc        1 PXS      0.038700
    105 H37       -18.3210    6.4490    0.8970 hc        1 PXS      0.032700
    106 H37A      -18.8080    5.8040   -0.7220 hc        1 PXS      0.032700
    107 H37B      -19.8460    5.4860    0.7280 hc        1 PXS      0.032700
@<TRIPOS>BOND
     1    1    2 1   
     2    1   40 1   
     3    1   41 1   
     4    1   42 1   
     5    2    3 1   
     6    2   43 1   
     7    2   44 1   
     8    3    4 1   
     9    3   45 1   
    10    3   46 1   
    11    4    5 1   
    12    4   47 1   
    13    4   48 1   
    14    5    6 1   
    15    5   49 1   
    16    5   50 1   
    17    6    7 1   
    18    6   51 1   
    19    6   52 1   
    20    7    8 1   
    21    7   53 1   
    22    7   54 1   
    23    8    9 1   
    24    8   55 1   
    25    8   56 1   
    26    9   10 1   
    27    9   57 1   
    28    9   58 1   
    29   10   11 1   
    30   10   59 1   
    31   10   60 1   
    32   11   12 1   
    33   11   61 1   
    34   11   62 1   
    35   12   13 1   
    36   12   63 1   
    37   12   64 1   
    38   13   14 1   
    39   13   65 1   
    40   13   66 1   
    41   14   15 1   
    42   14   67 1   
    43   14   68 1   
    44   15   16 1   
    45   15   69 1   
    46   15   70 1   
    47   16   17 1   
    48   16   39 2   
    49   17   18 1   
    50   18   19 1   
    51   18   71 1   
    52   18   72 1   
    53   19   20 1   
    54   19   21 1   
    55   19   73 1   
    56   20   74 1   
    57   20   75 1   
    58   20   76 1   
    59   21   22 1   
    60   22   23 1   
    61   22   38 2   
    62   23   24 1   
    63   23   77 1   
    64   23   78 1   
    65   24   25 1   
    66   24   79 1   
    67   24   80 1   
    68   25   26 1   
    69   25   81 1   
    70   25   82 1   
    71   26   27 1   
    72   26   83 1   
    73   26   84 1   
    74   27   28 1   
    75   27   85 1   
    76   27   86 1   
    77   28   29 1   
    78   28   87 1   
    79   28   88 1   
    80   29   30 1   
    81   29   89 1   
    82   29   90 1   
    83   30   31 1   
    84   30   91 1   
    85   30   92 1   
    86   31   32 1   
    87   31   93 1   
    88   31   94 1   
    89   32   33 1   
    90   32   95 1   
    91   32   96 1   
    92   33   34 1   
    93   33   97 1   
    94   33   98 1   
    95   34   35 1   
    96   34   99 1   
    97   34  100 1   
    98   35   36 1   
    99   35  101 1   
   100   35  102 1   
   101   36   37 1   
   102   36  103 1   
   103   36  104 1   
   104   37  105 1   
   105   37  106 1   
   106   37  107 1   
@<TRIPOS>SUBSTRUCTURE
     1 PXS         1 TEMP              0 ****  ****    0 ROOT
