@<TRIPOS>MOLECULE
PXU
   17    17     1     0     0
SMALL
bcc


@<TRIPOS>ATOM
      1 N          -0.8620   -0.1180    1.2080 n3        1 PXU     -0.806200
      2 CA         -0.0350   -0.3860    0.0040 c3        1 PXU      0.229000
      3 OA          0.0940   -1.7930   -0.1840 oh        1 PXU     -0.622800
      4 CB         -0.8010    0.1550   -1.2360 c3        1 PXU     -0.085400
      5 CG         -2.1870    0.5510   -0.7470 c3        1 PXU     -0.097400
      6 CD         -2.1990    0.2460    0.7620 c3        1 PXU      0.161800
      7 C           1.3850    0.2840    0.1180 c         1 PXU      0.899600
      8 O           2.3790   -0.4880    0.0400 o         1 PXU     -0.825300
      9 H1         -0.4410    0.6520    1.6990 hn        1 PXU      0.364800
     10 H3          0.9710   -2.0340    0.1530 ho        1 PXU      0.422000
     11 H4         -0.2500    1.0370   -1.6430 hc        1 PXU      0.051700
     12 H5         -0.8540   -0.6350   -2.0230 hc        1 PXU      0.051700
     13 H6         -2.3810    1.6360   -0.9290 hc        1 PXU      0.022200
     14 H7         -2.9850   -0.0310   -1.2690 hc        1 PXU      0.022200
     15 H8         -2.8730   -0.6320    0.9620 h1        1 PXU      0.018700
     16 H9         -2.6020    1.1210    1.3390 h1        1 PXU      0.018700
     17 OXT         1.4290    1.5300    0.2920 o         1 PXU     -0.825300
@<TRIPOS>BOND
     1    1    2 1   
     2    1    6 1   
     3    1    9 1   
     4    2    3 1   
     5    2    4 1   
     6    2    7 1   
     7    3   10 1   
     8    4    5 1   
     9    4   11 1   
    10    4   12 1   
    11    5    6 1   
    12    5   13 1   
    13    5   14 1   
    14    6   15 1   
    15    6   16 1   
    16    7    8 1   
    17    7   17 1   
@<TRIPOS>SUBSTRUCTURE
     1 PXU         1 TEMP              0 ****  ****    0 ROOT
