@<TRIPOS>MOLECULE
PXX
   30    32     1     0     0
SMALL
bcc


@<TRIPOS>ATOM
      1 CAA         0.9150    1.1610   -0.4620 c3        1 PXX     -0.185100
      2 CAM         1.3100   -0.2390   -0.1550 c         1 PXX      0.561100
      3 OAB         1.0340   -0.9250    0.8150 o         1 PXX     -0.406100
      4 NAL         2.1710   -0.9430   -1.2020 n4        1 PXX     -0.551200
      5 CAN         3.5600   -0.4710   -1.1620 ca        1 PXX     -0.065400
      6 CAP         4.0040    0.5350   -2.0940 ca        1 PXX     -0.149300
      7 CAH         3.1520    1.1450   -3.0530 ca        1 PXX     -0.138000
      8 CAD         3.6580    2.0800   -3.9290 ca        1 PXX     -0.194300
      9 CAF         5.0390    2.4140   -3.8350 ca        1 PXX      0.427200
     10 NAK         5.8640    1.8780   -2.9460 nb        1 PXX     -0.591000
     11 CAR         5.3720    0.9430   -2.0680 ca        1 PXX      0.380300
     12 CAQ         6.2860    0.3550   -1.0800 ca        1 PXX      0.401300
     13 NAJ         7.5980    0.7530   -1.0380 nb        1 PXX     -0.617000
     14 CAE         8.3950    0.1980   -0.1300 ca        1 PXX      0.453200
     15 CAC         7.9720   -0.7880    0.8090 ca        1 PXX     -0.222300
     16 CAG         6.6570   -1.1960    0.7770 ca        1 PXX     -0.065000
     17 CAO         5.7760   -0.6240   -0.1810 ca        1 PXX     -0.185300
     18 CAI         4.4160   -1.0290   -0.2410 ca        1 PXX     -0.018000
     19 HAA         0.5110    1.6310    0.4740 hc        1 PXX      0.116367
     20 HAAA        0.1110    1.1680   -1.2430 hc        1 PXX      0.116367
     21 HAAB        1.7890    1.7620   -0.8260 hc        1 PXX      0.116367
     22 HNAL        2.1630   -1.9560   -1.0140 hn        1 PXX      0.462300
     23 HAH         2.0830    0.8970   -3.1170 ha        1 PXX      0.117000
     24 HAD         3.0270    2.5670   -4.6860 ha        1 PXX      0.170000
     25 HAF         5.4870    3.1580   -4.5240 h4        1 PXX      0.058100
     26 HAE         9.4460    0.5510   -0.1340 h4        1 PXX      0.055100
     27 HAC         8.6920   -1.2010    1.5310 ha        1 PXX      0.173000
     28 HAG         6.2770   -1.9540    1.4790 ha        1 PXX      0.155000
     29 HAI         4.0830   -1.8020    0.4760 ha        1 PXX      0.161000
     30 HAL2        1.7810   -0.7810   -2.1360 hn        1 PXX      0.462300
@<TRIPOS>BOND
     1    1    2 1   
     2    1   19 1   
     3    1   20 1   
     4    1   21 1   
     5    2    3 2   
     6    2    4 1   
     7    4    5 1   
     8    4   22 1   
     9    4   30 1   
    10    5    6 ar  
    11    5   18 ar  
    12    6    7 ar  
    13    6   11 ar  
    14    7    8 ar  
    15    7   23 1   
    16    8    9 ar  
    17    8   24 1   
    18    9   10 ar  
    19    9   25 1   
    20   10   11 ar  
    21   11   12 ar  
    22   12   13 ar  
    23   12   17 ar  
    24   13   14 ar  
    25   14   15 ar  
    26   14   26 1   
    27   15   16 ar  
    28   15   27 1   
    29   16   17 ar  
    30   16   28 1   
    31   17   18 ar  
    32   18   29 1   
@<TRIPOS>SUBSTRUCTURE
     1 PXX         1 TEMP              0 ****  ****    0 ROOT
