@<TRIPOS>MOLECULE
PXX
   29    31     1     0     0
SMALL
bcc


@<TRIPOS>ATOM
      1 CAA         4.8830    0.6470   -0.1230 c3        1 PXX     -0.178100
      2 CAM         3.4270    0.9990    0.0800 c         1 PXX      0.664100
      3 OAB         3.0880    2.1100    0.5260 o         1 PXX     -0.585100
      4 NAL         2.5090    0.0130   -0.2630 n         1 PXX     -0.480100
      5 CAN         1.1100    0.0970   -0.1470 ca        1 PXX      0.073600
      6 CAP         0.3380   -1.1330   -0.0430 ca        1 PXX     -0.154300
      7 CAH         0.9520   -2.4090    0.0490 ca        1 PXX     -0.096000
      8 CAD         0.1770   -3.5480    0.1200 ca        1 PXX     -0.242300
      9 CAF        -1.2340   -3.4010    0.1020 ca        1 PXX      0.403200
     10 NAK        -1.8500   -2.2270    0.0410 nb        1 PXX     -0.620000
     11 CAR        -1.0880   -1.0860   -0.0190 ca        1 PXX      0.374300
     12 CAQ        -1.7680    0.2140   -0.0450 ca        1 PXX      0.339300
     13 NAJ        -3.1400    0.2780   -0.0120 nb        1 PXX     -0.619000
     14 CAE        -3.7080    1.4780   -0.0190 ca        1 PXX      0.394200
     15 CAC        -2.9880    2.7040   -0.0570 ca        1 PXX     -0.237300
     16 CAG        -1.6130    2.6490   -0.0950 ca        1 PXX     -0.088000
     17 CAO        -0.9650    1.3850   -0.0940 ca        1 PXX     -0.122300
     18 CAI         0.4550    1.3070   -0.1580 ca        1 PXX     -0.141000
     19 HAA         5.1650   -0.2330    0.5040 hc        1 PXX      0.069700
     20 HAAA        5.0860    0.4140   -1.1960 hc        1 PXX      0.069700
     21 HAAB        5.5050    1.5230    0.1830 hc        1 PXX      0.069700
     22 HNAL        2.8730   -0.8450   -0.6090 hn        1 PXX      0.316500
     23 HAH         2.0450   -2.5180    0.0850 ha        1 PXX      0.128000
     24 HAD         0.6260   -4.5470    0.1940 ha        1 PXX      0.146000
     25 HAF        -1.8910   -4.2890    0.1460 h4        1 PXX      0.028100
     26 HAE        -4.8140    1.4860    0.0080 h4        1 PXX      0.025100
     27 HAC        -3.5300    3.6590   -0.0550 ha        1 PXX      0.145000
     28 HAG        -1.0020    3.5640   -0.1250 ha        1 PXX      0.145000
     29 HAI         1.0110    2.2600   -0.2100 ha        1 PXX      0.172000
@<TRIPOS>BOND
     1    1    2 1   
     2    1   19 1   
     3    1   20 1   
     4    1   21 1   
     5    2    3 2   
     6    2    4 1   
     7    4    5 1   
     8    4   22 1   
     9    5    6 ar  
    10    5   18 ar  
    11    6    7 ar  
    12    6   11 ar  
    13    7    8 ar  
    14    7   23 1   
    15    8    9 ar  
    16    8   24 1   
    17    9   10 ar  
    18    9   25 1   
    19   10   11 ar  
    20   11   12 ar  
    21   12   13 ar  
    22   12   17 ar  
    23   13   14 ar  
    24   14   15 ar  
    25   14   26 1   
    26   15   16 ar  
    27   15   27 1   
    28   16   17 ar  
    29   16   28 1   
    30   17   18 ar  
    31   18   29 1   
@<TRIPOS>SUBSTRUCTURE
     1 PXX         1 TEMP              0 ****  ****    0 ROOT
