@<TRIPOS>MOLECULE
PXX
   29    31     1     0     0
SMALL
bcc


@<TRIPOS>ATOM
      1 CAA        -0.1220   -0.1200   -0.1910 c3        1 PXX     -0.178100
      2 CAM         1.3660   -0.0900    0.0730 c         1 PXX      0.664100
      3 OAB         1.8210   -0.2260    1.2220 o         1 PXX     -0.585100
      4 NAL         2.1780    0.0960   -1.0420 ns        1 PXX     -0.480100
      5 CAN         3.5810    0.1780   -1.0480 ca        1 PXX      0.073600
      6 CAP         4.2390    0.8710   -2.1460 ca        1 PXX     -0.154300
      7 CAH         3.5140    1.5540   -3.1570 ca        1 PXX     -0.096000
      8 CAD         4.1820    2.1740   -4.1910 ca        1 PXX     -0.242300
      9 CAF         5.6000    2.1090   -4.2080 ca        1 PXX      0.403200
     10 NAK         6.3190    1.5020   -3.2730 nb        1 PXX     -0.620000
     11 CAR         5.6640    0.8900   -2.2330 ca        1 PXX      0.374300
     12 CAQ         6.4590    0.2540   -1.1760 ca        1 PXX      0.339300
     13 NAJ         7.8320    0.2730   -1.2380 nb        1 PXX     -0.619000
     14 CAE         8.5080   -0.3000   -0.2490 ca        1 PXX      0.394200
     15 CAC         7.9030   -0.9320    0.8730 ca        1 PXX     -0.237300
     16 CAG         6.5280   -0.9600    0.9400 ca        1 PXX     -0.088000
     17 CAO         5.7670   -0.3620   -0.1000 ca        1 PXX     -0.122300
     18 CAI         4.3450   -0.4020   -0.0610 ca        1 PXX     -0.141000
     19 HAA        -0.4630    0.8480   -0.6300 hc        1 PXX      0.069700
     20 HAAA       -0.3820   -0.9530   -0.8880 hc        1 PXX      0.069700
     21 HAAB       -0.6500   -0.2830    0.7810 hc        1 PXX      0.069700
     22 HNAL        1.7240    0.1990   -1.9200 hn        1 PXX      0.316500
     23 HAH         2.4170    1.6210   -3.1280 ha        1 PXX      0.128000
     24 HAD         3.6460    2.7110   -4.9840 ha        1 PXX      0.146000
     25 HAF         6.1730    2.5830   -5.0270 h4        1 PXX      0.028100
     26 HAE         9.6100   -0.2630   -0.3370 h4        1 PXX      0.025100
     27 HAC         8.5310   -1.3800    1.6540 ha        1 PXX      0.145000
     28 HAG         6.0030   -1.4340    1.7830 ha        1 PXX      0.145000
     29 HAI         3.8770   -0.9130    0.7990 ha        1 PXX      0.172000
@<TRIPOS>BOND
     1    1    2 1   
     2    1   19 1   
     3    1   20 1   
     4    1   21 1   
     5    2    3 2   
     6    2    4 1   
     7    4    5 1   
     8    4   22 1   
     9    5    6 ar  
    10    5   18 ar  
    11    6    7 ar  
    12    6   11 ar  
    13    7    8 ar  
    14    7   23 1   
    15    8    9 ar  
    16    8   24 1   
    17    9   10 ar  
    18    9   25 1   
    19   10   11 ar  
    20   11   12 ar  
    21   12   13 ar  
    22   12   17 ar  
    23   13   14 ar  
    24   14   15 ar  
    25   14   26 1   
    26   15   16 ar  
    27   15   27 1   
    28   16   17 ar  
    29   16   28 1   
    30   17   18 ar  
    31   18   29 1   
@<TRIPOS>SUBSTRUCTURE
     1 PXX         1 TEMP              0 ****  ****    0 ROOT
