@<TRIPOS>MOLECULE
PXX
   29    31     1     0     0
SMALL
bcc


@<TRIPOS>ATOM
      1 CAA        -0.1220   -0.1260   -0.1920 c3        1 PXX     -0.178100
      2 CAM         1.3670   -0.0960    0.0710 c         1 PXX      0.664100
      3 OAB         1.8210   -0.2350    1.2200 o         1 PXX     -0.585100
      4 NAL         2.1780    0.0940   -1.0420 n         1 PXX     -0.480100
      5 CAN         3.5810    0.1760   -1.0490 ca        1 PXX      0.073600
      6 CAP         4.2390    0.8730   -2.1450 ca        1 PXX     -0.154300
      7 CAH         3.5130    1.5600   -3.1530 ca        1 PXX     -0.096000
      8 CAD         4.1810    2.1830   -4.1860 ca        1 PXX     -0.242300
      9 CAF         5.5980    2.1190   -4.2030 ca        1 PXX      0.403200
     10 NAK         6.3180    1.5100   -3.2690 nb        1 PXX     -0.620000
     11 CAR         5.6630    0.8940   -2.2310 ca        1 PXX      0.374300
     12 CAQ         6.4590    0.2560   -1.1760 ca        1 PXX      0.339300
     13 NAJ         7.8320    0.2760   -1.2380 nb        1 PXX     -0.619000
     14 CAE         8.5090   -0.3000   -0.2510 ca        1 PXX      0.394200
     15 CAC         7.9040   -0.9360    0.8690 ca        1 PXX     -0.237300
     16 CAG         6.5290   -0.9650    0.9360 ca        1 PXX     -0.088000
     17 CAO         5.7680   -0.3640   -0.1020 ca        1 PXX     -0.122300
     18 CAI         4.3450   -0.4060   -0.0640 ca        1 PXX     -0.141000
     19 HAA        -0.6490   -0.2920    0.7790 hc        1 PXX      0.069700
     20 HAAA       -0.3810   -0.9560   -0.8920 hc        1 PXX      0.069700
     21 HAAB       -0.4630    0.8430   -0.6280 hc        1 PXX      0.069700
     22 HNAL        1.7240    0.1990   -1.9210 hn        1 PXX      0.316500
     23 HAH         2.4160    1.6260   -3.1240 ha        1 PXX      0.128000
     24 HAD         3.6440    2.7230   -4.9770 ha        1 PXX      0.146000
     25 HAF         6.1710    2.5960   -5.0200 h4        1 PXX      0.028100
     26 HAE         9.6100   -0.2620   -0.3390 h4        1 PXX      0.025100
     27 HAC         8.5320   -1.3860    1.6490 ha        1 PXX      0.145000
     28 HAG         6.0050   -1.4420    1.7770 ha        1 PXX      0.145000
     29 HAI         3.8780   -0.9200    0.7950 ha        1 PXX      0.172000
@<TRIPOS>BOND
     1    1    2 1   
     2    1   19 1   
     3    1   20 1   
     4    1   21 1   
     5    2    3 2   
     6    2    4 1   
     7    4    5 1   
     8    4   22 1   
     9    5    6 ar  
    10    5   18 ar  
    11    6    7 ar  
    12    6   11 ar  
    13    7    8 ar  
    14    7   23 1   
    15    8    9 ar  
    16    8   24 1   
    17    9   10 ar  
    18    9   25 1   
    19   10   11 ar  
    20   11   12 ar  
    21   12   13 ar  
    22   12   17 ar  
    23   13   14 ar  
    24   14   15 ar  
    25   14   26 1   
    26   15   16 ar  
    27   15   27 1   
    28   16   17 ar  
    29   16   28 1   
    30   17   18 ar  
    31   18   29 1   
@<TRIPOS>SUBSTRUCTURE
     1 PXX         1 TEMP              0 ****  ****    0 ROOT
