@<TRIPOS>MOLECULE
PXY
   18    18     1     0     0
SMALL
bcc


@<TRIPOS>ATOM
      1 C1         -0.0000   -0.0090    1.4060 ca        1 PXY     -0.082300
      2 C2          1.2060   -0.0050    0.6960 ca        1 PXY     -0.127000
      3 C3          1.2060    0.0050   -0.6960 ca        1 PXY     -0.127000
      4 C4          0.0000    0.0100   -1.4060 ca        1 PXY     -0.082300
      5 C5         -1.2060    0.0050   -0.6960 ca        1 PXY     -0.127000
      6 C6         -1.2060   -0.0050    0.6960 ca        1 PXY     -0.127000
      7 C1'        -0.0000   -0.0040    2.8870 c3        1 PXY     -0.052800
      8 C4'         0.0000    0.0050   -2.8870 c3        1 PXY     -0.052800
      9 H2          2.1610   -0.0100    1.2440 ha        1 PXY      0.130000
     10 H3          2.1610    0.0100   -1.2440 ha        1 PXY      0.130000
     11 H5         -2.1610    0.0100   -1.2440 ha        1 PXY      0.130000
     12 H6         -2.1610   -0.0100    1.2440 ha        1 PXY      0.130000
     13 H1'1        0.0010    1.0500    3.2640 hc        1 PXY      0.043033
     14 H1'2       -0.9070   -0.5180    3.2890 hc        1 PXY      0.043033
     15 H1'3        0.9060   -0.5200    3.2890 hc        1 PXY      0.043033
     16 H4'1       -0.0010   -1.0490   -3.2640 hc        1 PXY      0.043033
     17 H4'2       -0.9060    0.5200   -3.2890 hc        1 PXY      0.043033
     18 H4'3        0.9070    0.5190   -3.2890 hc        1 PXY      0.043033
@<TRIPOS>BOND
     1    1    2 ar  
     2    1    6 ar  
     3    1    7 1   
     4    2    3 ar  
     5    2    9 1   
     6    3    4 ar  
     7    3   10 1   
     8    4    5 ar  
     9    4    8 1   
    10    5    6 ar  
    11    5   11 1   
    12    6   12 1   
    13    7   13 1   
    14    7   14 1   
    15    7   15 1   
    16    8   16 1   
    17    8   17 1   
    18    8   18 1   
@<TRIPOS>SUBSTRUCTURE
     1 PXY         1 TEMP              0 ****  ****    0 ROOT
