@<TRIPOS>MOLECULE
PXY
   18    15     1     0     0
SMALL
bcc


@<TRIPOS>ATOM
      1 C1         -0.6930    0.0150   -1.2000 c1        1 PXY     -0.048100
      2 C2          0.6930    0.0150   -1.2000 c1        1 PXY     -0.069500
      3 C3          1.3860    0.0150   -0.0000 c1        1 PXY     -0.069500
      4 C4          0.6930    0.0150    1.2000 c1        1 PXY     -0.048100
      5 C5         -0.6930    0.0150    1.2000 c1        1 PXY     -0.069500
      6 C6         -1.3860    0.0150    0.0000 c1        1 PXY     -0.069500
      7 C1'        -1.4490   -0.0150   -2.5100 c3        1 PXY     -0.087000
      8 C4'         1.4490   -0.0120    2.5100 c3        1 PXY     -0.087000
      9 H2          1.1810    0.0150   -2.0460 ha        1 PXY      0.072500
     10 H3          2.3620    0.0150   -0.0000 ha        1 PXY      0.072500
     11 H5         -1.1810    0.0150    2.0460 ha        1 PXY      0.072500
     12 H6         -2.3620    0.0150    0.0000 ha        1 PXY      0.072500
     13 H1'1       -0.9970    0.5550   -3.1600 hc        1 PXY      0.043033
     14 H1'2       -1.4810   -0.9310   -2.8470 hc        1 PXY      0.043033
     15 H1'3       -2.3580    0.3110   -2.3690 hc        1 PXY      0.043033
     16 H4'1        1.6890   -0.9330    2.7290 hc        1 PXY      0.043033
     17 H4'2        2.2610    0.5250    2.4290 hc        1 PXY      0.043033
     18 H4'3        0.8870    0.3550    3.2190 hc        1 PXY      0.043033
@<TRIPOS>BOND
     1    1    6 3   
     2    1    7 1   
     3    2    3 3   
     4    2    9 1   
     5    3   10 1   
     6    4    5 3   
     7    4    8 1   
     8    5   11 1   
     9    6   12 1   
    10    7   13 1   
    11    7   14 1   
    12    7   15 1   
    13    8   16 1   
    14    8   17 1   
    15    8   18 1   
@<TRIPOS>SUBSTRUCTURE
     1 PXY         1 TEMP              0 ****  ****    0 ROOT
