@<TRIPOS>MOLECULE
PXZ
   34    36     1     0     0
SMALL
bcc


@<TRIPOS>ATOM
      1 C1         -1.3800    0.0250   -1.9220 cc        1 PXZ     -0.452000
      2 C          -2.8260   -0.1160   -1.7420 c         1 PXZ      0.601100
      3 O          -3.6510   -0.1460   -2.6680 o         1 PXZ     -0.594100
      4 C2         -0.7920    0.1560   -3.1790 cd        1 PXZ      0.201800
      5 N2         -1.4810    0.1110   -4.3400 nh        1 PXZ     -0.806600
      6 C3          0.7090    0.3570   -3.3170 c         1 PXZ      0.562500
      7 O3          1.1940    0.6580   -4.4170 o         1 PXZ     -0.519100
      8 C4          1.5180    0.1810   -2.1170 cd        1 PXZ     -0.221400
      9 O5          1.7490   -0.1340    0.1780 os        1 PXZ     -0.374800
     10 C6          2.0470   -0.1910    2.5280 ca        1 PXZ     -0.108600
     11 C7          1.4980   -0.1740    3.8100 ca        1 PXZ     -0.121000
     12 C8          0.1170   -0.0910    3.9960 ca        1 PXZ     -0.083000
     13 C9         -0.7640   -0.0260    2.9170 ca        1 PXZ     -0.208900
     14 C'         -2.2170    0.0570    3.1710 c         1 PXZ      0.579500
     15 O'         -2.6830    0.0820    4.3140 o         1 PXZ     -0.532100
     16 N10        -1.0960    0.0020    0.4830 nd        1 PXZ     -0.663000
     17 C11        -0.5580    0.0190   -0.7150 cc        1 PXZ      0.464800
     18 C12         0.9080    0.0230   -0.9120 cc        1 PXZ      0.206400
     19 C13         1.1580   -0.1200    1.4380 ca        1 PXZ      0.207700
     20 C14        -0.2460   -0.0430    1.5950 ca        1 PXZ      0.312300
     21 C15         2.9900    0.1890   -2.2680 c3        1 PXZ     -0.042900
     22 C16         3.5060   -0.2870    2.3070 c3        1 PXZ     -0.055800
     23 H          -3.1880   -0.2020   -0.6920 h4        1 PXZ      0.030200
     24 HN21       -1.0000    0.2680   -5.1960 hn        1 PXZ      0.466800
     25 HN22       -2.4730    0.0070   -4.3480 hn        1 PXZ      0.466800
     26 H7          2.1650   -0.2240    4.6850 ha        1 PXZ      0.148000
     27 H8         -0.3010   -0.0770    5.0180 ha        1 PXZ      0.165000
     28 H'         -2.8790    0.0960    2.2790 h4        1 PXZ      0.030200
     29 H151        3.2900    0.7680   -3.1770 hc        1 PXZ      0.057033
     30 H152        3.4740    0.6450   -1.3680 hc        1 PXZ      0.057033
     31 H153        3.3680   -0.8590   -2.3740 hc        1 PXZ      0.057033
     32 H161        4.0720   -0.0440    3.2390 hc        1 PXZ      0.056033
     33 H162        3.7730   -1.3260    1.9860 hc        1 PXZ      0.056033
     34 H163        3.8240    0.4150    1.4960 hc        1 PXZ      0.056033
@<TRIPOS>BOND
     1    1    2 1   
     2    1    4 2   
     3    1   17 1   
     4    2    3 2   
     5    2   23 1   
     6    4    5 1   
     7    4    6 1   
     8    5   24 1   
     9    5   25 1   
    10    6    7 2   
    11    6    8 1   
    12    8   18 2   
    13    8   21 1   
    14    9   18 1   
    15    9   19 1   
    16   10   11 ar  
    17   10   19 ar  
    18   10   22 1   
    19   11   12 ar  
    20   11   26 1   
    21   12   13 ar  
    22   12   27 1   
    23   13   14 1   
    24   13   20 ar  
    25   14   15 2   
    26   14   28 1   
    27   16   17 2   
    28   16   20 1   
    29   17   18 1   
    30   19   20 ar  
    31   21   29 1   
    32   21   30 1   
    33   21   31 1   
    34   22   32 1   
    35   22   33 1   
    36   22   34 1   
@<TRIPOS>SUBSTRUCTURE
     1 PXZ         1 TEMP              0 ****  ****    0 ROOT
