@<TRIPOS>MOLECULE
PXZ
   34    36     1     0     0
SMALL
bcc


@<TRIPOS>ATOM
      1 C1          0.0200    0.0820    0.0020 cc        1 PXZ     -0.415000
      2 C          -0.7340    0.2220   -1.2590 c         1 PXZ      0.592100
      3 O          -1.5590    1.1040   -1.4860 o         1 PXZ     -0.498100
      4 C2          1.3960    0.0070   -0.0070 cd        1 PXZ      0.158800
      5 N2          2.1390    0.1320   -1.1460 nv        1 PXZ     -0.842600
      6 C3          2.1690   -0.1790    1.2820 c         1 PXZ      0.574500
      7 O3          3.3850   -0.4130    1.2500 o         1 PXZ     -0.524100
      8 C4          1.4110   -0.0790    2.5270 cd        1 PXZ     -0.221400
      9 O5         -0.5950    0.0940    3.7110 os        1 PXZ     -0.373800
     10 C6         -2.6120    0.0420    4.9510 ca        1 PXZ     -0.113600
     11 C7         -4.0040   -0.0280    4.9810 ca        1 PXZ     -0.117000
     12 C8         -4.7440   -0.0970    3.7980 ca        1 PXZ     -0.088000
     13 C9         -4.1250   -0.0920    2.5490 ca        1 PXZ     -0.200900
     14 C'         -4.9550   -0.1430    1.3260 c         1 PXZ      0.578500
     15 O'         -6.1570   -0.4180    1.3640 o         1 PXZ     -0.533100
     16 N10        -2.0510   -0.0180    1.2380 nd        1 PXZ     -0.624000
     17 C11        -0.7390    0.0280    1.2440 cc        1 PXZ      0.450800
     18 C12         0.0550    0.0190    2.4900 cc        1 PXZ      0.208400
     19 C13        -1.9850    0.0350    3.6900 ca        1 PXZ      0.213700
     20 C14        -2.7090   -0.0280    2.4740 ca        1 PXZ      0.302300
     21 C15         2.1700   -0.0930    3.7970 c3        1 PXZ     -0.042900
     22 C16        -1.8100    0.1280    6.1910 c3        1 PXZ     -0.055800
     23 H          -0.4970   -0.5560   -2.0230 h4        1 PXZ     -0.012800
     24 HN21        3.1180   -0.0240   -1.0980 hn        1 PXZ      0.446300
     25 HN22        1.7000    0.1800   -2.0310 hn        1 PXZ      0.446300
     26 H7         -4.5260   -0.0310    5.9510 ha        1 PXZ      0.148000
     27 H8         -5.8450   -0.1590    3.8400 ha        1 PXZ      0.164000
     28 H'         -4.4440    0.0910    0.3660 h4        1 PXZ      0.041200
     29 H151        1.5800   -0.5990    4.6020 hc        1 PXZ      0.056367
     30 H152        3.1450   -0.6270    3.6680 hc        1 PXZ      0.056367
     31 H153        2.3830    0.9560    4.1260 hc        1 PXZ      0.056367
     32 H161       -1.4290    1.1720    6.3240 hc        1 PXZ      0.056033
     33 H162       -2.4200   -0.1470    7.0860 hc        1 PXZ      0.056033
     34 H163       -0.9260   -0.5550    6.1300 hc        1 PXZ      0.056033
@<TRIPOS>BOND
     1    1    2 1   
     2    1    4 2   
     3    1   17 1   
     4    2    3 2   
     5    2   23 1   
     6    4    5 1   
     7    4    6 1   
     8    5   24 1   
     9    5   25 1   
    10    6    7 2   
    11    6    8 1   
    12    8   18 2   
    13    8   21 1   
    14    9   18 1   
    15    9   19 1   
    16   10   11 ar  
    17   10   19 ar  
    18   10   22 1   
    19   11   12 ar  
    20   11   26 1   
    21   12   13 ar  
    22   12   27 1   
    23   13   14 1   
    24   13   20 ar  
    25   14   15 2   
    26   14   28 1   
    27   16   17 2   
    28   16   20 1   
    29   17   18 1   
    30   19   20 ar  
    31   21   29 1   
    32   21   30 1   
    33   21   31 1   
    34   22   32 1   
    35   22   33 1   
    36   22   34 1   
@<TRIPOS>SUBSTRUCTURE
     1 PXZ         1 TEMP              0 ****  ****    0 ROOT
