@<TRIPOS>MOLECULE
PXZ
   35    37     1     0     0
SMALL
bcc


@<TRIPOS>ATOM
      1 C1          0.0090   -0.0190   -0.0020 cc        1 PXZ     -0.143000
      2 C          -0.7740    0.0260   -1.2760 c         1 PXZ      0.575100
      3 O          -0.2030   -0.0150   -2.3690 o         1 PXZ     -0.531100
      4 C2          1.3730   -0.0680    0.0290 cd        1 PXZ     -0.112200
      5 N2          2.1720   -0.0840   -1.1970 n4        1 PXZ     -0.709400
      6 C3          2.1790   -0.1110    1.2980 c         1 PXZ      0.590500
      7 O3          3.4140   -0.1780    1.2200 o         1 PXZ     -0.527100
      8 C4          1.4220   -0.0710    2.5360 cd        1 PXZ     -0.198400
      9 O5         -0.5930    0.0160    3.7160 os        1 PXZ     -0.342800
     10 C6         -2.6040    0.0590    4.9660 ca        1 PXZ     -0.125600
     11 C7         -3.9950    0.0880    4.9900 ca        1 PXZ     -0.051000
     12 C8         -4.7450    0.0910    3.8040 ca        1 PXZ     -0.091000
     13 C9         -4.1340    0.0530    2.5590 ca        1 PXZ     -0.163900
     14 C'         -4.9690    0.0350    1.3330 c         1 PXZ      0.568500
     15 O'         -6.1090    0.4960    1.3160 o         1 PXZ     -0.476100
     16 N10        -2.0560    0.0110    1.2610 nd        1 PXZ     -0.530000
     17 C11        -0.7370   -0.0080    1.2600 cc        1 PXZ      0.311800
     18 C12         0.0590   -0.0210    2.4940 cc        1 PXZ      0.223400
     19 C13        -1.9770    0.0320    3.7010 ca        1 PXZ      0.273700
     20 C14        -2.7090    0.0260    2.4820 ca        1 PXZ      0.240300
     21 C15         2.1770   -0.0780    3.8100 c3        1 PXZ     -0.050900
     22 C16        -1.8000    0.0690    6.2070 c3        1 PXZ     -0.064800
     23 H          -1.8810    0.0990   -1.1930 h4        1 PXZ      0.090200
     24 HN21        1.8960   -0.8830   -1.7850 hn        1 PXZ      0.480467
     25 HN22        2.0010    0.7760   -1.7370 hn        1 PXZ      0.480467
     26 H7         -4.5210    0.1120    5.9620 ha        1 PXZ      0.173000
     27 H8         -5.8490    0.1310    3.8560 ha        1 PXZ      0.185000
     28 H'         -4.5110   -0.4350    0.4360 h4        1 PXZ      0.024200
     29 H151        1.6330   -0.6780    4.5820 hc        1 PXZ      0.072033
     30 H152        2.2880    0.9690    4.1930 hc        1 PXZ      0.072033
     31 H153        3.1980   -0.5110    3.6630 hc        1 PXZ      0.072033
     32 H161       -2.4270   -0.1890    7.0960 hc        1 PXZ      0.069367
     33 H162       -0.9590   -0.6660    6.1350 hc        1 PXZ      0.069367
     34 H163       -1.3580    1.0860    6.3660 hc        1 PXZ      0.069367
     35 H23         3.1730   -0.1530   -0.9460 hn        1 PXZ      0.480467
@<TRIPOS>BOND
     1    1    2 1   
     2    1    4 2   
     3    1   17 1   
     4    2    3 2   
     5    2   23 1   
     6    4    5 1   
     7    4    6 1   
     8    5   24 1   
     9    5   25 1   
    10    5   35 1   
    11    6    7 2   
    12    6    8 1   
    13    8   18 2   
    14    8   21 1   
    15    9   18 1   
    16    9   19 1   
    17   10   11 ar  
    18   10   19 ar  
    19   10   22 1   
    20   11   12 ar  
    21   11   26 1   
    22   12   13 ar  
    23   12   27 1   
    24   13   14 1   
    25   13   20 ar  
    26   14   15 2   
    27   14   28 1   
    28   16   17 2   
    29   16   20 1   
    30   17   18 1   
    31   19   20 ar  
    32   21   29 1   
    33   21   30 1   
    34   21   31 1   
    35   22   32 1   
    36   22   33 1   
    37   22   34 1   
@<TRIPOS>SUBSTRUCTURE
     1 PXZ         1 TEMP              0 ****  ****    0 ROOT
