@<TRIPOS>MOLECULE
PY0
   16    14     1     0     0
SMALL
bcc


@<TRIPOS>ATOM
      1 C3         -0.1650   -0.3040    0.0990 c3        1 PY0     -0.129100
      2 C2          1.2900    0.0370   -0.1580 c3        1 PY0      0.106100
      3 O3          2.0590   -0.0070    1.0290 oh        1 PY0     -0.587800
      4 C1          1.3990    1.4090   -0.7870 c         1 PY0      0.618100
      5 O1          1.0320    1.4680   -2.0920 oh        1 PY0     -0.591100
      6 O2          1.7700    2.4550   -0.2440 o         1 PY0     -0.568000
      7 N           4.2890    0.9470   -0.7890 n9        1 PY0     -1.032400
      8 H31C       -0.7320   -0.2870   -0.8620 hc        1 PY0      0.056700
      9 H32C       -0.6240    0.4270    0.8070 hc        1 PY0      0.056700
     10 H33C       -0.2330   -1.3240    0.5490 hc        1 PY0      0.056700
     11 H2          1.7760   -0.7200   -0.8400 h1        1 PY0      0.118700
     12 H3          1.7670    0.7200    1.5960 ho        1 PY0      0.417000
     13 H1          1.1820    2.3670   -2.4320 ho        1 PY0      0.448000
     14 HN1         5.2750    0.8630   -0.9170 hn        1 PY0      0.343133
     15 HN2         4.0700    1.8870   -0.5320 hn        1 PY0      0.343133
     16 HN3         4.0020    0.3360   -0.0510 hn        1 PY0      0.343133
@<TRIPOS>BOND
     1    1    2 1   
     2    1    8 1   
     3    1    9 1   
     4    1   10 1   
     5    2    3 1   
     6    2    4 1   
     7    2   11 1   
     8    3   12 1   
     9    4    5 1   
    10    4    6 2   
    11    5   13 1   
    12    7   14 1   
    13    7   15 1   
    14    7   16 1   
@<TRIPOS>SUBSTRUCTURE
     1 PY0         1 TEMP              0 ****  ****    0 ROOT
