@<TRIPOS>MOLECULE
PY0
   15    14     1     0     0
SMALL
bcc


@<TRIPOS>ATOM
      1 C3          1.6030    1.2110    0.1540 c3        1 PY0     -0.096100
      2 C2          0.8690   -0.0760    0.4750 c3        1 PY0      0.075100
      3 O3          1.4800   -1.1600   -0.2060 oh        1 PY0     -0.655800
      4 C1         -0.6500    0.0150   -0.0040 c3        1 PY0      0.702500
      5 O1         -1.1190    1.3660    0.2220 oh        1 PY0     -0.664800
      6 O2         -0.7550   -0.1990   -1.2950 o         1 PY0     -0.870500
      7 N          -1.4560   -0.9120    0.8620 n3        1 PY0     -0.986800
      8 H31C        1.3450    1.5270   -0.8860 hc        1 PY0      0.020367
      9 H32C        1.2880    2.0160    0.8580 hc        1 PY0      0.020367
     10 H33C        2.7070    1.0660    0.2320 hc        1 PY0      0.020367
     11 H2          0.9670   -0.3160    1.5670 h1        1 PY0      0.023700
     12 H3          1.0360   -1.2160   -1.0710 ho        1 PY0      0.427000
     13 H1         -1.0170    1.5580    1.1570 ho        1 PY0      0.352000
     14 HN1        -2.4010   -0.8920    0.5320 hn        1 PY0      0.316800
     15 HN2        -1.1040   -1.8370    0.7050 hn        1 PY0      0.316800
@<TRIPOS>BOND
     1    1    2 1   
     2    1    8 1   
     3    1    9 1   
     4    1   10 1   
     5    2    3 1   
     6    2    4 1   
     7    2   11 1   
     8    3   12 1   
     9    4    5 1   
    10    4    6 1   
    11    4    7 1   
    12    5   13 1   
    13    7   14 1   
    14    7   15 1   
@<TRIPOS>SUBSTRUCTURE
     1 PY0         1 TEMP              0 ****  ****    0 ROOT
