@<TRIPOS>MOLECULE
PY0
   16    14     1     0     0
SMALL
bcc


@<TRIPOS>ATOM
      1 C3         -0.1400   -0.3650    0.0770 c3        1 PY0     -0.129100
      2 C2          1.3070    0.0220   -0.1660 c3        1 PY0      0.106100
      3 O3          2.0670   -0.0090    1.0260 oh        1 PY0     -0.587800
      4 C1          1.3800    1.4010   -0.7830 c         1 PY0      0.618100
      5 O1          1.0210    1.4610   -2.0900 oh        1 PY0     -0.591100
      6 O2          1.7150    2.4540   -0.2290 o         1 PY0     -0.568000
      7 N           4.2820    1.0250   -0.7680 n3        1 PY0     -1.032400
      8 H31C       -0.6250    0.3460    0.7860 hc        1 PY0      0.056700
      9 H32C       -0.1800   -1.3900    0.5180 hc        1 PY0      0.056700
     10 H33C       -0.6990   -0.3560   -0.8890 hc        1 PY0      0.056700
     11 H2          1.8210   -0.7150   -0.8500 h1        1 PY0      0.118700
     12 H3          1.7500    0.7040    1.5970 ho        1 PY0      0.417000
     13 H1          1.1460    2.3660   -2.4220 ho        1 PY0      0.448000
     14 HN1         4.0340    1.9570   -0.5060 hn        1 PY0      0.343133
     15 HN2         4.0070    0.4020   -0.0360 hn        1 PY0      0.343133
     16 HN3         5.2710    0.9720   -0.8890 hn        1 PY0      0.343133
@<TRIPOS>BOND
     1    1    2 1   
     2    1    8 1   
     3    1    9 1   
     4    1   10 1   
     5    2    3 1   
     6    2    4 1   
     7    2   11 1   
     8    3   12 1   
     9    4    5 1   
    10    4    6 2   
    11    5   13 1   
    12    7   14 1   
    13    7   15 1   
    14    7   16 1   
@<TRIPOS>SUBSTRUCTURE
     1 PY0         1 TEMP              0 ****  ****    0 ROOT
