@<TRIPOS>MOLECULE
PY0
   16    14     1     0     0
SMALL
bcc


@<TRIPOS>ATOM
      1 C3         -0.1690   -0.2920    0.1110 c3        1 PY0     -0.129100
      2 C2          1.2860    0.0380   -0.1640 c3        1 PY0      0.106100
      3 O3          2.0750   -0.0410    1.0080 oh        1 PY0     -0.587800
      4 C1          1.4010    1.4230   -0.7640 c         1 PY0      0.618100
      5 O1          1.0120    1.5160   -2.0600 oh        1 PY0     -0.591100
      6 O2          1.7930    2.4520   -0.2040 o         1 PY0     -0.568000
      7 N           4.2850    0.9270   -0.8260 n3        1 PY0     -1.032400
      8 H31C       -0.7510   -0.2460   -0.8400 hc        1 PY0      0.056700
      9 H32C       -0.6060    0.4280    0.8430 hc        1 PY0      0.056700
     10 H33C       -0.2400   -1.3200    0.5390 hc        1 PY0      0.056700
     11 H2          1.7520   -0.7090   -0.8710 h1        1 PY0      0.118700
     12 H3          1.8010    0.6760    1.5970 ho        1 PY0      0.417000
     13 H1          1.1670    2.4200   -2.3820 ho        1 PY0      0.448000
     14 HN1         5.2680    0.8370   -0.9730 hn        1 PY0      0.343133
     15 HN2         4.0810    1.8630   -0.5420 hn        1 PY0      0.343133
     16 HN3         4.0030    0.3020   -0.0980 hn        1 PY0      0.343133
@<TRIPOS>BOND
     1    1    2 1   
     2    1    8 1   
     3    1    9 1   
     4    1   10 1   
     5    2    3 1   
     6    2    4 1   
     7    2   11 1   
     8    3   12 1   
     9    4    5 1   
    10    4    6 2   
    11    5   13 1   
    12    7   14 1   
    13    7   15 1   
    14    7   16 1   
@<TRIPOS>SUBSTRUCTURE
     1 PY0         1 TEMP              0 ****  ****    0 ROOT
