@<TRIPOS>MOLECULE
PY1
   33    36     1     0     0
SMALL
bcc


@<TRIPOS>ATOM
      1 C1         -1.1140    0.4460   -0.5320 cc        1 PY1     -0.180300
      2 C2         -0.6250    0.2290   -1.8870 cc        1 PY1      0.269300
      3 N3         -1.3850    0.9490   -2.7700 nd        1 PY1     -0.505800
      4 N4         -2.3070    1.5840   -2.0530 na        1 PY1     -0.010600
      5 C5         -2.1990    1.3290   -0.6870 cd        1 PY1     -0.138300
      6 C8         -0.6400   -0.1420    0.6990 ca        1 PY1      0.063000
      7 C10         0.5140   -0.5990   -2.2950 ca        1 PY1      0.375300
      8 N12         1.5730   -0.6970   -1.4460 nb        1 PY1     -0.646000
      9 C13         2.6060   -1.4610   -1.8350 ca        1 PY1      0.394200
     10 C14         2.6550   -2.1560   -3.0580 ca        1 PY1     -0.243300
     11 C15         1.5660   -2.0470   -3.9200 ca        1 PY1     -0.099000
     12 C16         0.4760   -1.2610   -3.5430 ca        1 PY1     -0.219300
     13 C21        -0.2180    0.6820    1.7950 ca        1 PY1     -0.130300
     14 C22         0.2020    0.0380    3.0010 ca        1 PY1      0.392600
     15 N23         0.2210   -1.3390    3.1330 nb        1 PY1     -0.661000
     16 C24        -0.1630   -2.0590    2.0950 ca        1 PY1      0.412200
     17 C25        -0.6050   -1.5130    0.8520 ca        1 PY1     -0.232300
     18 C28        -0.1880    2.0980    1.7210 ca        1 PY1     -0.110000
     19 C29         0.2230    2.8510    2.7930 ca        1 PY1     -0.132000
     20 C30         0.6240    2.2200    3.9940 ca        1 PY1     -0.126000
     21 C31         0.6190    0.8530    4.1030 ca        1 PY1     -0.166300
     22 HN4        -2.9680    2.1740   -2.5020 hn        1 PY1      0.326700
     23 H5         -2.8740    1.7650    0.0490 h4        1 PY1      0.186000
     24 H13         3.4480   -1.5140   -1.1200 h4        1 PY1      0.025100
     25 H14         3.5320   -2.7640   -3.3170 ha        1 PY1      0.144000
     26 H15         1.5620   -2.5720   -4.8870 ha        1 PY1      0.139000
     27 H16        -0.3950   -1.1550   -4.2040 ha        1 PY1      0.155000
     28 H24        -0.1320   -3.1570    2.2240 h4        1 PY1      0.019100
     29 H25        -0.9060   -2.1890    0.0410 ha        1 PY1      0.146000
     30 H28        -0.4900    2.5810    0.7780 ha        1 PY1      0.137000
     31 H29         0.2490    3.9480    2.7300 ha        1 PY1      0.132000
     32 H30         0.9470    2.8440    4.8410 ha        1 PY1      0.133000
     33 H31         0.9380    0.3610    5.0360 ha        1 PY1      0.148000
@<TRIPOS>BOND
     1    1    2 1   
     2    1    5 2   
     3    1    6 1   
     4    2    3 2   
     5    2    7 1   
     6    3    4 1   
     7    4    5 1   
     8    4   22 1   
     9    5   23 1   
    10    6   13 ar  
    11    6   17 ar  
    12    7    8 ar  
    13    7   12 ar  
    14    8    9 ar  
    15    9   10 ar  
    16    9   24 1   
    17   10   11 ar  
    18   10   25 1   
    19   11   12 ar  
    20   11   26 1   
    21   12   27 1   
    22   13   14 ar  
    23   13   18 ar  
    24   14   15 ar  
    25   14   21 ar  
    26   15   16 ar  
    27   16   17 ar  
    28   16   28 1   
    29   17   29 1   
    30   18   19 ar  
    31   18   30 1   
    32   19   20 ar  
    33   19   31 1   
    34   20   21 ar  
    35   20   32 1   
    36   21   33 1   
@<TRIPOS>SUBSTRUCTURE
     1 PY1         1 TEMP              0 ****  ****    0 ROOT
