@<TRIPOS>MOLECULE
PY1
   33    36     1     0     0
SMALL
bcc


@<TRIPOS>ATOM
      1 C1          0.3550   -0.4670   -0.3900 cc        1 PY1     -0.180300
      2 C2          1.7420   -0.0660   -0.1990 cc        1 PY1      0.269300
      3 N3          2.1180   -0.3150    1.0950 nd        1 PY1     -0.505800
      4 N4          1.0590   -0.8340    1.7080 na        1 PY1     -0.010600
      5 C5         -0.0450   -0.9600    0.8670 cd        1 PY1     -0.138300
      6 C8         -0.4590   -0.3490   -1.5760 ca        1 PY1      0.063000
      7 C10         2.6460    0.5000   -1.2040 ca        1 PY1      0.375300
      8 N12         2.5000    0.0980   -2.4960 nb        1 PY1     -0.646000
      9 C13         3.3360    0.6270   -3.4050 ca        1 PY1      0.394200
     10 C14         4.3440    1.5610   -3.0980 ca        1 PY1     -0.243300
     11 C15         4.4850    1.9640   -1.7720 ca        1 PY1     -0.099000
     12 C16         3.6300    1.4320   -0.8050 ca        1 PY1     -0.219300
     13 C21        -1.0980   -1.4980   -2.1510 ca        1 PY1     -0.130300
     14 C22        -1.9240   -1.3060   -3.3020 ca        1 PY1      0.392600
     15 N23        -2.1130   -0.0620   -3.8740 nb        1 PY1     -0.661000
     16 C24        -1.4960    0.9670   -3.3220 ca        1 PY1      0.412200
     17 C25        -0.6570    0.8810   -2.1700 ca        1 PY1     -0.232300
     18 C28        -0.9280   -2.8070   -1.6310 ca        1 PY1     -0.110000
     19 C29        -1.5580   -3.8810   -2.2110 ca        1 PY1     -0.132000
     20 C30        -2.3890   -3.6960   -3.3400 ca        1 PY1     -0.126000
     21 C31        -2.5710   -2.4480   -3.8790 ca        1 PY1     -0.166300
     22 HN4         1.1170   -1.0970    2.6650 hn        1 PY1      0.326700
     23 H5         -0.9990   -1.3660    1.2030 h4        1 PY1      0.186000
     24 H13         3.1880    0.2750   -4.4420 h4        1 PY1      0.025100
     25 H14         4.9960    1.9550   -3.8880 ha        1 PY1      0.144000
     26 H15         5.2600    2.6910   -1.4860 ha        1 PY1      0.139000
     27 H16         3.7200    1.7300    0.2490 ha        1 PY1      0.155000
     28 H24        -1.6580    1.9490   -3.8030 h4        1 PY1      0.019100
     29 H25        -0.1830    1.7900   -1.7780 ha        1 PY1      0.146000
     30 H28        -0.2700   -2.9450   -0.7590 ha        1 PY1      0.137000
     31 H29        -1.4200   -4.8960   -1.8080 ha        1 PY1      0.132000
     32 H30        -2.8850   -4.5710   -3.7860 ha        1 PY1      0.133000
     33 H31        -3.2130   -2.3040   -4.7620 ha        1 PY1      0.148000
@<TRIPOS>BOND
     1    1    2 1   
     2    1    5 2   
     3    1    6 1   
     4    2    3 2   
     5    2    7 1   
     6    3    4 1   
     7    4    5 1   
     8    4   22 1   
     9    5   23 1   
    10    6   13 ar  
    11    6   17 ar  
    12    7    8 ar  
    13    7   12 ar  
    14    8    9 ar  
    15    9   10 ar  
    16    9   24 1   
    17   10   11 ar  
    18   10   25 1   
    19   11   12 ar  
    20   11   26 1   
    21   12   27 1   
    22   13   14 ar  
    23   13   18 ar  
    24   14   15 ar  
    25   14   21 ar  
    26   15   16 ar  
    27   16   17 ar  
    28   16   28 1   
    29   17   29 1   
    30   18   19 ar  
    31   18   30 1   
    32   19   20 ar  
    33   19   31 1   
    34   20   21 ar  
    35   20   32 1   
    36   21   33 1   
@<TRIPOS>SUBSTRUCTURE
     1 PY1         1 TEMP              0 ****  ****    0 ROOT
