@<TRIPOS>MOLECULE
PY2
   15    15     1     0     0
SMALL
bcc


@<TRIPOS>ATOM
      1 N1         -0.0220    0.0230   -0.0550 nb        1 PY2     -0.664000
      2 C2          1.3220   -0.0020   -0.0070 ca        1 PY2      0.413200
      3 C3          2.0630   -0.0240    1.1960 ca        1 PY2     -0.195600
      4 C4          1.3510   -0.0210    2.4040 ca        1 PY2     -0.075000
      5 C5         -0.0430    0.0040    2.3700 ca        1 PY2     -0.247300
      6 C6         -0.6850    0.0250    1.1190 ca        1 PY2      0.400200
      7 C           3.5370   -0.0380    1.1730 c3        1 PY2      0.063000
      8 S           4.0620   -1.7360    1.2530 sh        1 PY2     -0.366900
      9 H2          1.8390   -0.0090   -0.9850 h4        1 PY2      0.026100
     10 H4          1.8880   -0.0420    3.3640 ha        1 PY2      0.143000
     11 H5         -0.6310    0.0040    3.2970 ha        1 PY2      0.145000
     12 H6         -1.7870    0.0450    1.0470 h4        1 PY2      0.024100
     13 H1          3.9520    0.5280    2.0430 h1        1 PY2      0.068200
     14 H2A         3.9250    0.4360    0.2370 h1        1 PY2      0.068200
     15 HS          5.3680   -1.5460    1.2010 hs        1 PY2      0.196800
@<TRIPOS>BOND
     1    1    2 ar  
     2    1    6 ar  
     3    2    3 ar  
     4    2    9 1   
     5    3    4 ar  
     6    3    7 1   
     7    4    5 ar  
     8    4   10 1   
     9    5    6 ar  
    10    5   11 1   
    11    6   12 1   
    12    7    8 1   
    13    7   13 1   
    14    7   14 1   
    15    8   15 1   
@<TRIPOS>SUBSTRUCTURE
     1 PY2         1 TEMP              0 ****  ****    0 ROOT
