@<TRIPOS>MOLECULE
PY2
   15    15     1     0     0
SMALL
bcc


@<TRIPOS>ATOM
      1 N1          1.2230   -0.1600   -1.9650 nb        1 PY2     -0.664000
      2 C2          1.1790    0.2520   -0.6850 ca        1 PY2      0.413200
      3 C3         -0.0240    0.4660    0.0260 ca        1 PY2     -0.195600
      4 C4         -1.2330    0.2340   -0.6430 ca        1 PY2     -0.075000
      5 C5         -1.2020   -0.1960   -1.9700 ca        1 PY2     -0.247300
      6 C6          0.0490   -0.3780   -2.5890 ca        1 PY2      0.400200
      7 C           0.0030    0.9310    1.4260 c3        1 PY2      0.063000
      8 S          -0.0670   -0.5050    2.4730 sh        1 PY2     -0.366900
      9 H2          2.1570    0.4170   -0.1980 h4        1 PY2      0.026100
     10 H4         -2.1920    0.3840   -0.1260 ha        1 PY2      0.143000
     11 H5         -2.1300   -0.3900   -2.5230 ha        1 PY2      0.145000
     12 H6          0.1180   -0.7170   -3.6380 h4        1 PY2      0.024100
     13 H1         -0.8700    1.5980    1.6380 h1        1 PY2      0.068200
     14 H2A         0.9360    1.5100    1.6350 h1        1 PY2      0.068200
     15 HS         -0.0140    0.0990    3.6470 hs        1 PY2      0.196800
@<TRIPOS>BOND
     1    1    2 ar  
     2    1    6 ar  
     3    2    3 ar  
     4    2    9 1   
     5    3    4 ar  
     6    3    7 1   
     7    4    5 ar  
     8    4   10 1   
     9    5    6 ar  
    10    5   11 1   
    11    6   12 1   
    12    7    8 1   
    13    7   13 1   
    14    7   14 1   
    15    8   15 1   
@<TRIPOS>SUBSTRUCTURE
     1 PY2         1 TEMP              0 ****  ****    0 ROOT
