@<TRIPOS>MOLECULE
PY3
   88    79     1     0     0
SMALL
bcc


@<TRIPOS>ATOM
      1 C3          1.7820    7.0300   -2.0500 c1        1 PY3      0.111000
      2 C4          2.2570    7.2560   -3.3150 c1        1 PY3     -0.115750
      3 C5          3.2740    8.1640   -3.5170 c1        1 PY3     -0.115750
      4 C1          3.3470    8.6220   -1.1920 c1        1 PY3     -0.082000
      5 C2          2.3210    7.7080   -0.9850 c1        1 PY3     -0.238000
      6 N6          3.8150    8.8450   -2.4450 n1        1 PY3     -0.161000
      7 N7          0.6830    6.1170   -1.8460 n         1 PY3     -0.323000
      8 C8          0.2170    5.2640   -2.9550 c2        1 PY3      0.355000
      9 C9         -0.9610    4.2560   -2.7250 c2        1 PY3     -0.119000
     10 O10         0.7620    5.3300   -4.0510 o         1 PY3     -0.331000
     11 C11        -1.0530    3.0640   -1.9660 c1        1 PY3     -0.051000
     12 C12        -2.1690    2.2580   -2.0820 c1        1 PY3     -0.115750
     13 C13        -3.2030    2.6160   -2.9420 c1        1 PY3     -0.115750
     14 C14        -3.1140    3.7890   -3.6890 c1        1 PY3     -0.111000
     15 C15        -1.9810    4.6100   -3.5740 c2        1 PY3     -0.097000
     16 C16        -4.2220    4.1520   -4.6690 c2        1 PY3      0.111000
     17 N17        -4.2310    3.6280   -5.8770 n1        1 PY3     -0.294000
     18 N18        -5.2610    5.0710   -4.2770 n3        1 PY3     -0.331000
     19 C19         0.1210    2.5940   -1.1720 c3        1 PY3     -0.009000
     20 N20        -0.3080    1.5860   -0.2220 n         1 PY3     -0.356000
     21 C21         0.6400    0.5450    0.2280 c2        1 PY3      0.291000
     22 C22         0.2750   -0.3770    1.4580 c3        1 PY3     -0.059000
     23 N23         1.4980   -0.8690    2.0730 n         1 PY3     -0.206000
     24 O24         1.6810    0.3460   -0.4050 o         1 PY3     -0.403000
     25 C25         2.6040   -0.0850    2.1000 c2        1 PY3      0.278000
     26 C26         3.7870   -0.5650    2.6680 c1        1 PY3      0.073000
     27 N27         3.8310   -1.8280    3.1980 n1        1 PY3     -0.161000
     28 C28         2.7340   -2.6100    3.1730 c1        1 PY3     -0.082000
     29 C29         1.5410   -2.1290    2.6020 c1        1 PY3     -0.003000
     30 C30         0.3540   -2.9510    2.6120 c1        1 PY3     -0.033000
     31 N31         4.9230    0.2930    2.7770 n3        1 PY3     -0.267000
     32 C32         6.2830   -0.2680    2.7010 c3        1 PY3      0.010000
     33 C33         7.1010    0.5020    1.6100 c3        1 PY3     -0.231500
     34 C34         6.9650   -0.1170    4.0320 c3        1 PY3     -0.231500
     35 C35        -0.4360   -2.9060    3.7720 c1        1 PY3     -0.161000
     36 C36        -1.5970   -3.7040    3.8670 c1        1 PY3      0.052000
     37 C37        -1.9610   -4.5380    2.8090 c1        1 PY3     -0.131000
     38 C38        -1.1800   -4.5850    1.6600 c1        1 PY3     -0.075000
     39 C39        -0.0080   -3.7800    1.5610 c1        1 PY3     -0.128000
     40 N40        -2.4000   -3.6440    5.0220 n3        1 PY3     -0.327000
     41 C41        -1.5490   -5.5490    0.5260 c2        1 PY3      0.343000
     42 N42        -2.7380   -6.4300    0.6570 n         1 PY3     -0.372000
     43 C43        -3.6390   -6.5810   -0.4450 c3        1 PY3      0.025000
     44 C44        -4.3380   -7.9660   -0.3620 c3        1 PY3     -0.173000
     45 C45        -5.2980   -8.1080   -1.5030 c3        1 PY3     -0.211000
     46 O46        -0.8630   -5.6100   -0.4560 o         1 PY3     -0.379000
     47 C47        -4.6630   -5.5080   -0.3990 c3        1 PY3     -0.228000
     48 O48         2.5670    1.0310    1.6330 o         1 PY3     -0.396000
     49 H4          1.8730    6.7730   -4.0780 ha        1 PY3      0.167500
     50 H5          3.6250    8.3310   -4.4540 ha        1 PY3      0.167500
     51 H1          3.7420    9.1200   -0.4130 ha        1 PY3      0.170000
     52 H2          1.9810    7.5470   -0.0760 ha        1 PY3      0.140000
     53 HN7         0.2840    6.0520   -1.0160 hn        1 PY3      0.238000
     54 H12        -2.2320    1.4350   -1.5580 ha        1 PY3      0.167500
     55 H13        -3.9980    2.0400   -3.0230 ha        1 PY3      0.167500
     56 H15        -1.9180    5.4270   -4.0930 ha        1 PY3      0.147000
     57 H17        -3.5890    3.0600   -6.1220 DU        1 PY3      0.155000
     58 H181       -5.2510    5.4430   -3.4470 hn        1 PY3      0.194500
     59 H182       -5.9120    5.3180   -4.8870 hn        1 PY3      0.194500
     60 H191        0.7850    2.2110   -1.7730 h1        1 PY3      0.127500
     61 H192        0.5130    3.3490   -0.6910 h1        1 PY3      0.127500
     62 H20        -1.1780    1.5830    0.0860 hn        1 PY3      0.255000
     63 H221       -0.2600   -1.1320    1.1520 h1        1 PY3      0.142000
     64 H222       -0.2370    0.1410    2.1170 h1        1 PY3      0.142000
     65 H28         2.7670   -3.5050    3.5500 ha        1 PY3      0.170000
     66 H31         4.8060    1.1950    2.8570 hn        1 PY3      0.227000
     67 H32         6.2330   -1.2270    2.4620 h1        1 PY3      0.123000
     68 H331        7.2140    1.4490    1.8880 hc        1 PY3      0.084500
     69 H332        6.6190    0.4680    0.7570 hc        1 PY3      0.084500
     70 H333        7.9890    0.0820    1.5040 hc        1 PY3      0.084500
     71 H341        6.5230   -0.6800    4.6900 hc        1 PY3      0.084500
     72 H342        6.9170    0.8110    4.3160 hc        1 PY3      0.084500
     73 H343        7.9010   -0.3840    3.9500 hc        1 PY3      0.084500
     74 H35        -0.1820   -2.3190    4.5160 ha        1 PY3      0.141000
     75 H37        -2.7590   -5.0860    2.8760 ha        1 PY3      0.160000
     76 H39         0.5430   -3.8130    0.7510 ha        1 PY3      0.154000
     77 H401       -3.1770   -4.1170    5.0610 hn        1 PY3      0.190500
     78 H402       -2.1580   -3.1060    5.7190 hn        1 PY3      0.190500
     79 H42        -2.8360   -6.9590    1.4050 hn        1 PY3      0.250000
     80 H43        -3.1290   -6.5150   -1.3020 h1        1 PY3      0.126000
     81 H441       -3.6650   -8.6790   -0.4100 hc        1 PY3      0.084000
     82 H442       -4.8240   -8.0350    0.4820 hc        1 PY3      0.084000
     83 H451       -6.2040   -7.8560   -1.2030 hc        1 PY3      0.074667
     84 H452       -5.3030   -9.0520   -1.8170 hc        1 PY3      0.074667
     85 H453       -5.0260   -7.5290   -2.2290 hc        1 PY3      0.074667
     86 H471       -4.2290   -4.6350   -0.5200 hc        1 PY3      0.080333
     87 H472       -5.1200   -5.5280    0.4690 hc        1 PY3      0.080333
     88 H473       -5.3170   -5.6510   -1.1150 hc        1 PY3      0.080333
@<TRIPOS>BOND
     1    1    5 1   
     2    1    7 1   
     3    2    3 1   
     4    2   49 1   
     5    3   50 1   
     6    4    6 1   
     7    4   51 1   
     8    5   52 1   
     9    7    8 1   
    10    7   53 1   
    11    8    9 1   
    12    8   10 1   
    13    9   11 1   
    14    9   15 1   
    15   11   19 1   
    16   12   13 1   
    17   12   54 1   
    18   13   55 1   
    19   14   15 1   
    20   14   16 1   
    21   15   56 1   
    22   16   17 1   
    23   16   18 1   
    24   18   58 1   
    25   18   59 1   
    26   19   20 1   
    27   19   60 1   
    28   19   61 1   
    29   20   21 1   
    30   20   62 1   
    31   21   22 1   
    32   21   24 1   
    33   22   23 1   
    34   22   63 1   
    35   22   64 1   
    36   23   25 1   
    37   23   29 1   
    38   25   26 1   
    39   25   48 1   
    40   26   31 1   
    41   27   28 1   
    42   28   65 1   
    43   30   39 1   
    44   31   32 1   
    45   31   66 1   
    46   32   33 1   
    47   32   34 1   
    48   32   67 1   
    49   33   68 1   
    50   33   69 1   
    51   33   70 1   
    52   34   71 1   
    53   34   72 1   
    54   34   73 1   
    55   35   36 1   
    56   35   74 1   
    57   36   40 1   
    58   37   38 1   
    59   37   75 1   
    60   38   41 1   
    61   39   76 1   
    62   40   77 1   
    63   40   78 1   
    64   41   42 1   
    65   41   46 1   
    66   42   43 1   
    67   42   79 1   
    68   43   44 1   
    69   43   47 1   
    70   43   80 1   
    71   44   45 1   
    72   44   81 1   
    73   44   82 1   
    74   45   83 1   
    75   45   84 1   
    76   45   85 1   
    77   47   86 1   
    78   47   87 1   
    79   47   88 1   
@<TRIPOS>SUBSTRUCTURE
     1 PY3         1 TEMP              0 ****  ****    0 ROOT
