@<TRIPOS>MOLECULE
PY3
   91    94     1     0     0
SMALL
bcc


@<TRIPOS>ATOM
      1 C3          0.1650    1.3960   -0.2710 ca        1 PY3      0.047600
      2 C4          1.3760    2.0870   -0.0320 ca        1 PY3     -0.269300
      3 C5          1.9980    1.9280    1.2170 ca        1 PY3      0.427700
      4 C1          0.3540    0.5080    1.9670 ca        1 PY3      0.427700
      5 C2         -0.3610    0.5900    0.7570 ca        1 PY3     -0.269300
      6 N6          1.5100    1.1520    2.2040 nb        1 PY3     -0.634000
      7 N7         -0.4790    1.5710   -1.5200 ns        1 PY3     -0.430100
      8 C8         -1.4100    0.7290   -2.0660 c         1 PY3      0.667700
      9 C9         -2.0430    1.1250   -3.3730 ca        1 PY3     -0.110600
     10 O10        -1.7290   -0.3630   -1.5380 o         1 PY3     -0.640100
     11 C11        -2.5120    0.1400   -4.2650 ca        1 PY3     -0.055300
     12 C12        -3.0710    0.5320   -5.4900 ca        1 PY3     -0.100000
     13 C13        -3.2190    1.8810   -5.8150 ca        1 PY3     -0.064000
     14 C14        -2.8090    2.8540   -4.9000 ca        1 PY3     -0.230900
     15 C15        -2.2190    2.4780   -3.6880 ca        1 PY3     -0.067000
     16 C16        -2.9410    4.2930   -5.2440 ce        1 PY3      0.565800
     17 N17        -2.1070    5.1080   -5.7580 n2        1 PY3     -0.668100
     18 N18        -4.3050    4.8420   -4.9260 nz        1 PY3     -0.819600
     19 C19        -2.5940   -1.3200   -3.9250 c3        1 PY3      0.151100
     20 N20        -1.2860   -2.0160   -3.7600 ny        1 PY3     -0.671800
     21 C21        -1.4240   -3.5180   -3.7110 c         1 PY3      0.523100
     22 C22        -0.1970   -4.3320   -4.1490 c3        1 PY3      0.028000
     23 N23         0.9200   -4.2750   -3.2520 n         1 PY3     -0.317000
     24 O24        -2.5030   -3.9800   -3.3840 o         1 PY3     -0.393100
     25 C25         1.7640   -3.1620   -3.2930 c         1 PY3      0.551200
     26 C26         3.0520   -3.2150   -2.4780 cc        1 PY3      0.657200
     27 N27         3.2950   -4.2430   -1.6510 nd        1 PY3     -0.614300
     28 C28         2.4170   -5.2880   -1.6600 cd        1 PY3      0.126600
     29 C29         1.2820   -5.3830   -2.4480 cc        1 PY3     -0.106600
     30 C30         0.5280   -6.6460   -2.4590 ca        1 PY3     -0.002800
     31 N31         3.9200   -2.1860   -2.6860 nu        1 PY3     -0.784200
     32 C32         5.2120   -2.0670   -2.0160 c3        1 PY3      0.220500
     33 C33         6.1510   -1.1630   -2.8150 c3        1 PY3     -0.117100
     34 C34         5.0970   -1.5400   -0.5870 c3        1 PY3     -0.117100
     35 C35         0.5640   -7.4770   -3.5750 ca        1 PY3     -0.170000
     36 C36        -0.0760   -8.7500   -3.5620 ca        1 PY3      0.224600
     37 C37        -0.7200   -9.1640   -2.3650 ca        1 PY3     -0.196000
     38 C38        -0.7340   -8.3170   -1.2560 ca        1 PY3     -0.127600
     39 C39        -0.1330   -7.0550   -1.2900 ca        1 PY3     -0.116000
     40 N40        -0.1050   -9.5310   -4.6870 nv        1 PY3     -0.846200
     41 C41        -1.4110   -8.7060   -0.0060 c         1 PY3      0.566700
     42 N42        -1.1590  -10.1150    0.4790 ny        1 PY3     -0.682800
     43 C43        -2.4380  -10.8700    0.8050 c3        1 PY3      0.130500
     44 C44        -3.1800  -11.2680   -0.4750 c3        1 PY3     -0.099400
     45 C45        -4.6010  -11.6700   -0.1640 c3        1 PY3     -0.103100
     46 O46        -2.1110   -8.0020    0.7080 o         1 PY3     -0.406100
     47 C47        -2.1180  -12.0870    1.6600 c3        1 PY3     -0.139100
     48 O48         1.4060   -2.1510   -3.9460 o         1 PY3     -0.718500
     49 H4          1.8330    2.7420   -0.7860 ha        1 PY3      0.159500
     50 H5          2.9440    2.4580    1.4440 h4        1 PY3      0.049100
     51 H1         -0.0340   -0.1100    2.8010 h4        1 PY3      0.049100
     52 H2         -1.3030    0.0360    0.6410 ha        1 PY3      0.159500
     53 HN7        -0.1910    2.3740   -2.0370 hn        1 PY3      0.328500
     54 H12        -3.4210   -0.2280   -6.2110 ha        1 PY3      0.176000
     55 H13        -3.6540    2.1610   -6.7900 ha        1 PY3      0.175000
     56 H15        -1.9140    3.2660   -2.9780 ha        1 PY3      0.165000
     57 H17        -1.1860    4.8010   -6.0000 hn        1 PY3      0.498400
     58 H181       -4.4770    4.7440   -3.9200 hn        1 PY3      0.480133
     59 H182       -5.0060    4.3030   -5.4470 hn        1 PY3      0.480133
     60 H191       -3.1650   -1.4330   -2.9480 hx        1 PY3      0.134200
     61 H192       -3.1670   -1.8710   -4.7290 hx        1 PY3      0.134200
     62 H20        -0.6280   -1.7670   -4.5150 hn        1 PY3      0.485300
     63 H221        0.1140   -3.9520   -5.1700 h1        1 PY3      0.127200
     64 H222       -0.5670   -5.3990   -4.2500 h1        1 PY3      0.127200
     65 H28         2.6980   -6.1170   -0.9810 h4        1 PY3      0.196000
     66 H31         3.6110   -1.4220   -3.2470 hn        1 PY3      0.457800
     67 H32         5.6690   -3.1040   -1.9750 h1        1 PY3      0.092700
     68 H331        6.2920   -1.5400   -3.8560 hc        1 PY3      0.057533
     69 H332        5.7690   -0.1150   -2.8570 hc        1 PY3      0.057533
     70 H333        7.1460   -1.1550   -2.3050 hc        1 PY3      0.057533
     71 H341        4.6880   -0.5020   -0.5710 hc        1 PY3      0.057533
     72 H342        6.1180   -1.5260   -0.1310 hc        1 PY3      0.057533
     73 H343        4.4440   -2.1980    0.0350 hc        1 PY3      0.057533
     74 H35         1.1190   -7.1590   -4.4730 ha        1 PY3      0.159000
     75 H37        -1.2360  -10.1370   -2.3400 ha        1 PY3      0.146000
     76 H39        -0.1680   -6.3940   -0.4100 ha        1 PY3      0.168000
     77 H401       -0.4480  -10.4590   -4.6280 hn        1 PY3      0.448300
     78 H402        0.4880   -9.3050   -5.4490 hn        1 PY3      0.448300
     79 H42        -0.6300  -10.6370   -0.2270 hn        1 PY3      0.461300
     80 H43        -3.0770  -10.1470    1.4010 hx        1 PY3      0.124700
     81 H441       -2.6460  -12.1200   -0.9740 hc        1 PY3      0.057200
     82 H442       -3.1990  -10.4030   -1.1920 hc        1 PY3      0.057200
     83 H451       -5.1400  -10.8580    0.3810 hc        1 PY3      0.065700
     84 H452       -5.1460  -11.8740   -1.1200 hc        1 PY3      0.065700
     85 H453       -4.6320  -12.5990    0.4560 hc        1 PY3      0.065700
     86 H471       -1.5940  -11.8050    2.6060 hc        1 PY3      0.084700
     87 H472       -1.5010  -12.8340    1.1040 hc        1 PY3      0.084700
     88 H473       -3.0860  -12.5780    1.9410 hc        1 PY3      0.084700
     89 H183       -4.3850    5.8390   -5.1870 hn        1 PY3      0.480133
     90 H202       -0.8480   -1.7120   -2.8690 hn        1 PY3      0.485300
     91 H422       -0.5960  -10.0660    1.3380 hn        1 PY3      0.461300
@<TRIPOS>BOND
     1    1    2 ar  
     2    1    5 ar  
     3    1    7 1   
     4    2    3 ar  
     5    2   49 1   
     6    3    6 ar  
     7    3   50 1   
     8    4    5 ar  
     9    4    6 ar  
    10    4   51 1   
    11    5   52 1   
    12    7    8 1   
    13    7   53 1   
    14    8    9 1   
    15    8   10 2   
    16    9   11 ar  
    17    9   15 ar  
    18   11   12 ar  
    19   11   19 1   
    20   12   13 ar  
    21   12   54 1   
    22   13   14 ar  
    23   13   55 1   
    24   14   15 ar  
    25   14   16 1   
    26   15   56 1   
    27   16   17 2   
    28   16   18 1   
    29   17   57 1   
    30   18   58 1   
    31   18   59 1   
    32   18   89 1   
    33   19   20 1   
    34   19   60 1   
    35   19   61 1   
    36   20   21 1   
    37   20   62 1   
    38   20   90 1   
    39   21   22 1   
    40   21   24 2   
    41   22   23 1   
    42   22   63 1   
    43   22   64 1   
    44   23   25 1   
    45   23   29 1   
    46   25   26 1   
    47   25   48 2   
    48   26   27 2   
    49   26   31 1   
    50   27   28 1   
    51   28   29 2   
    52   28   65 1   
    53   29   30 1   
    54   30   35 ar  
    55   30   39 ar  
    56   31   32 1   
    57   31   66 1   
    58   32   33 1   
    59   32   34 1   
    60   32   67 1   
    61   33   68 1   
    62   33   69 1   
    63   33   70 1   
    64   34   71 1   
    65   34   72 1   
    66   34   73 1   
    67   35   36 ar  
    68   35   74 1   
    69   36   37 ar  
    70   36   40 1   
    71   37   38 ar  
    72   37   75 1   
    73   38   39 ar  
    74   38   41 1   
    75   39   76 1   
    76   40   77 1   
    77   40   78 1   
    78   41   42 1   
    79   41   46 2   
    80   42   43 1   
    81   42   79 1   
    82   42   91 1   
    83   43   44 1   
    84   43   47 1   
    85   43   80 1   
    86   44   45 1   
    87   44   81 1   
    88   44   82 1   
    89   45   83 1   
    90   45   84 1   
    91   45   85 1   
    92   47   86 1   
    93   47   87 1   
    94   47   88 1   
@<TRIPOS>SUBSTRUCTURE
     1 PY3         1 TEMP              0 ****  ****    0 ROOT
