@<TRIPOS>MOLECULE
PY3
   94    97     1     0     0
SMALL
bcc


@<TRIPOS>ATOM
      1 C3         -2.8570    3.3310    0.4790 ca        1 PY3     -0.043400
      2 C4         -3.4710    4.5720    0.2320 ca        1 PY3     -0.249300
      3 C5         -2.9380    5.7010    0.8940 ca        1 PY3      0.464200
      4 C1         -1.3130    4.4460    1.9500 ca        1 PY3      0.464200
      5 C2         -1.7610    3.2450    1.3520 ca        1 PY3     -0.249300
      6 N6         -1.8800    5.6440    1.7240 nb        1 PY3     -0.559000
      7 N7         -3.4440    2.1050   -0.0960 n4        1 PY3     -0.531200
      8 C8         -2.4640    1.2670   -0.8650 c         1 PY3      0.563700
      9 C9         -2.1500    1.5770   -2.2780 ca        1 PY3     -0.146600
     10 O10        -1.9980    0.3150   -0.2420 o         1 PY3     -0.441100
     11 C11        -1.5330    0.5880   -3.0980 ca        1 PY3     -0.027300
     12 C12        -1.2520    0.9120   -4.4250 ca        1 PY3     -0.140000
     13 C13        -1.5200    2.1860   -4.9440 ca        1 PY3     -0.009000
     14 C14        -2.0820    3.1690   -4.1280 ca        1 PY3     -0.201900
     15 C15        -2.4030    2.8530   -2.8000 ca        1 PY3     -0.027000
     16 C16        -2.2120    4.5760   -4.6090 ce        1 PY3      0.541800
     17 N17        -1.5370    5.6060   -4.2790 n2        1 PY3     -0.628100
     18 N18        -3.2750    4.7950   -5.6440 n4        1 PY3     -0.815600
     19 C19        -1.1730   -0.7480   -2.4990 c3        1 PY3      0.142100
     20 N20        -0.5610   -1.7730   -3.4100 n4        1 PY3     -0.670800
     21 C21        -0.2450   -3.0850   -2.7070 c         1 PY3      0.532100
     22 C22         0.0440   -4.3150   -3.5920 c3        1 PY3      0.037000
     23 N23         1.3920   -4.8300   -3.4270 n         1 PY3     -0.320000
     24 O24        -0.2580   -3.0900   -1.4910 o         1 PY3     -0.353100
     25 C25         2.4490   -3.8970   -3.5620 c         1 PY3      0.588200
     26 C26         3.8490   -4.4320   -3.5270 cc        1 PY3      0.437200
     27 N27         4.1030   -5.7160   -3.3550 nd        1 PY3     -0.393300
     28 C28         3.0390   -6.5710   -3.2200 cd        1 PY3      0.032600
     29 C29         1.6980   -6.1890   -3.2680 cc        1 PY3      0.079400
     30 C30         0.7180   -7.2990   -3.1590 ca        1 PY3     -0.093800
     31 N31         4.9350   -3.4620   -3.7340 n4        1 PY3     -0.724000
     32 C32         6.2070   -3.6930   -2.8870 c3        1 PY3      0.159500
     33 C33         7.3090   -2.7900   -3.4190 c3        1 PY3     -0.148600
     34 C34         5.9390   -3.4250   -1.4210 c3        1 PY3     -0.148600
     35 C35         0.5160   -8.1350   -4.2720 ca        1 PY3     -0.031000
     36 C36        -0.2000   -9.3380   -4.1240 ca        1 PY3     -0.026400
     37 C37        -0.7230   -9.7110   -2.8680 ca        1 PY3     -0.030000
     38 C38        -0.5290   -8.8660   -1.7740 ca        1 PY3     -0.145600
     39 C39         0.1790   -7.6580   -1.9170 ca        1 PY3     -0.002000
     40 N40        -0.3840  -10.2320   -5.2710 n4        1 PY3     -0.716000
     41 C41        -1.1270   -9.1490   -0.4350 c         1 PY3      0.539700
     42 N42        -0.9340  -10.4900    0.1790 n4        1 PY3     -0.678800
     43 C43        -2.2460  -11.1260    0.6940 c3        1 PY3      0.147500
     44 C44        -3.0360  -11.7400   -0.4620 c3        1 PY3     -0.098400
     45 C45        -4.4680  -11.9890   -0.0440 c3        1 PY3     -0.111100
     46 O46        -1.7390   -8.3000    0.2000 o         1 PY3     -0.366100
     47 C47        -1.9110  -12.1610    1.7540 c3        1 PY3     -0.153100
     48 O48         2.1640   -2.6870   -3.6900 o         1 PY3     -0.668500
     49 H4         -4.3680    4.6890   -0.3940 ha        1 PY3      0.171000
     50 H5         -3.4000    6.7050    0.7640 h4        1 PY3      0.095100
     51 H1         -0.4600    4.4380    2.6660 h4        1 PY3      0.095100
     52 H2         -1.2710    2.2930    1.6070 ha        1 PY3      0.171000
     53 HN7        -4.2450    2.3580   -0.6900 hn        1 PY3      0.488300
     54 H12        -0.7910    0.1890   -5.1190 ha        1 PY3      0.154000
     55 H13        -1.2530    2.4030   -5.9970 ha        1 PY3      0.195000
     56 H15        -2.8300    3.6480   -2.1560 ha        1 PY3      0.180000
     57 H17        -0.7940    5.5670   -3.6120 hn        1 PY3      0.508400
     58 H181       -3.0870    4.2010   -6.4600 hn        1 PY3      0.490800
     59 H182       -4.1960    4.5650   -5.2540 hn        1 PY3      0.490800
     60 H191       -2.1000   -1.2190   -2.0470 hx        1 PY3      0.147700
     61 H192       -0.4310   -0.5770   -1.6530 hx        1 PY3      0.147700
     62 H20        -1.1920   -1.9560   -4.2000 hn        1 PY3      0.479300
     63 H221       -0.7020   -5.1070   -3.2800 h1        1 PY3      0.126200
     64 H222       -0.1130   -4.0610   -4.6820 h1        1 PY3      0.126200
     65 H28         3.3390   -7.6320   -3.0710 h4        1 PY3      0.240000
     66 H31         4.5710   -2.5210   -3.5240 hn        1 PY3      0.477800
     67 H32         6.5020   -4.7760   -3.0460 hx        1 PY3      0.135700
     68 H331        8.2460   -3.0240   -2.8410 hc        1 PY3      0.095367
     69 H332        7.0790   -1.7070   -3.2660 hc        1 PY3      0.095367
     70 H333        7.5320   -2.9790   -4.4980 hc        1 PY3      0.095367
     71 H341        6.8790   -3.6690   -0.8510 hc        1 PY3      0.095367
     72 H342        5.1220   -4.0700   -1.0200 hc        1 PY3      0.095367
     73 H343        5.7000   -2.3510   -1.2290 hc        1 PY3      0.095367
     74 H35         0.9480   -7.8490   -5.2510 ha        1 PY3      0.190000
     75 H37        -1.2960  -10.6530   -2.7500 ha        1 PY3      0.195000
     76 H39         0.3210   -7.0060   -1.0330 ha        1 PY3      0.197000
     77 H401        0.2230  -11.0640   -5.1730 hn        1 PY3      0.496133
     78 H402       -1.3670  -10.5470   -5.3290 hn        1 PY3      0.496133
     79 H42        -0.4910  -11.1370   -0.4790 hn        1 PY3      0.472300
     80 H43        -2.8300  -10.2740    1.1610 hx        1 PY3      0.130700
     81 H441       -3.0310  -11.0440   -1.3440 hc        1 PY3      0.044200
     82 H442       -2.5670  -12.7110   -0.7750 hc        1 PY3      0.044200
     83 H451       -5.0480  -12.3770   -0.9200 hc        1 PY3      0.080700
     84 H452       -4.5240  -12.7580    0.7660 hc        1 PY3      0.080700
     85 H453       -4.9550  -11.0520    0.3170 hc        1 PY3      0.080700
     86 H471       -2.8830  -12.5640    2.1560 hc        1 PY3      0.106033
     87 H472       -1.3570  -11.7180    2.6190 hc        1 PY3      0.106033
     88 H473       -1.3340  -13.0230    1.3400 hc        1 PY3      0.106033
     89 H72        -3.7940    1.5390    0.7050 hn        1 PY3      0.488300
     90 H183       -3.2900    5.7870   -5.9590 hn        1 PY3      0.490800
     91 H202        0.3360   -1.4150   -3.7840 hn        1 PY3      0.479300
     92 H312        5.2170   -3.4970   -4.7280 hn        1 PY3      0.477800
     93 H403       -0.1420   -9.7560   -6.1530 hn        1 PY3      0.496133
     94 H422       -0.3160  -10.3860    1.0020 hn        1 PY3      0.472300
@<TRIPOS>BOND
     1    1    2 ar  
     2    1    5 ar  
     3    1    7 1   
     4    2    3 ar  
     5    2   49 1   
     6    3    6 ar  
     7    3   50 1   
     8    4    5 ar  
     9    4    6 ar  
    10    4   51 1   
    11    5   52 1   
    12    7    8 1   
    13    7   53 1   
    14    7   89 1   
    15    8    9 1   
    16    8   10 2   
    17    9   11 ar  
    18    9   15 ar  
    19   11   12 ar  
    20   11   19 1   
    21   12   13 ar  
    22   12   54 1   
    23   13   14 ar  
    24   13   55 1   
    25   14   15 ar  
    26   14   16 1   
    27   15   56 1   
    28   16   17 2   
    29   16   18 1   
    30   17   57 1   
    31   18   58 1   
    32   18   59 1   
    33   18   90 1   
    34   19   20 1   
    35   19   60 1   
    36   19   61 1   
    37   20   21 1   
    38   20   62 1   
    39   20   91 1   
    40   21   22 1   
    41   21   24 2   
    42   22   23 1   
    43   22   63 1   
    44   22   64 1   
    45   23   25 1   
    46   23   29 1   
    47   25   26 1   
    48   25   48 2   
    49   26   27 2   
    50   26   31 1   
    51   27   28 1   
    52   28   29 2   
    53   28   65 1   
    54   29   30 1   
    55   30   35 ar  
    56   30   39 ar  
    57   31   32 1   
    58   31   66 1   
    59   31   92 1   
    60   32   33 1   
    61   32   34 1   
    62   32   67 1   
    63   33   68 1   
    64   33   69 1   
    65   33   70 1   
    66   34   71 1   
    67   34   72 1   
    68   34   73 1   
    69   35   36 ar  
    70   35   74 1   
    71   36   37 ar  
    72   36   40 1   
    73   37   38 ar  
    74   37   75 1   
    75   38   39 ar  
    76   38   41 1   
    77   39   76 1   
    78   40   77 1   
    79   40   78 1   
    80   40   93 1   
    81   41   42 1   
    82   41   46 2   
    83   42   43 1   
    84   42   79 1   
    85   42   94 1   
    86   43   44 1   
    87   43   47 1   
    88   43   80 1   
    89   44   45 1   
    90   44   81 1   
    91   44   82 1   
    92   45   83 1   
    93   45   84 1   
    94   45   85 1   
    95   47   86 1   
    96   47   87 1   
    97   47   88 1   
@<TRIPOS>SUBSTRUCTURE
     1 PY3         1 TEMP              0 ****  ****    0 ROOT
