@<TRIPOS>MOLECULE
PY3
   88    91     1     0     0
SMALL
bcc


@<TRIPOS>ATOM
      1 C3         32.7310    5.0340   12.4400 ca        1 PY3      0.099600
      2 C4         33.9300    5.7510   12.6880 ca        1 PY3     -0.288800
      3 C5         35.0450    5.0510   13.1650 ca        1 PY3      0.407200
      4 C1         33.9240    3.0520   13.1520 ca        1 PY3      0.407200
      5 C2         32.7400    3.6430   12.6790 ca        1 PY3     -0.288800
      6 N6         35.0630    3.7240   13.3990 nb        1 PY3     -0.682000
      7 N7         31.6110    5.7390   11.9790 n         1 PY3     -0.471100
      8 C8         30.3600    5.2170   11.6700 c         1 PY3      0.677700
      9 C9         29.3140    6.2340   11.3310 ca        1 PY3     -0.135600
     10 O10        30.1040    4.0020   11.6800 o         1 PY3     -0.566100
     11 C11        29.3190    6.9180   10.1100 ca        1 PY3     -0.081300
     12 C12        28.3100    7.8510    9.8440 ca        1 PY3     -0.115000
     13 C13        27.3000    8.0860   10.7740 ca        1 PY3     -0.089000
     14 C14        27.2890    7.3820   11.9830 ca        1 PY3     -0.184900
     15 C15        28.2940    6.4540   12.2610 ca        1 PY3     -0.081000
     16 C16        26.2010    7.6430   12.9820 ce        1 PY3      0.641800
     17 N17        25.9780    8.8040   13.5250 n2        1 PY3     -0.831100
     18 N18        25.3770    6.5330   13.2380 nh        1 PY3     -0.897800
     19 C19        30.3620    6.6560    9.0550 c3        1 PY3      0.120300
     20 N20        31.4930    7.5420    9.1060 n         1 PY3     -0.550900
     21 C21        31.4830    8.7760    8.5030 c         1 PY3      0.647100
     22 C22        32.6690    9.7260    8.7550 c3        1 PY3      0.005000
     23 N23        33.9770    9.1620    8.5200 n         1 PY3     -0.310000
     24 O24        30.5440    9.1500    7.7690 o         1 PY3     -0.633100
     25 C25        34.5840    8.4150    9.5340 c         1 PY3      0.555200
     26 C26        35.9930    7.9090    9.2770 cc        1 PY3      0.581200
     27 N27        36.6140    8.1340    8.1210 nd        1 PY3     -0.591300
     28 C28        35.9540    8.8860    7.1810 cd        1 PY3      0.027600
     29 C29        34.6810    9.4090    7.3300 cc        1 PY3      0.011400
     30 C30        34.1070   10.2210    6.2460 ca        1 PY3     -0.044800
     31 N31        36.5980    7.2850   10.3670 nh        1 PY3     -0.781200
     32 C32        37.8140    6.5020   10.1940 c3        1 PY3      0.205500
     33 C33        38.4560    6.2010   11.5510 c3        1 PY3     -0.116100
     34 C34        37.6110    5.1850    9.4440 c3        1 PY3     -0.116100
     35 C35        34.8530   11.2980    5.7570 ca        1 PY3     -0.162000
     36 C36        34.3670   12.0750    4.6810 ca        1 PY3      0.137600
     37 C37        33.1190   11.7350    4.1080 ca        1 PY3     -0.132000
     38 C38        32.3850   10.6660    4.6150 ca        1 PY3     -0.093600
     39 C39        32.8730    9.8980    5.6750 ca        1 PY3     -0.133000
     40 N40        35.0630   13.2070    4.2480 nh        1 PY3     -0.820200
     41 C41        31.0700   10.3430    3.9730 c         1 PY3      0.667700
     42 N42        30.0240   10.0540    4.8140 n         1 PY3     -0.560900
     43 C43        28.7230    9.6520    4.3240 c3        1 PY3      0.104700
     44 C44        28.0730    8.5810    5.2170 c3        1 PY3     -0.090400
     45 C45        28.9010    7.3290    5.3240 c3        1 PY3     -0.096100
     46 O46        30.9410   10.3630    2.7300 o         1 PY3     -0.614100
     47 C47        27.7510   10.8280    4.1930 c3        1 PY3     -0.109100
     48 O48        33.9590    8.1750   10.5930 o         1 PY3     -0.688500
     49 H4         33.9990    6.8350   12.5040 ha        1 PY3      0.172000
     50 H5         35.9870    5.5890   13.3790 h4        1 PY3      0.023100
     51 H1         33.9560    1.9640   13.3470 h4        1 PY3      0.023100
     52 H2         31.8520    3.0180   12.5050 ha        1 PY3      0.172000
     53 HN7        31.7170    6.7320   11.9420 hn        1 PY3      0.330500
     54 H12        28.3270    8.4030    8.8880 ha        1 PY3      0.164000
     55 H13        26.5060    8.8180   10.5560 ha        1 PY3      0.152000
     56 H15        28.2910    5.8930   13.2090 ha        1 PY3      0.148000
     57 H17        26.5670    9.5340   13.1870 hn        1 PY3      0.394400
     58 H181       24.7600    6.6150   14.0150 hn        1 PY3      0.405800
     59 H182       25.8440    5.6570   13.1750 hn        1 PY3      0.405800
     60 H191       30.7440    5.5990    9.1610 h1        1 PY3      0.081200
     61 H192       29.8740    6.7560    8.0380 h1        1 PY3      0.081200
     62 H20        32.1980    7.3430    9.7810 hn        1 PY3      0.334500
     63 H221       32.5190   10.6250    8.0890 h1        1 PY3      0.105700
     64 H222       32.6070   10.0560    9.8350 h1        1 PY3      0.105700
     65 H28        36.5210    9.0500    6.2470 h4        1 PY3      0.182000
     66 H31        35.9470    6.9130   11.0320 hn        1 PY3      0.428800
     67 H32        38.5390    7.1390    9.6020 h1        1 PY3      0.082700
     68 H331       39.4330    5.6920   11.3740 hc        1 PY3      0.046867
     69 H332       38.6410    7.1390   12.1260 hc        1 PY3      0.046867
     70 H333       37.8090    5.5250   12.1610 hc        1 PY3      0.046867
     71 H341       38.5990    4.6780    9.3300 hc        1 PY3      0.046867
     72 H342       36.9270    4.5050   10.0050 hc        1 PY3      0.046867
     73 H343       37.1880    5.3660    8.4270 hc        1 PY3      0.046867
     74 H35        35.8220   11.5380    6.2220 ha        1 PY3      0.143000
     75 H37        32.7150   12.3040    3.2540 ha        1 PY3      0.159000
     76 H39        32.2950    9.0400    6.0540 ha        1 PY3      0.152000
     77 H401       34.8390   13.5030    3.3240 hn        1 PY3      0.397300
     78 H402       36.0400   13.1920    4.4370 hn        1 PY3      0.397300
     79 H42        30.1680   10.0370    5.7990 hn        1 PY3      0.335500
     80 H43        28.8730    9.2120    3.2890 h1        1 PY3      0.076700
     81 H441       27.8940    9.0020    6.2420 hc        1 PY3      0.046200
     82 H442       27.0720    8.3380    4.7720 hc        1 PY3      0.046200
     83 H451       28.3220    6.5290    5.8460 hc        1 PY3      0.036367
     84 H452       29.1890    6.9540    4.3120 hc        1 PY3      0.036367
     85 H453       29.8340    7.5220    5.9100 hc        1 PY3      0.036367
     86 H471       26.7910   10.4610    3.7590 hc        1 PY3      0.041033
     87 H472       27.5410   11.2880    5.1880 hc        1 PY3      0.041033
     88 H473       28.1720   11.6100    3.5170 hc        1 PY3      0.041033
@<TRIPOS>BOND
     1    1    2 ar  
     2    1    5 ar  
     3    1    7 1   
     4    2    3 ar  
     5    2   49 1   
     6    3    6 ar  
     7    3   50 1   
     8    4    5 ar  
     9    4    6 ar  
    10    4   51 1   
    11    5   52 1   
    12    7    8 1   
    13    7   53 1   
    14    8    9 1   
    15    8   10 2   
    16    9   11 ar  
    17    9   15 ar  
    18   11   12 ar  
    19   11   19 1   
    20   12   13 ar  
    21   12   54 1   
    22   13   14 ar  
    23   13   55 1   
    24   14   15 ar  
    25   14   16 1   
    26   15   56 1   
    27   16   17 2   
    28   16   18 1   
    29   17   57 1   
    30   18   58 1   
    31   18   59 1   
    32   19   20 1   
    33   19   60 1   
    34   19   61 1   
    35   20   21 1   
    36   20   62 1   
    37   21   22 1   
    38   21   24 2   
    39   22   23 1   
    40   22   63 1   
    41   22   64 1   
    42   23   25 1   
    43   23   29 1   
    44   25   26 1   
    45   25   48 2   
    46   26   27 2   
    47   26   31 1   
    48   27   28 1   
    49   28   29 2   
    50   28   65 1   
    51   29   30 1   
    52   30   35 ar  
    53   30   39 ar  
    54   31   32 1   
    55   31   66 1   
    56   32   33 1   
    57   32   34 1   
    58   32   67 1   
    59   33   68 1   
    60   33   69 1   
    61   33   70 1   
    62   34   71 1   
    63   34   72 1   
    64   34   73 1   
    65   35   36 ar  
    66   35   74 1   
    67   36   37 ar  
    68   36   40 1   
    69   37   38 ar  
    70   37   75 1   
    71   38   39 ar  
    72   38   41 1   
    73   39   76 1   
    74   40   77 1   
    75   40   78 1   
    76   41   42 1   
    77   41   46 2   
    78   42   43 1   
    79   42   79 1   
    80   43   44 1   
    81   43   47 1   
    82   43   80 1   
    83   44   45 1   
    84   44   81 1   
    85   44   82 1   
    86   45   83 1   
    87   45   84 1   
    88   45   85 1   
    89   47   86 1   
    90   47   87 1   
    91   47   88 1   
@<TRIPOS>SUBSTRUCTURE
     1 PY3         1 TEMP              0 ****  ****    0 ROOT
