@<TRIPOS>MOLECULE
PY4
   39    39     1     0     0
SMALL
bcc


@<TRIPOS>ATOM
      1 N1          0.0740    0.0870   -0.1460 nb        1 PY4     -0.675000
      2 C2          1.4090    0.1700    0.0550 ca        1 PY4      0.328600
      3 C2A         2.3410    0.2710   -1.1060 c3        1 PY4     -0.118400
      4 C3          1.9710    0.1770    1.3650 ca        1 PY4      0.032800
      5 O3          3.3330    0.2820    1.4150 oh        1 PY4     -0.534100
      6 C4          1.1250    0.0960    2.4930 ca        1 PY4     -0.128300
      7 C4A         1.7160    0.0840    3.8730 c3        1 PY4      0.189100
      8 C5         -0.2550    0.0040    2.2680 ca        1 PY4     -0.133600
      9 C6         -0.7180    0.0030    0.9320 ca        1 PY4      0.364200
     10 C5A        -1.2410   -0.0950    3.3890 c3        1 PY4      0.210700
     11 O4P        -2.5540   -0.1150    2.9080 os        1 PY4     -0.574200
     12 P          -3.6850   -0.4900    4.0500 p5        1 PY4      1.428800
     13 O1P        -5.0010   -0.5090    3.3870 o         1 PY4     -0.841000
     14 O2P        -3.1170   -1.5510    4.9130 o         1 PY4     -0.841000
     15 O3P        -3.5320    0.8360    4.9970 oh        1 PY4     -0.786400
     16 N           2.3080    1.3570    4.2640 n7        1 PY4     -0.796200
     17 CA          3.2270    1.2210    5.3930 c3        1 PY4      0.037500
     18 C           4.5600    0.4690    5.0960 c         1 PY4      0.891600
     19 O           4.8020    0.0750    3.9140 o         1 PY4     -0.852300
     20 CB          3.5880    2.5880    5.9890 c3        1 PY4     -0.060400
     21 CG          2.4120    3.2710    6.6350 c3        1 PY4     -0.083100
     22 OXT         5.3500    0.2770    6.0610 o         1 PY4     -0.852300
     23 H2A1        3.1550   -0.4880   -0.9890 hc        1 PY4      0.034033
     24 H2A2        1.8250    0.1070   -2.0820 hc        1 PY4      0.034033
     25 H2A3        2.8130    1.2850   -1.1100 hc        1 PY4      0.034033
     26 HO3         3.6570    0.0910    2.3220 ho        1 PY4      0.486000
     27 H4A1        0.9160   -0.1470    4.6330 h1        1 PY4      0.052200
     28 H4A2        2.4700   -0.7620    3.9160 h1        1 PY4      0.052200
     29 H6         -1.8060   -0.0640    0.7400 h4        1 PY4      0.046100
     30 H5A1       -1.0590   -1.0390    3.9820 h1        1 PY4      0.048200
     31 H5A2       -1.1270    0.7930    4.0740 h1        1 PY4      0.048200
     32 HN2        -2.9750    0.6670    5.7490 ho        1 PY4      0.423000
     33 HA          2.6960    0.6250    6.1910 h1        1 PY4      0.048700
     34 HB1         4.0200    3.2490    5.1940 hc        1 PY4      0.040700
     35 HB2         4.3930    2.4070    6.7510 hc        1 PY4      0.040700
     36 HG1         1.6150    3.4890    5.8840 hc        1 PY4      0.018700
     37 HG2         2.7300    4.2350    7.1040 hc        1 PY4      0.018700
     38 HG3         1.9710    2.6230    7.4310 hc        1 PY4      0.018700
     39 H2          2.8210    1.7380    3.4850 hn        1 PY4      0.348800
@<TRIPOS>BOND
     1    1    2 ar  
     2    1    9 ar  
     3    2    3 1   
     4    2    4 ar  
     5    3   23 1   
     6    3   24 1   
     7    3   25 1   
     8    4    5 1   
     9    4    6 ar  
    10    5   26 1   
    11    6    7 1   
    12    6    8 ar  
    13    7   16 1   
    14    7   27 1   
    15    7   28 1   
    16    8    9 ar  
    17    8   10 1   
    18    9   29 1   
    19   10   11 1   
    20   10   30 1   
    21   10   31 1   
    22   11   12 1   
    23   12   13 1   
    24   12   14 1   
    25   12   15 1   
    26   15   32 1   
    27   16   17 1   
    28   16   39 1   
    29   17   18 1   
    30   17   20 1   
    31   17   33 1   
    32   18   19 1   
    33   18   22 1   
    34   20   21 1   
    35   20   34 1   
    36   20   35 1   
    37   21   36 1   
    38   21   37 1   
    39   21   38 1   
@<TRIPOS>SUBSTRUCTURE
     1 PY4         1 TEMP              0 ****  ****    0 ROOT
