@<TRIPOS>MOLECULE
PY4
   38    38     1     0     0
SMALL
bcc


@<TRIPOS>ATOM
      1 N1         -3.4230    0.2640    0.7670 nb        1 PY4     -0.683000
      2 C2         -3.3670    0.0560   -0.5790 ca        1 PY4      0.296600
      3 C2A        -4.6240    0.0700   -1.3830 c3        1 PY4     -0.104400
      4 C3         -2.1450   -0.2040   -1.2380 ca        1 PY4      0.008800
      5 O3         -2.2360   -0.4710   -2.5880 oh        1 PY4     -0.550100
      6 C4         -0.9290   -0.2180   -0.5090 ca        1 PY4     -0.158300
      7 C4A         0.3490   -0.5830   -1.2100 c3        1 PY4      0.203100
      8 C5         -0.9950    0.0300    0.8640 ca        1 PY4     -0.144600
      9 C6         -2.2800    0.2410    1.4520 ca        1 PY4      0.368200
     10 C5A         0.1930    0.0530    1.8000 c3        1 PY4      0.243700
     11 O4P         0.0110    0.8810    2.8770 os        1 PY4     -0.565200
     12 P          -0.2270    0.1190    4.4200 p5        1 PY4      1.315900
     13 O1P         0.3400    1.1230    5.3830 o         1 PY4     -0.926167
     14 O2P        -1.7300   -0.0240    4.4120 o         1 PY4     -0.926167
     15 O3P         0.5430   -1.1670    4.2720 o         1 PY4     -0.926167
     16 N           0.6500    0.2340   -2.3750 n3        1 PY4     -0.829200
     17 CA          1.9380   -0.0280   -2.9960 c3        1 PY4      0.065500
     18 C           1.9090    0.2920   -4.5310 c         1 PY4      0.923600
     19 O           2.1410   -0.6700   -5.3200 o         1 PY4     -0.860300
     20 CB          3.1350    0.7560   -2.4360 c3        1 PY4     -0.101400
     21 CG          3.4750    0.4440   -1.0040 c3        1 PY4     -0.098100
     22 OXT         1.7220    1.4810   -4.9120 o         1 PY4     -0.860300
     23 H2A1       -4.9310   -0.9790   -1.6170 hc        1 PY4      0.018033
     24 H2A2       -5.4630    0.5750   -0.8450 hc        1 PY4      0.018033
     25 H2A3       -4.4400    0.6010   -2.3500 hc        1 PY4      0.018033
     26 HO3        -1.3490   -0.4020   -2.9790 ho        1 PY4      0.453000
     27 H4A1        0.2380   -1.6450   -1.5850 h1        1 PY4      0.033200
     28 H4A2        1.1930   -0.6000   -0.4600 h1        1 PY4      0.033200
     29 H6         -2.3060    0.3620    2.5840 h4        1 PY4      0.145100
     30 H5A1        0.3900   -1.0090    2.1410 h1        1 PY4      0.019700
     31 H5A2        1.0900    0.4220    1.2130 h1        1 PY4      0.019700
     32 HN2         0.5510    1.2090   -2.1720 hn        1 PY4      0.365800
     33 HA          2.1590   -1.1300   -2.8930 h1        1 PY4      0.038700
     34 HB1         2.9320    1.8530   -2.5530 hc        1 PY4      0.034200
     35 HB2         4.0170    0.5150   -3.0880 hc        1 PY4      0.034200
     36 HG1         4.4660    0.8860   -0.7340 hc        1 PY4      0.025367
     37 HG2         2.7100    0.8650   -0.3060 hc        1 PY4      0.025367
     38 HG3         3.5300   -0.6590   -0.8380 hc        1 PY4      0.025367
@<TRIPOS>BOND
     1    1    2 ar  
     2    1    9 ar  
     3    2    3 1   
     4    2    4 ar  
     5    3   23 1   
     6    3   24 1   
     7    3   25 1   
     8    4    5 1   
     9    4    6 ar  
    10    5   26 1   
    11    6    7 1   
    12    6    8 ar  
    13    7   16 1   
    14    7   27 1   
    15    7   28 1   
    16    8    9 ar  
    17    8   10 1   
    18    9   29 1   
    19   10   11 1   
    20   10   30 1   
    21   10   31 1   
    22   11   12 1   
    23   12   13 1   
    24   12   14 1   
    25   12   15 1   
    26   16   17 1   
    27   16   32 1   
    28   17   18 1   
    29   17   20 1   
    30   17   33 1   
    31   18   19 1   
    32   18   22 1   
    33   20   21 1   
    34   20   34 1   
    35   20   35 1   
    36   21   36 1   
    37   21   37 1   
    38   21   38 1   
@<TRIPOS>SUBSTRUCTURE
     1 PY4         1 TEMP              0 ****  ****    0 ROOT
