@<TRIPOS>MOLECULE
PY4
   39    39     1     0     0
SMALL
bcc


@<TRIPOS>ATOM
      1 N1         -0.0290    0.0920   -0.0170 nb        1 PY4     -0.676000
      2 C2          1.2910    0.3370    0.1510 ca        1 PY4      0.331600
      3 C2A         2.1500    0.6650   -1.0240 c3        1 PY4     -0.119400
      4 C3          1.9000    0.3050    1.4390 ca        1 PY4      0.028800
      5 O3          3.2400    0.5830    1.4620 oh        1 PY4     -0.538100
      6 C4          1.1180    0.0240    2.5810 ca        1 PY4     -0.122300
      7 C4A         1.7620   -0.0230    3.9370 c3        1 PY4      0.189100
      8 C5         -0.2460   -0.2400    2.3890 ca        1 PY4     -0.154600
      9 C6         -0.7570   -0.1930    1.0720 ca        1 PY4      0.370200
     10 C5A        -1.1570   -0.5990    3.5270 c3        1 PY4      0.238700
     11 O4P        -2.4430   -0.9040    3.0830 os        1 PY4     -0.579200
     12 P          -3.7120   -0.2710    3.9350 p5        1 PY4      1.430800
     13 O1P        -4.9450   -0.8940    3.4200 o         1 PY4     -0.839500
     14 O2P        -3.2850   -0.1850    5.3490 o         1 PY4     -0.839500
     15 O3P        -3.6020    1.2820    3.4410 oh        1 PY4     -0.784400
     16 N           2.3090    1.2540    4.3760 n3        1 PY4     -0.796200
     17 CA          3.2940    1.0990    5.4450 c3        1 PY4      0.039500
     18 C           4.6250    0.3880    5.0510 c         1 PY4      0.890600
     19 O           4.8260    0.0630    3.8400 o         1 PY4     -0.853300
     20 CB          3.6610    2.4500    6.0720 c3        1 PY4     -0.061400
     21 CG          2.5080    3.0850    6.8030 c3        1 PY4     -0.083100
     22 OXT         5.4560    0.1540    5.9720 o         1 PY4     -0.853300
     23 H2A1        3.0970    0.0720   -0.9630 hc        1 PY4      0.034367
     24 H2A2        1.6430    0.4470   -1.9940 hc        1 PY4      0.034367
     25 H2A3        2.4180    1.7500   -0.9920 hc        1 PY4      0.034367
     26 HO3         3.6370    0.2560    2.2980 ho        1 PY4      0.485000
     27 H4A1        2.5570   -0.8320    3.9040 h1        1 PY4      0.052700
     28 H4A2        1.0060   -0.3280    4.7150 h1        1 PY4      0.052700
     29 H6         -1.8300   -0.4020    0.9010 h4        1 PY4      0.045100
     30 H5A1       -1.1960    0.2460    4.2740 h1        1 PY4      0.039700
     31 H5A2       -0.7250   -1.5120    4.0350 h1        1 PY4      0.039700
     32 HN2         2.7540    1.7160    3.6000 hn        1 PY4      0.348800
     33 HA          2.8190    0.4620    6.2470 h1        1 PY4      0.049700
     34 HB1         4.0380    3.1480    5.2800 hc        1 PY4      0.039700
     35 HB2         4.5080    2.2580    6.7840 hc        1 PY4      0.039700
     36 HG1         1.6690    3.3150    6.1030 hc        1 PY4      0.019700
     37 HG2         2.8320    4.0370    7.2910 hc        1 PY4      0.019700
     38 HG3         2.1200    2.3990    7.5940 hc        1 PY4      0.019700
     39 H2         -3.0870    1.8100    4.0400 ho        1 PY4      0.425000
@<TRIPOS>BOND
     1    1    2 ar  
     2    1    9 ar  
     3    2    3 1   
     4    2    4 ar  
     5    3   23 1   
     6    3   24 1   
     7    3   25 1   
     8    4    5 1   
     9    4    6 ar  
    10    5   26 1   
    11    6    7 1   
    12    6    8 ar  
    13    7   16 1   
    14    7   27 1   
    15    7   28 1   
    16    8    9 ar  
    17    8   10 1   
    18    9   29 1   
    19   10   11 1   
    20   10   30 1   
    21   10   31 1   
    22   11   12 1   
    23   12   13 1   
    24   12   14 1   
    25   12   15 1   
    26   15   39 1   
    27   16   17 1   
    28   16   32 1   
    29   17   18 1   
    30   17   20 1   
    31   17   33 1   
    32   18   19 1   
    33   18   22 1   
    34   20   21 1   
    35   20   34 1   
    36   20   35 1   
    37   21   36 1   
    38   21   37 1   
    39   21   38 1   
@<TRIPOS>SUBSTRUCTURE
     1 PY4         1 TEMP              0 ****  ****    0 ROOT
