@<TRIPOS>MOLECULE
PY4
   39    39     1     0     0
SMALL
bcc


@<TRIPOS>ATOM
      1 N1         -0.0050    0.0560   -0.0190 nb        1 PY4     -0.676000
      2 C2          1.3140    0.2980    0.1570 ca        1 PY4      0.331600
      3 C2A         2.1830    0.6090   -1.0160 c3        1 PY4     -0.119400
      4 C3          1.9130    0.2790    1.4490 ca        1 PY4      0.028800
      5 O3          3.2540    0.5510    1.4790 oh        1 PY4     -0.538100
      6 C4          1.1220    0.0140    2.5880 ca        1 PY4     -0.122300
      7 C4A         1.7560   -0.0200    3.9490 c3        1 PY4      0.189100
      8 C5         -0.2410   -0.2470    2.3890 ca        1 PY4     -0.154600
      9 C6         -0.7420   -0.2140    1.0680 ca        1 PY4      0.370200
     10 C5A        -1.1620   -0.5890    3.5240 c3        1 PY4      0.238700
     11 O4P        -2.4460   -0.8940    3.0740 os        1 PY4     -0.579200
     12 P          -3.7190   -0.2460    3.9100 p5        1 PY4      1.430800
     13 O1P        -4.9500   -0.8690    3.3920 o         1 PY4     -0.839500
     14 O2P        -3.3030   -0.1460    5.3260 o         1 PY4     -0.839500
     15 O3P        -3.5980    1.3010    3.3990 oh        1 PY4     -0.784400
     16 N           2.3050    1.2610    4.3780 n3        1 PY4     -0.796200
     17 CA          3.2810    1.1140    5.4560 c3        1 PY4      0.039500
     18 C           4.6120    0.3940    5.0800 c         1 PY4      0.890600
     19 O           4.8210    0.0540    3.8740 o         1 PY4     -0.853300
     20 CB          3.6480    2.4710    6.0700 c3        1 PY4     -0.061400
     21 CG          2.4920    3.1180    6.7850 c3        1 PY4     -0.083100
     22 OXT         5.4360    0.1670    6.0090 o         1 PY4     -0.853300
     23 H2A1        3.1270    0.0120   -0.9410 hc        1 PY4      0.034367
     24 H2A2        1.6820    0.3830   -1.9880 hc        1 PY4      0.034367
     25 H2A3        2.4560    1.6930   -0.9940 hc        1 PY4      0.034367
     26 HO3         3.6440    0.2330    2.3220 ho        1 PY4      0.485000
     27 H4A1        2.5470   -0.8330    3.9320 h1        1 PY4      0.052700
     28 H4A2        0.9930   -0.3130    4.7250 h1        1 PY4      0.052700
     29 H6         -1.8150   -0.4200    0.8910 h4        1 PY4      0.045100
     30 H5A1       -0.7380   -1.4980    4.0460 h1        1 PY4      0.039700
     31 H5A2       -1.2040    0.2650    4.2610 h1        1 PY4      0.039700
     32 HN2        -3.0850    1.8330    3.9970 ho        1 PY4      0.425000
     33 HA          2.7970    0.4880    6.2620 h1        1 PY4      0.049700
     34 HB1         4.4890    2.2840    6.7900 hc        1 PY4      0.039700
     35 HB2         4.0340    3.1580    5.2730 hc        1 PY4      0.039700
     36 HG1         2.0960    2.4420    7.5810 hc        1 PY4      0.019700
     37 HG2         2.8160    4.0740    7.2650 hc        1 PY4      0.019700
     38 HG3         1.6590    3.3430    6.0760 hc        1 PY4      0.019700
     39 H2          2.7570    1.7110    3.5990 hn        1 PY4      0.348800
@<TRIPOS>BOND
     1    1    2 ar  
     2    1    9 ar  
     3    2    3 1   
     4    2    4 ar  
     5    3   23 1   
     6    3   24 1   
     7    3   25 1   
     8    4    5 1   
     9    4    6 ar  
    10    5   26 1   
    11    6    7 1   
    12    6    8 ar  
    13    7   16 1   
    14    7   27 1   
    15    7   28 1   
    16    8    9 ar  
    17    8   10 1   
    18    9   29 1   
    19   10   11 1   
    20   10   30 1   
    21   10   31 1   
    22   11   12 1   
    23   12   13 1   
    24   12   14 1   
    25   12   15 1   
    26   15   32 1   
    27   16   17 1   
    28   16   39 1   
    29   17   18 1   
    30   17   20 1   
    31   17   33 1   
    32   18   19 1   
    33   18   22 1   
    34   20   21 1   
    35   20   34 1   
    36   20   35 1   
    37   21   36 1   
    38   21   37 1   
    39   21   38 1   
@<TRIPOS>SUBSTRUCTURE
     1 PY4         1 TEMP              0 ****  ****    0 ROOT
