@<TRIPOS>MOLECULE
PY5
   41    41     1     0     0
SMALL
bcc


@<TRIPOS>ATOM
      1 N1          3.3580    0.3320   -0.4610 nb        1 PY5     -0.687000
      2 C2          3.0930   -0.0550    0.8200 ca        1 PY5      0.300600
      3 C2A         4.1950   -0.0940    1.8240 c3        1 PY5     -0.104400
      4 C3          1.7980   -0.4510    1.2160 ca        1 PY5     -0.009200
      5 O3          1.6770   -0.8940    2.5210 oh        1 PY5     -0.551100
      6 C4          0.7200   -0.4300    0.2950 ca        1 PY5     -0.134300
      7 C4A        -0.6380   -0.9300    0.7240 c3        1 PY5      0.214100
      8 C5          1.0010   -0.0070   -1.0060 ca        1 PY5     -0.144600
      9 C6          2.3490    0.3440   -1.3290 ca        1 PY5      0.371200
     10 C5A        -0.0080    0.0710   -2.1320 c3        1 PY5      0.241700
     11 O4P         0.2920    1.0420   -3.0530 os        1 PY5     -0.566200
     12 P           0.8720    0.5150   -4.6010 p5        1 PY5      1.316900
     13 O1P         0.3770    1.5860   -5.5320 o         1 PY5     -0.926167
     14 O2P         2.3600    0.5050   -4.3360 o         1 PY5     -0.926167
     15 O3P         0.2400   -0.8430   -4.7520 o         1 PY5     -0.926167
     16 N          -1.3230   -0.0510    1.6600 n3        1 PY5     -0.837200
     17 CA         -1.8130   -0.6710    2.8840 c3        1 PY5      0.054500
     18 C          -3.2770   -1.2190    2.8410 c         1 PY5      0.890600
     19 O          -3.5390   -2.2110    3.5840 o         1 PY5     -0.854300
     20 CB         -1.7900    0.3210    4.0610 c3        1 PY5     -0.059400
     21 CG         -0.3930    0.7210    4.4790 c3        1 PY5     -0.089400
     22 CD         -0.4160    1.6830    5.6400 c3        1 PY5     -0.081100
     23 OXT        -4.1330   -0.6380    2.1180 o         1 PY5     -0.854300
     24 H2A1        4.5450   -1.1480    1.9580 hc        1 PY5      0.016367
     25 H2A2        5.0670    0.5320    1.5160 hc        1 PY5      0.016367
     26 H2A3        3.8150    0.2730    2.8100 hc        1 PY5      0.016367
     27 HO3         0.7460   -0.8280    2.7710 ho        1 PY5      0.429000
     28 H4A1       -0.4810   -1.9540    1.1780 h1        1 PY5      0.038700
     29 H4A2       -1.2630   -1.0870   -0.2030 h1        1 PY5      0.038700
     30 H6          2.5560    0.6200   -2.4170 h4        1 PY5      0.148100
     31 H5A1       -0.0540   -0.9470   -2.6280 h1        1 PY5      0.024200
     32 H5A2       -1.0160    0.3060   -1.6750 h1        1 PY5      0.024200
     33 HN2        -2.0890    0.4080    1.2010 hn        1 PY5      0.383800
     34 HA         -1.1490   -1.5430    3.1580 h1        1 PY5      0.032700
     35 HB1        -2.3110   -0.1750    4.9220 hc        1 PY5      0.034200
     36 HB2        -2.3790    1.2350    3.7890 hc        1 PY5      0.034200
     37 HG1         0.1420    1.1920    3.6110 hc        1 PY5      0.048700
     38 HG2         0.1900   -0.1940    4.7680 hc        1 PY5      0.048700
     39 HD1         0.6230    1.9610    5.9420 hc        1 PY5      0.010033
     40 HD2        -0.9630    2.6170    5.3640 hc        1 PY5      0.010033
     41 HD3        -0.9280    1.2280    6.5220 hc        1 PY5      0.010033
@<TRIPOS>BOND
     1    1    2 ar  
     2    1    9 ar  
     3    2    3 1   
     4    2    4 ar  
     5    3   24 1   
     6    3   25 1   
     7    3   26 1   
     8    4    5 1   
     9    4    6 ar  
    10    5   27 1   
    11    6    7 1   
    12    6    8 ar  
    13    7   16 1   
    14    7   28 1   
    15    7   29 1   
    16    8    9 ar  
    17    8   10 1   
    18    9   30 1   
    19   10   11 1   
    20   10   31 1   
    21   10   32 1   
    22   11   12 1   
    23   12   13 1   
    24   12   14 1   
    25   12   15 1   
    26   16   17 1   
    27   16   33 1   
    28   17   18 1   
    29   17   20 1   
    30   17   34 1   
    31   18   19 1   
    32   18   23 1   
    33   20   21 1   
    34   20   35 1   
    35   20   36 1   
    36   21   22 1   
    37   21   37 1   
    38   21   38 1   
    39   22   39 1   
    40   22   40 1   
    41   22   41 1   
@<TRIPOS>SUBSTRUCTURE
     1 PY5         1 TEMP              0 ****  ****    0 ROOT
