@<TRIPOS>MOLECULE
PY5
   41    38     1     0     0
SMALL
bcc


@<TRIPOS>ATOM
      1 N1         -2.1550   -0.6380   -3.6040 n1        1 PY5     -0.161000
      2 C2         -0.7870   -0.6000   -3.6070 c1        1 PY5     -0.123000
      3 C2A        -0.0180   -0.5420   -4.9470 c3        1 PY5     -0.127000
      4 C3         -0.0880   -0.6120   -2.4060 c1        1 PY5      0.016000
      5 O3          1.3190   -0.6800   -2.4120 o         1 PY5     -0.305000
      6 C4         -0.7720   -0.6620   -1.2160 c2        1 PY5     -0.129000
      7 C4A        -0.0040   -0.7160    0.1070 c3        1 PY5     -0.026000
      8 C5         -2.1370   -0.7010   -1.2150 c1        1 PY5     -0.074000
      9 C6         -2.8350   -0.6880   -2.4210 c1        1 PY5     -0.094000
     10 C5A        -2.8930   -0.8050    0.0990 c3        1 PY5      0.084000
     11 O4P        -4.2520   -1.0600   -0.1610 os        1 PY5     -0.728000
     12 P          -5.1640   -1.5880    1.0280 p5        1 PY5      1.549500
     13 O1P        -5.3080   -0.5050    2.0710 o         1 PY5     -0.926500
     14 O2P        -6.5280   -1.9550    0.4910 o         1 PY5     -0.926500
     15 O3P        -4.5230   -2.8060    1.6510 o         1 PY5     -0.926500
     16 N           0.7290    0.5200    0.2920 n3        1 PY5     -0.326000
     17 CA          1.6220    0.3830    1.3990 c3        1 PY5     -0.091000
     18 C           0.8300    0.1560    2.6560 c2        1 PY5      0.314000
     19 O           0.8630   -0.9660    3.2280 o         1 PY5     -0.589500
     20 CB          2.4520    1.6520    1.5460 c3        1 PY5     -0.140000
     21 CG          3.7740    1.3220    2.2690 c3        1 PY5     -0.178000
     22 CD          4.3930    2.6030    2.8080 c3        1 PY5     -0.197000
     23 OXT         0.1030    1.0760    3.1160 o         1 PY5     -0.589500
     24 H2A1        0.6050    0.2180   -4.9350 hc        1 PY5      0.055667
     25 H2A2       -0.6560   -0.4310   -5.6870 hc        1 PY5      0.055667
     26 H2A3        0.4840   -1.3740   -5.0710 hc        1 PY5      0.055667
     27 HO3         1.5750   -1.4850   -2.6850 ho        1 PY5      0.231000
     28 H4A1       -0.6400   -0.8350    0.8500 h1        1 PY5      0.076500
     29 H4A2        0.6210   -1.4660    0.0900 h1        1 PY5      0.076500
     30 H6         -3.8080   -0.7160   -2.4200 ha        1 PY5      0.284000
     31 H5A1       -2.8070    0.0350    0.5920 h1        1 PY5      0.062500
     32 H5A2       -2.5200   -1.5370    0.6330 h1        1 PY5      0.062500
     33 HN2         0.1360    1.2080    0.4600 hn        1 PY5      0.186000
     34 HA          2.2120   -0.3750    1.2470 h1        1 PY5      0.072000
     35 HB1         1.9480    2.3150    2.0710 hc        1 PY5      0.070000
     36 HB2         2.6470    2.0180    0.6620 hc        1 PY5      0.070000
     37 HG1         4.3940    0.9000    1.6390 hc        1 PY5      0.095500
     38 HG2         3.5950    0.7080    3.0130 hc        1 PY5      0.095500
     39 HD1         3.8400    2.9530    3.5270 hc        1 PY5      0.047667
     40 HD2         5.2990    2.4110    3.1520 hc        1 PY5      0.047667
     41 HD3         4.4510    3.2660    2.0880 hc        1 PY5      0.047667
@<TRIPOS>BOND
     1    1    9 1   
     2    2    3 1   
     3    2    4 1   
     4    3   24 1   
     5    3   25 1   
     6    3   26 1   
     7    4    6 1   
     8    5   27 1   
     9    6    7 1   
    10    6    8 1   
    11    7   16 1   
    12    7   28 1   
    13    7   29 1   
    14    8   10 1   
    15    9   30 1   
    16   10   11 1   
    17   10   31 1   
    18   10   32 1   
    19   11   12 1   
    20   12   13 1   
    21   12   14 1   
    22   12   15 1   
    23   16   17 1   
    24   16   33 1   
    25   17   18 1   
    26   17   20 1   
    27   17   34 1   
    28   18   19 1   
    29   18   23 1   
    30   20   21 1   
    31   20   35 1   
    32   20   36 1   
    33   21   22 1   
    34   21   37 1   
    35   21   38 1   
    36   22   39 1   
    37   22   40 1   
    38   22   41 1   
@<TRIPOS>SUBSTRUCTURE
     1 PY5         1 TEMP              0 ****  ****    0 ROOT
