@<TRIPOS>MOLECULE
PY5
   42    42     1     0     0
SMALL
bcc


@<TRIPOS>ATOM
      1 N1          1.4410   -0.4210    0.0810 nb        1 PY5     -0.673000
      2 C2          2.5580   -0.8220    0.7270 ca        1 PY5      0.324600
      3 C2A         3.7300   -1.3340   -0.0410 c3        1 PY5     -0.117400
      4 C3          2.6630   -0.7760    2.1500 ca        1 PY5      0.040800
      5 O3          3.8490   -1.2310    2.6550 oh        1 PY5     -0.538100
      6 C4          1.5760   -0.3080    2.9160 ca        1 PY5     -0.122300
      7 C4A         1.6350   -0.2850    4.4180 c3        1 PY5      0.190100
      8 C5          0.4210    0.1020    2.2300 ca        1 PY5     -0.133600
      9 C6          0.4140    0.0250    0.8200 ca        1 PY5      0.358200
     10 C5A        -0.7800    0.6190    2.9610 c3        1 PY5      0.215700
     11 O4P        -1.8030    0.9820    2.0830 os        1 PY5     -0.578200
     12 P          -3.3490    0.5860    2.5090 p5        1 PY5      1.430800
     13 O1P        -4.2080    0.8060    1.3320 o         1 PY5     -0.840000
     14 O2P        -3.3030   -0.6280    3.3540 o         1 PY5     -0.840000
     15 O3P        -3.5910    1.7580    3.6280 oh        1 PY5     -0.784400
     16 N           2.0290    1.0020    4.9710 n3        1 PY5     -0.800200
     17 CA          3.4710    1.2320    4.9800 c3        1 PY5      0.036500
     18 C           4.2400    0.2580    5.9260 c         1 PY5      0.881600
     19 O           4.4630    0.6010    7.1180 o         1 PY5     -0.844800
     20 CB          3.8220    2.6700    5.3740 c3        1 PY5     -0.051400
     21 CG          3.3190    3.6890    4.3760 c3        1 PY5     -0.084400
     22 CD          3.7680    5.0830    4.7360 c3        1 PY5     -0.085100
     23 OXT         4.5880   -0.8620    5.4390 o         1 PY5     -0.844800
     24 H2A1        3.8920   -2.4120    0.2130 hc        1 PY5      0.033033
     25 H2A2        4.6440   -0.7670    0.2650 hc        1 PY5      0.033033
     26 H2A3        3.5920   -1.2380   -1.1450 hc        1 PY5      0.033033
     27 HO3         3.9060   -1.0460    3.6190 ho        1 PY5      0.486000
     28 H4A1        0.6010   -0.5200    4.8090 h1        1 PY5      0.050200
     29 H4A2        2.3130   -1.1220    4.7710 h1        1 PY5      0.050200
     30 H6         -0.4850    0.3530    0.2650 h4        1 PY5      0.042100
     31 H5A1       -0.4560    1.5320    3.5450 h1        1 PY5      0.051200
     32 H5A2       -1.1580   -0.1710    3.6760 h1        1 PY5      0.051200
     33 HN2        -3.4270    1.4370    4.5070 ho        1 PY5      0.420000
     34 HA          3.8410    1.0540    3.9270 h1        1 PY5      0.046700
     35 HB1         3.4140    2.8890    6.3950 hc        1 PY5      0.039700
     36 HB2         4.9390    2.7290    5.4490 hc        1 PY5      0.039700
     37 HG1         3.6930    3.4270    3.3520 hc        1 PY5      0.045700
     38 HG2         2.1980    3.6550    4.3330 hc        1 PY5      0.045700
     39 HD1         3.3850    5.8230    3.9920 hc        1 PY5      0.014367
     40 HD2         3.3880    5.3700    5.7460 hc        1 PY5      0.014367
     41 HD3         4.8830    5.1470    4.7530 hc        1 PY5      0.014367
     42 H2          1.6950    1.0570    5.9180 hn        1 PY5      0.349800
@<TRIPOS>BOND
     1    1    2 ar  
     2    1    9 ar  
     3    2    3 1   
     4    2    4 ar  
     5    3   24 1   
     6    3   25 1   
     7    3   26 1   
     8    4    5 1   
     9    4    6 ar  
    10    5   27 1   
    11    6    7 1   
    12    6    8 ar  
    13    7   16 1   
    14    7   28 1   
    15    7   29 1   
    16    8    9 ar  
    17    8   10 1   
    18    9   30 1   
    19   10   11 1   
    20   10   31 1   
    21   10   32 1   
    22   11   12 1   
    23   12   13 1   
    24   12   14 1   
    25   12   15 1   
    26   15   33 1   
    27   16   17 1   
    28   16   42 1   
    29   17   18 1   
    30   17   20 1   
    31   17   34 1   
    32   18   19 1   
    33   18   23 1   
    34   20   21 1   
    35   20   35 1   
    36   20   36 1   
    37   21   22 1   
    38   21   37 1   
    39   21   38 1   
    40   22   39 1   
    41   22   40 1   
    42   22   41 1   
@<TRIPOS>SUBSTRUCTURE
     1 PY5         1 TEMP              0 ****  ****    0 ROOT
