@<TRIPOS>MOLECULE
PY5
   42    42     1     0     0
SMALL
bcc


@<TRIPOS>ATOM
      1 N1          1.3590   -0.5400    0.1420 nb        1 PY5     -0.673000
      2 C2          2.4620   -0.9620    0.7990 ca        1 PY5      0.324600
      3 C2A         3.6060   -1.5550    0.0460 c3        1 PY5     -0.117400
      4 C3          2.5800   -0.8610    2.2180 ca        1 PY5      0.040800
      5 O3          3.7490   -1.3450    2.7350 oh        1 PY5     -0.538100
      6 C4          1.5180   -0.3170    2.9700 ca        1 PY5     -0.122300
      7 C4A         1.5900   -0.2340    4.4700 c3        1 PY5      0.190100
      8 C5          0.3780    0.1140    2.2740 ca        1 PY5     -0.133600
      9 C6          0.3580   -0.0210    0.8680 ca        1 PY5      0.358200
     10 C5A        -0.7960    0.7120    2.9890 c3        1 PY5      0.215700
     11 O4P        -1.8080    1.0810    2.1020 os        1 PY5     -0.578200
     12 P          -3.3660    0.7700    2.5520 p5        1 PY5      1.430800
     13 O1P        -4.2240    0.9780    1.3720 o         1 PY5     -0.840000
     14 O2P        -3.3660   -0.4100    3.4470 o         1 PY5     -0.840000
     15 O3P        -3.5500    1.9950    3.6230 oh        1 PY5     -0.784400
     16 N           2.0420    1.0570    4.9660 n3        1 PY5     -0.800200
     17 CA          3.4930    1.2260    4.9580 c3        1 PY5      0.036500
     18 C           4.2250    0.2590    5.9400 c         1 PY5      0.881600
     19 O           4.4710    0.6400    7.1160 o         1 PY5     -0.844800
     20 CB          3.9070    2.6620    5.2900 c3        1 PY5     -0.051400
     21 CG          3.4410    3.6600    4.2540 c3        1 PY5     -0.084400
     22 CD          3.9530    5.0460    4.5520 c3        1 PY5     -0.085100
     23 OXT         4.5230   -0.8930    5.4970 o         1 PY5     -0.844800
     24 H2A1        4.5460   -1.0140    0.3240 hc        1 PY5      0.033033
     25 H2A2        3.4650   -1.4990   -1.0590 hc        1 PY5      0.033033
     26 H2A3        3.7240   -2.6260    0.3450 hc        1 PY5      0.033033
     27 HO3         3.8200   -1.1240    3.6900 ho        1 PY5      0.486000
     28 H4A1        0.5500   -0.4070    4.8750 h1        1 PY5      0.050200
     29 H4A2        2.2340   -1.0840    4.8530 h1        1 PY5      0.050200
     30 H6         -0.5310    0.3220    0.3050 h4        1 PY5      0.042100
     31 H5A1       -0.4290    1.6330    3.5330 h1        1 PY5      0.051200
     32 H5A2       -1.2020   -0.0310    3.7380 h1        1 PY5      0.051200
     33 HN2        -3.3940    1.7040    4.5140 ho        1 PY5      0.420000
     34 HA          3.8480    0.9880    3.9120 h1        1 PY5      0.047700
     35 HB1         3.5170    2.9410    6.3030 hc        1 PY5      0.039700
     36 HB2         5.0270    2.6760    5.3570 hc        1 PY5      0.039700
     37 HG1         2.3200    3.6720    4.2170 hc        1 PY5      0.045700
     38 HG2         3.7980    3.3390    3.2390 hc        1 PY5      0.045700
     39 HD1         3.5920    5.3910    5.5520 hc        1 PY5      0.014367
     40 HD2         3.5970    5.7710    3.7810 hc        1 PY5      0.014367
     41 HD3         5.0700    5.0630    4.5620 hc        1 PY5      0.014367
     42 H2          1.7180    1.1660    5.9110 hn        1 PY5      0.349800
@<TRIPOS>BOND
     1    1    2 ar  
     2    1    9 ar  
     3    2    3 1   
     4    2    4 ar  
     5    3   24 1   
     6    3   25 1   
     7    3   26 1   
     8    4    5 1   
     9    4    6 ar  
    10    5   27 1   
    11    6    7 1   
    12    6    8 ar  
    13    7   16 1   
    14    7   28 1   
    15    7   29 1   
    16    8    9 ar  
    17    8   10 1   
    18    9   30 1   
    19   10   11 1   
    20   10   31 1   
    21   10   32 1   
    22   11   12 1   
    23   12   13 1   
    24   12   14 1   
    25   12   15 1   
    26   15   33 1   
    27   16   17 1   
    28   16   42 1   
    29   17   18 1   
    30   17   20 1   
    31   17   34 1   
    32   18   19 1   
    33   18   23 1   
    34   20   21 1   
    35   20   35 1   
    36   20   36 1   
    37   21   22 1   
    38   21   37 1   
    39   21   38 1   
    40   22   39 1   
    41   22   40 1   
    42   22   41 1   
@<TRIPOS>SUBSTRUCTURE
     1 PY5         1 TEMP              0 ****  ****    0 ROOT
