@<TRIPOS>MOLECULE
PY5
   42    42     1     0     0
SMALL
bcc


@<TRIPOS>ATOM
      1 N1          1.2200   -0.5870    0.1870 nb        1 PY5     -0.673000
      2 C2          2.3650   -0.9790    0.7900 ca        1 PY5      0.324600
      3 C2A         3.4800   -1.5580   -0.0150 c3        1 PY5     -0.117400
      4 C3          2.5530   -0.8600    2.1990 ca        1 PY5      0.040800
      5 O3          3.7570   -1.3150    2.6600 oh        1 PY5     -0.538100
      6 C4          1.5220   -0.3270    3.0000 ca        1 PY5     -0.122300
      7 C4A         1.6690   -0.2250    4.4920 c3        1 PY5      0.190100
      8 C5          0.3380    0.0720    2.3590 ca        1 PY5     -0.134600
      9 C6          0.2480   -0.0790    0.9580 ca        1 PY5      0.358200
     10 C5A        -0.8090    0.6550    3.1280 c3        1 PY5      0.215700
     11 O4P        -1.8730    0.9940    2.2910 os        1 PY5     -0.578200
     12 P          -3.3990    0.6580    2.8250 p5        1 PY5      1.430800
     13 O1P        -4.3210    0.8350    1.6880 o         1 PY5     -0.840000
     14 O2P        -3.3280   -0.5110    3.7320 o         1 PY5     -0.840000
     15 O3P        -3.5520    1.8920    3.8900 oh        1 PY5     -0.784400
     16 N           2.1200    1.0810    4.9500 n7        1 PY5     -0.800200
     17 CA          3.5650    1.2770    4.8650 c3        1 PY5      0.036500
     18 C           4.3670    0.3370    5.8180 c         1 PY5      0.881600
     19 O           4.6660    0.7370    6.9750 o         1 PY5     -0.844800
     20 CB          3.9670    2.7250    5.1590 c3        1 PY5     -0.051400
     21 CG          3.4290    3.7010    4.1370 c3        1 PY5     -0.084400
     22 CD          3.9270    5.1010    4.3940 c3        1 PY5     -0.085100
     23 OXT         4.6640   -0.8150    5.3730 o         1 PY5     -0.844800
     24 H2A1        3.6360   -2.6230    0.2890 hc        1 PY5      0.033033
     25 H2A2        4.4210   -0.9960    0.2060 hc        1 PY5      0.033033
     26 H2A3        3.2790   -1.5200   -1.1130 hc        1 PY5      0.033033
     27 HO3         3.8740   -1.0800    3.6070 ho        1 PY5      0.486000
     28 H4A1        2.3490   -1.0580    4.8510 h1        1 PY5      0.050200
     29 H4A2        0.6550   -0.4140    4.9530 h1        1 PY5      0.050200
     30 H6         -0.6760    0.2390    0.4380 h4        1 PY5      0.042100
     31 H5A1       -1.1600   -0.0860    3.9050 h1        1 PY5      0.051200
     32 H5A2       -0.4330    1.5900    3.6420 h1        1 PY5      0.051200
     33 HN2         1.8430    1.1940    5.9100 hn        1 PY5      0.349800
     34 HA          3.8700    1.0340    3.8040 h1        1 PY5      0.047700
     35 HB1         5.0880    2.7620    5.1680 hc        1 PY5      0.039700
     36 HB2         3.6240    3.0080    6.1880 hc        1 PY5      0.039700
     37 HG1         3.7380    3.3750    3.1090 hc        1 PY5      0.045700
     38 HG2         2.3070    3.6920    4.1590 hc        1 PY5      0.045700
     39 HD1         3.6110    5.4500    5.4070 hc        1 PY5      0.014367
     40 HD2         5.0420    5.1390    4.3450 hc        1 PY5      0.014367
     41 HD3         3.5170    5.8090    3.6340 hc        1 PY5      0.014367
     42 H2         -3.3440    1.6150    4.7750 ho        1 PY5      0.420000
@<TRIPOS>BOND
     1    1    2 ar  
     2    1    9 ar  
     3    2    3 1   
     4    2    4 ar  
     5    3   24 1   
     6    3   25 1   
     7    3   26 1   
     8    4    5 1   
     9    4    6 ar  
    10    5   27 1   
    11    6    7 1   
    12    6    8 ar  
    13    7   16 1   
    14    7   28 1   
    15    7   29 1   
    16    8    9 ar  
    17    8   10 1   
    18    9   30 1   
    19   10   11 1   
    20   10   31 1   
    21   10   32 1   
    22   11   12 1   
    23   12   13 1   
    24   12   14 1   
    25   12   15 1   
    26   15   42 1   
    27   16   17 1   
    28   16   33 1   
    29   17   18 1   
    30   17   20 1   
    31   17   34 1   
    32   18   19 1   
    33   18   23 1   
    34   20   21 1   
    35   20   35 1   
    36   20   36 1   
    37   21   22 1   
    38   21   37 1   
    39   21   38 1   
    40   22   39 1   
    41   22   40 1   
    42   22   41 1   
@<TRIPOS>SUBSTRUCTURE
     1 PY5         1 TEMP              0 ****  ****    0 ROOT
