@<TRIPOS>MOLECULE
PY6
   44    44     1     0     0
SMALL
bcc


@<TRIPOS>ATOM
      1 N1         -3.3420   -0.2480   -0.5860 nb        1 PY6     -0.687000
      2 C2         -3.0430    0.2270    0.6570 ca        1 PY6      0.300600
      3 C2A        -4.1240    0.3620    1.6760 c3        1 PY6     -0.104400
      4 C3         -1.7330    0.6240    0.9980 ca        1 PY6     -0.009200
      5 O3         -1.5770    1.1590    2.2640 oh        1 PY6     -0.551100
      6 C4         -0.6750    0.5130    0.0610 ca        1 PY6     -0.134300
      7 C4A         0.7010    1.0160    0.4260 c3        1 PY6      0.214100
      8 C5         -0.9900    0.0020   -1.2000 ca        1 PY6     -0.144600
      9 C6         -2.3510   -0.3450   -1.4710 ca        1 PY6      0.371200
     10 C5A        -0.0060   -0.1800   -2.3360 c3        1 PY6      0.241700
     11 O4P        -0.3430   -1.2090   -3.1760 os        1 PY6     -0.566200
     12 P          -0.9440   -0.7870   -4.7480 p5        1 PY6      1.316900
     13 O1P        -0.4880   -1.9330   -5.6060 o         1 PY6     -0.926167
     14 O2P        -2.4250   -0.7270   -4.4560 o         1 PY6     -0.926167
     15 O3P        -0.2900    0.5430   -5.0100 o         1 PY6     -0.926167
     16 N           1.3900    0.1920    1.4070 n3        1 PY6     -0.837200
     17 CA          1.9150    0.8860    2.5760 c3        1 PY6      0.054500
     18 C           3.3870    1.4030    2.4680 c         1 PY6      0.890600
     19 O           3.6800    2.4380    3.1370 o         1 PY6     -0.853800
     20 CB          1.8980   -0.0230    3.8190 c3        1 PY6     -0.060400
     21 CG          0.5030   -0.3690    4.2860 c3        1 PY6     -0.086400
     22 CD          0.5390   -1.2590    5.5130 c3        1 PY6     -0.076400
     23 CE         -0.8480   -1.6010    5.9920 c3        1 PY6     -0.088100
     24 OXT         4.2180    0.7580    1.7700 o         1 PY6     -0.853800
     25 H2A1       -4.4540    1.4290    1.7340 hc        1 PY6      0.016367
     26 H2A2       -5.0120   -0.2710    1.4340 hc        1 PY6      0.016367
     27 H2A3       -3.7300    0.0670    2.6800 hc        1 PY6      0.016367
     28 HO3        -0.6430    1.0880    2.5020 ho        1 PY6      0.429000
     29 H4A1        0.5710    2.0720    0.8090 h1        1 PY6      0.038700
     30 H4A2        1.3080    1.0960   -0.5230 h1        1 PY6      0.038700
     31 H6         -2.5850   -0.6960   -2.5310 h4        1 PY6      0.148100
     32 H5A1        0.0490    0.7980   -2.9060 h1        1 PY6      0.024200
     33 H5A2        1.0070   -0.4000   -1.8820 h1        1 PY6      0.024200
     34 HN2         2.1400   -0.3110    0.9660 hn        1 PY6      0.383800
     35 HA          1.2710    1.7870    2.8020 h1        1 PY6      0.032700
     36 HB1         2.4430    0.5230    4.6340 hc        1 PY6      0.035200
     37 HB2         2.4690   -0.9620    3.5990 hc        1 PY6      0.035200
     38 HG1        -0.0570   -0.8880    3.4630 hc        1 PY6      0.049200
     39 HG2        -0.0600    0.5710    4.5280 hc        1 PY6      0.049200
     40 HD1         1.1060   -0.7450    6.3330 hc        1 PY6      0.023200
     41 HD2         1.0960   -2.2030    5.2690 hc        1 PY6      0.023200
     42 HE1        -0.8040   -2.2680    6.8870 hc        1 PY6      0.019700
     43 HE2        -1.4070   -0.6750    6.2700 hc        1 PY6      0.019700
     44 HE3        -1.4210   -2.1230    5.1880 hc        1 PY6      0.019700
@<TRIPOS>BOND
     1    1    2 ar  
     2    1    9 ar  
     3    2    3 1   
     4    2    4 ar  
     5    3   25 1   
     6    3   26 1   
     7    3   27 1   
     8    4    5 1   
     9    4    6 ar  
    10    5   28 1   
    11    6    7 1   
    12    6    8 ar  
    13    7   16 1   
    14    7   29 1   
    15    7   30 1   
    16    8    9 ar  
    17    8   10 1   
    18    9   31 1   
    19   10   11 1   
    20   10   32 1   
    21   10   33 1   
    22   11   12 1   
    23   12   13 1   
    24   12   14 1   
    25   12   15 1   
    26   16   17 1   
    27   16   34 1   
    28   17   18 1   
    29   17   20 1   
    30   17   35 1   
    31   18   19 1   
    32   18   24 1   
    33   20   21 1   
    34   20   36 1   
    35   20   37 1   
    36   21   22 1   
    37   21   38 1   
    38   21   39 1   
    39   22   23 1   
    40   22   40 1   
    41   22   41 1   
    42   23   42 1   
    43   23   43 1   
    44   23   44 1   
@<TRIPOS>SUBSTRUCTURE
     1 PY6         1 TEMP              0 ****  ****    0 ROOT
