@<TRIPOS>MOLECULE
PY6
   45    45     1     0     0
SMALL
bcc


@<TRIPOS>ATOM
      1 N1          0.7650   -0.8390    0.2080 nb        1 PY6     -0.673000
      2 C2          1.9790   -1.1130    0.7360 ca        1 PY6      0.324600
      3 C2A         3.0670   -1.6650   -0.1230 c3        1 PY6     -0.117400
      4 C3          2.2680   -0.8930    2.1160 ca        1 PY6      0.039800
      5 O3          3.5330   -1.2370    2.5020 oh        1 PY6     -0.538100
      6 C4          1.2660   -0.3830    2.9670 ca        1 PY6     -0.122300
      7 C4A         1.5200   -0.1780    4.4340 c3        1 PY6      0.191100
      8 C5          0.0090   -0.1060    2.4050 ca        1 PY6     -0.133600
      9 C6         -0.1790   -0.3510    1.0260 ca        1 PY6      0.359200
     10 C5A        -1.1140    0.4440    3.2300 c3        1 PY6      0.215700
     11 O4P        -2.2650    0.6490    2.4670 os        1 PY6     -0.579200
     12 P          -3.7120    0.2360    3.1460 p5        1 PY6      1.430800
     13 O1P        -4.7320    0.2700    2.0820 o         1 PY6     -0.840000
     14 O2P        -3.4780   -0.8620    4.1110 o         1 PY6     -0.840000
     15 O3P        -3.8780    1.5230    4.1460 oh        1 PY6     -0.784400
     16 N           1.8990    1.1840    4.7800 n7        1 PY6     -0.799200
     17 CA          3.3150    1.4780    4.5620 c3        1 PY6      0.035500
     18 C           4.2530    0.6560    5.5000 c         1 PY6      0.880600
     19 O           4.6680   -0.4600    5.0610 o         1 PY6     -0.844300
     20 CB          3.6000    2.9750    4.7290 c3        1 PY6     -0.056400
     21 CG          4.9770    3.3090    4.1970 c3        1 PY6     -0.078400
     22 CD          5.3040    4.7740    4.3950 c3        1 PY6     -0.077400
     23 CE          6.6710    5.1160    3.8620 c3        1 PY6     -0.087100
     24 OXT         4.5350    1.1050    6.6430 o         1 PY6     -0.844300
     25 H2A1        3.9830   -1.0350   -0.0030 hc        1 PY6      0.033033
     26 H2A2        2.7830   -1.6970   -1.2020 hc        1 PY6      0.033033
     27 H2A3        3.3130   -2.7010    0.2190 hc        1 PY6      0.033033
     28 HO3         3.7140   -0.9180    3.4140 ho        1 PY6      0.485000
     29 H4A1        0.5640   -0.4140    4.9880 h1        1 PY6      0.049200
     30 H4A2        2.2920   -0.9320    4.7800 h1        1 PY6      0.049200
     31 H6         -1.1610   -0.1300    0.5670 h4        1 PY6      0.042100
     32 H5A1       -0.7700    1.4360    3.6520 h1        1 PY6      0.051700
     33 H5A2       -1.3440   -0.2660    4.0790 h1        1 PY6      0.051700
     34 HN2         1.6950    1.3340    5.7530 hn        1 PY6      0.350800
     35 HA          3.5520    1.1900    3.4960 h1        1 PY6      0.047700
     36 HB1         3.5500    3.2310    5.8210 hc        1 PY6      0.038200
     37 HB2         2.8300    3.5860    4.1900 hc        1 PY6      0.038200
     38 HG1         5.7330    2.6730    4.7320 hc        1 PY6      0.047700
     39 HG2         5.0360    3.0560    3.1060 hc        1 PY6      0.047700
     40 HD1         4.5310    5.4040    3.8790 hc        1 PY6      0.030200
     41 HD2         5.2540    5.0200    5.4890 hc        1 PY6      0.030200
     42 HE1         7.4540    4.5090    4.3780 hc        1 PY6      0.019700
     43 HE2         6.7310    4.9020    2.7670 hc        1 PY6      0.019700
     44 HE3         6.8980    6.1970    4.0240 hc        1 PY6      0.019700
     45 H2         -3.5780    1.3210    5.0250 ho        1 PY6      0.420000
@<TRIPOS>BOND
     1    1    2 ar  
     2    1    9 ar  
     3    2    3 1   
     4    2    4 ar  
     5    3   25 1   
     6    3   26 1   
     7    3   27 1   
     8    4    5 1   
     9    4    6 ar  
    10    5   28 1   
    11    6    7 1   
    12    6    8 ar  
    13    7   16 1   
    14    7   29 1   
    15    7   30 1   
    16    8    9 ar  
    17    8   10 1   
    18    9   31 1   
    19   10   11 1   
    20   10   32 1   
    21   10   33 1   
    22   11   12 1   
    23   12   13 1   
    24   12   14 1   
    25   12   15 1   
    26   15   45 1   
    27   16   17 1   
    28   16   34 1   
    29   17   18 1   
    30   17   20 1   
    31   17   35 1   
    32   18   19 1   
    33   18   24 1   
    34   20   21 1   
    35   20   36 1   
    36   20   37 1   
    37   21   22 1   
    38   21   38 1   
    39   21   39 1   
    40   22   23 1   
    41   22   40 1   
    42   22   41 1   
    43   23   42 1   
    44   23   43 1   
    45   23   44 1   
@<TRIPOS>SUBSTRUCTURE
     1 PY6         1 TEMP              0 ****  ****    0 ROOT
