@<TRIPOS>MOLECULE
PY6
   45    45     1     0     0
SMALL
bcc


@<TRIPOS>ATOM
      1 N1          1.4050   -0.6330    0.1350 nb        1 PY6     -0.673000
      2 C2          2.4600   -1.1740    0.7860 ca        1 PY6      0.324600
      3 C2A         3.5300   -1.8850    0.0260 c3        1 PY6     -0.117400
      4 C3          2.5940   -1.0910    2.2040 ca        1 PY6      0.040800
      5 O3          3.7060   -1.7000    2.7140 oh        1 PY6     -0.538100
      6 C4          1.6010   -0.4370    2.9630 ca        1 PY6     -0.122300
      7 C4A         1.6880   -0.3670    4.4620 c3        1 PY6      0.190100
      8 C5          0.5110    0.1160    2.2730 ca        1 PY6     -0.133600
      9 C6          0.4700   -0.0110    0.8670 ca        1 PY6      0.358200
     10 C5A        -0.5880    0.8360    2.9960 c3        1 PY6      0.215700
     11 O4P        -1.5590    1.3150    2.1150 os        1 PY6     -0.578200
     12 P          -3.1390    1.1730    2.5720 p5        1 PY6      1.430800
     13 O1P        -3.9750    1.4760    1.3970 o         1 PY6     -0.840000
     14 O2P        -3.2620   -0.0020    3.4650 o         1 PY6     -0.840000
     15 O3P        -3.1840    2.4090    3.6460 oh        1 PY6     -0.784400
     16 N           2.2780    0.8660    4.9600 n3        1 PY6     -0.800200
     17 CA          3.7390    0.8800    4.9420 c3        1 PY6      0.036500
     18 C           4.3720   -0.1610    5.9170 c         1 PY6      0.881600
     19 O           4.6710    0.1930    7.0900 o         1 PY6     -0.844800
     20 CB          4.3040    2.2640    5.2720 c3        1 PY6     -0.052400
     21 CG          3.9400    3.3050    4.2380 c3        1 PY6     -0.080400
     22 CD          4.5990    4.6350    4.5420 c3        1 PY6     -0.079400
     23 CE          4.2350    5.6820    3.5210 c3        1 PY6     -0.089100
     24 OXT         4.5360   -1.3390    5.4740 o         1 PY6     -0.844800
     25 H2A1        4.5230   -1.4520    0.3010 hc        1 PY6      0.033033
     26 H2A2        3.3910   -1.8080   -1.0790 hc        1 PY6      0.033033
     27 H2A3        3.5310   -2.9640    0.3190 hc        1 PY6      0.033033
     28 HO3         3.8060   -1.4900    3.6690 ho        1 PY6      0.485000
     29 H4A1        2.2390   -1.2830    4.8400 h1        1 PY6      0.050200
     30 H4A2        0.6370   -0.4290    4.8720 h1        1 PY6      0.050200
     31 H6         -0.3790    0.4280    0.3090 h4        1 PY6      0.042100
     32 H5A1       -0.1200    1.7100    3.5400 h1        1 PY6      0.051200
     33 H5A2       -1.0680    0.1390    3.7450 h1        1 PY6      0.051200
     34 HN2         1.9740    1.0040    5.9080 hn        1 PY6      0.349800
     35 HA          4.0590    0.6080    3.8930 h1        1 PY6      0.047700
     36 HB1         3.9520    2.5810    6.2870 hc        1 PY6      0.039700
     37 HB2         5.4200    2.1590    5.3320 hc        1 PY6      0.039700
     38 HG1         4.2570    2.9550    3.2210 hc        1 PY6      0.046700
     39 HG2         2.8260    3.4370    4.2060 hc        1 PY6      0.046700
     40 HD1         4.2850    4.9810    5.5630 hc        1 PY6      0.026200
     41 HD2         5.7130    4.5050    4.5680 hc        1 PY6      0.026200
     42 HE1         4.7250    6.6560    3.7640 hc        1 PY6      0.022367
     43 HE2         4.5640    5.3660    2.5010 hc        1 PY6      0.022367
     44 HE3         3.1300    5.8380    3.4960 hc        1 PY6      0.022367
     45 H2         -3.0560    2.1010    4.5360 ho        1 PY6      0.420000
@<TRIPOS>BOND
     1    1    2 ar  
     2    1    9 ar  
     3    2    3 1   
     4    2    4 ar  
     5    3   25 1   
     6    3   26 1   
     7    3   27 1   
     8    4    5 1   
     9    4    6 ar  
    10    5   28 1   
    11    6    7 1   
    12    6    8 ar  
    13    7   16 1   
    14    7   29 1   
    15    7   30 1   
    16    8    9 ar  
    17    8   10 1   
    18    9   31 1   
    19   10   11 1   
    20   10   32 1   
    21   10   33 1   
    22   11   12 1   
    23   12   13 1   
    24   12   14 1   
    25   12   15 1   
    26   15   45 1   
    27   16   17 1   
    28   16   34 1   
    29   17   18 1   
    30   17   20 1   
    31   17   35 1   
    32   18   19 1   
    33   18   24 1   
    34   20   21 1   
    35   20   36 1   
    36   20   37 1   
    37   21   22 1   
    38   21   38 1   
    39   21   39 1   
    40   22   23 1   
    41   22   40 1   
    42   22   41 1   
    43   23   42 1   
    44   23   43 1   
    45   23   44 1   
@<TRIPOS>SUBSTRUCTURE
     1 PY6         1 TEMP              0 ****  ****    0 ROOT
