@<TRIPOS>MOLECULE
PY6
   45    45     1     0     0
SMALL
bcc


@<TRIPOS>ATOM
      1 N1          1.7290   -0.7600    0.1480 nb        1 PY6     -0.673000
      2 C2          2.7270   -1.2590    0.9100 ca        1 PY6      0.324600
      3 C2A         3.8710   -1.9780    0.2760 c3        1 PY6     -0.117400
      4 C3          2.7310   -1.1240    2.3300 ca        1 PY6      0.040800
      5 O3          3.8000   -1.6950    2.9610 oh        1 PY6     -0.538100
      6 C4          1.6640   -0.4610    2.9720 ca        1 PY6     -0.122300
      7 C4A         1.6130   -0.3360    4.4690 c3        1 PY6      0.190100
      8 C5          0.6330    0.0490    2.1670 ca        1 PY6     -0.133600
      9 C6          0.7220   -0.1280    0.7690 ca        1 PY6      0.358200
     10 C5A        -0.5360    0.7750    2.7600 c3        1 PY6      0.215700
     11 O4P        -1.4300    1.2060    1.7780 os        1 PY6     -0.578200
     12 P          -3.0430    1.0530    2.0960 p5        1 PY6      1.430800
     13 O1P        -3.7730    1.3000    0.8400 o         1 PY6     -0.840000
     14 O2P        -3.2300   -0.0910    3.0160 o         1 PY6     -0.840000
     15 O3P        -3.2020    2.3250    3.1160 oh        1 PY6     -0.784400
     16 N           2.1380    0.9240    4.9720 n3        1 PY6     -0.800200
     17 CA          3.5940    0.9630    5.0860 c3        1 PY6      0.036500
     18 C           4.1500   -0.0320    6.1520 c         1 PY6      0.881600
     19 O           4.3370    0.3680    7.3330 o         1 PY6     -0.844800
     20 CB          4.1080    2.3660    5.4150 c3        1 PY6     -0.052400
     21 CG          3.8250    3.3640    4.3150 c3        1 PY6     -0.080400
     22 CD          4.4340    4.7160    4.6280 c3        1 PY6     -0.079400
     23 CE          4.1520    5.7190    3.5400 c3        1 PY6     -0.089100
     24 OXT         4.3710   -1.2220    5.7690 o         1 PY6     -0.844800
     25 H2A1        4.8300   -1.5170    0.6230 hc        1 PY6      0.033033
     26 H2A2        3.8620   -3.0450    0.6090 hc        1 PY6      0.033033
     27 H2A3        3.8310   -1.9450   -0.8390 hc        1 PY6      0.033033
     28 HO3         3.8100   -1.4500    3.9130 ho        1 PY6      0.485000
     29 H4A1        0.5300   -0.4020    4.7850 h1        1 PY6      0.050200
     30 H4A2        2.1410   -1.2280    4.9290 h1        1 PY6      0.050200
     31 H6         -0.0790    0.2760    0.1210 h4        1 PY6      0.042100
     32 H5A1       -1.0730    0.0970    3.4880 h1        1 PY6      0.051200
     33 H5A2       -0.1330    1.6750    3.3120 h1        1 PY6      0.051200
     34 HN2         1.7470    1.0900    5.8840 hn        1 PY6      0.349800
     35 HA          4.0120    0.6590    4.0810 h1        1 PY6      0.047700
     36 HB1         5.2150    2.2830    5.5800 hc        1 PY6      0.039700
     37 HB2         3.6600    2.7140    6.3820 hc        1 PY6      0.039700
     38 HG1         4.2400    2.9830    3.3440 hc        1 PY6      0.046700
     39 HG2         2.7170    3.4750    4.1760 hc        1 PY6      0.046700
     40 HD1         4.0220    5.0920    5.6020 hc        1 PY6      0.026200
     41 HD2         5.5430    4.6060    4.7620 hc        1 PY6      0.026200
     42 HE1         4.6020    6.7100    3.7900 hc        1 PY6      0.022367
     43 HE2         4.5790    5.3720    2.5670 hc        1 PY6      0.022367
     44 HE3         3.0510    5.8540    3.4070 hc        1 PY6      0.022367
     45 H2         -3.1520    2.0500    4.0240 ho        1 PY6      0.420000
@<TRIPOS>BOND
     1    1    2 ar  
     2    1    9 ar  
     3    2    3 1   
     4    2    4 ar  
     5    3   25 1   
     6    3   26 1   
     7    3   27 1   
     8    4    5 1   
     9    4    6 ar  
    10    5   28 1   
    11    6    7 1   
    12    6    8 ar  
    13    7   16 1   
    14    7   29 1   
    15    7   30 1   
    16    8    9 ar  
    17    8   10 1   
    18    9   31 1   
    19   10   11 1   
    20   10   32 1   
    21   10   33 1   
    22   11   12 1   
    23   12   13 1   
    24   12   14 1   
    25   12   15 1   
    26   15   45 1   
    27   16   17 1   
    28   16   34 1   
    29   17   18 1   
    30   17   20 1   
    31   17   35 1   
    32   18   19 1   
    33   18   24 1   
    34   20   21 1   
    35   20   36 1   
    36   20   37 1   
    37   21   22 1   
    38   21   38 1   
    39   21   39 1   
    40   22   23 1   
    41   22   40 1   
    42   22   41 1   
    43   23   42 1   
    44   23   43 1   
    45   23   44 1   
@<TRIPOS>SUBSTRUCTURE
     1 PY6         1 TEMP              0 ****  ****    0 ROOT
