@<TRIPOS>MOLECULE
PY7
   15    15     1     0     0
SMALL
bcc


@<TRIPOS>ATOM
      1 N1         -2.3080   -0.0680   -0.1340 nb        1 PY7     -0.665000
      2 C2         -1.7180    1.0570    0.3170 ca        1 PY7      0.391200
      3 C3         -0.3310    1.1890    0.4970 ca        1 PY7     -0.233800
      4 C4          0.4910    0.0940    0.1940 ca        1 PY7     -0.052300
      5 C5         -0.1050   -1.0810   -0.2750 ca        1 PY7     -0.233800
      6 C6         -1.5040   -1.1100   -0.4210 ca        1 PY7      0.391200
      7 C7          1.9660    0.2220    0.3820 c3        1 PY7      0.171700
      8 O8          2.5950   -0.9970    0.0160 oh        1 PY7     -0.597800
      9 H2         -2.3980    1.8970    0.5450 h4        1 PY7      0.022100
     10 H3          0.0960    2.1300    0.8680 ha        1 PY7      0.152000
     11 H5          0.5080   -1.9590   -0.5220 ha        1 PY7      0.152000
     12 H6         -2.0110   -2.0210   -0.7880 h4        1 PY7      0.022100
     13 H71         2.1910    0.4570    1.4600 h1        1 PY7      0.037700
     14 H72         2.3570    1.0590   -0.2610 h1        1 PY7      0.037700
     15 HO8         3.5400   -0.8640    0.1550 ho        1 PY7      0.406000
@<TRIPOS>BOND
     1    1    2 ar  
     2    1    6 ar  
     3    2    3 ar  
     4    2    9 1   
     5    3    4 ar  
     6    3   10 1   
     7    4    5 ar  
     8    4    7 1   
     9    5    6 ar  
    10    5   11 1   
    11    6   12 1   
    12    7    8 1   
    13    7   13 1   
    14    7   14 1   
    15    8   15 1   
@<TRIPOS>SUBSTRUCTURE
     1 PY7         1 TEMP              0 ****  ****    0 ROOT
