@<TRIPOS>MOLECULE
PY7
   15    15     1     0     0
SMALL
bcc


@<TRIPOS>ATOM
      1 N1         -0.0550   -0.0580    0.0320 nb        1 PY7     -0.663000
      2 C2          1.2660    0.2060    0.0180 ca        1 PY7      0.395200
      3 C3          2.0660    0.2380    1.1730 ca        1 PY7     -0.239800
      4 C4          1.4630   -0.0140    2.4110 ca        1 PY7     -0.092300
      5 C5          0.0910   -0.2870    2.4430 ca        1 PY7     -0.239800
      6 C6         -0.6210   -0.2990    1.2300 ca        1 PY7      0.395200
      7 C7          2.2770    0.0320    3.6630 c3        1 PY7      0.166700
      8 O8          1.6750   -0.6430    4.7500 oh        1 PY7     -0.590800
      9 H2          1.7050    0.4010   -0.9770 h4        1 PY7      0.023600
     10 H3          3.1390    0.4570    1.1010 ha        1 PY7      0.149000
     11 H5         -0.4180   -0.4790    3.3980 ha        1 PY7      0.149000
     12 H6         -1.7060   -0.5100    1.2160 h4        1 PY7      0.023600
     13 H71         2.3750    1.0970    4.0160 h1        1 PY7      0.060200
     14 H72         3.3020   -0.3890    3.4710 h1        1 PY7      0.060200
     15 HO8         1.5440   -1.5600    4.4820 ho        1 PY7      0.403000
@<TRIPOS>BOND
     1    1    2 ar  
     2    1    6 ar  
     3    2    3 ar  
     4    2    9 1   
     5    3    4 ar  
     6    3   10 1   
     7    4    5 ar  
     8    4    7 1   
     9    5    6 ar  
    10    5   11 1   
    11    6   12 1   
    12    7    8 1   
    13    7   13 1   
    14    7   14 1   
    15    8   15 1   
@<TRIPOS>SUBSTRUCTURE
     1 PY7         1 TEMP              0 ****  ****    0 ROOT
