@<TRIPOS>MOLECULE
PY7
   15    15     1     0     0
SMALL
bcc


@<TRIPOS>ATOM
      1 N1         -0.0280    0.0850   -0.0570 nb        1 PY7     -0.665000
      2 C2          1.2740    0.4260    0.0130 ca        1 PY7      0.391200
      3 C3          2.0370    0.3470    1.1900 ca        1 PY7     -0.233800
      4 C4          1.4160   -0.1120    2.3600 ca        1 PY7     -0.052300
      5 C5          0.0660   -0.4700    2.3050 ca        1 PY7     -0.233800
      6 C6         -0.6090   -0.3540    1.0760 ca        1 PY7      0.391200
      7 C7          2.2150   -0.2000    3.6170 c3        1 PY7      0.171700
      8 O8          1.3920   -0.6880    4.6670 oh        1 PY7     -0.597800
      9 H2          1.7280    0.7820   -0.9290 h4        1 PY7      0.022100
     10 H3          3.0950    0.6380    1.1890 ha        1 PY7      0.152000
     11 H5         -0.4540   -0.8330    3.2030 ha        1 PY7      0.152000
     12 H6         -1.6770   -0.6270    0.9930 h4        1 PY7      0.022100
     13 H71         2.6090    0.8190    3.8870 h1        1 PY7      0.037700
     14 H72         3.0860   -0.8970    3.4630 h1        1 PY7      0.037700
     15 HO8         1.9520   -0.7260    5.4510 ho        1 PY7      0.406000
@<TRIPOS>BOND
     1    1    2 ar  
     2    1    6 ar  
     3    2    3 ar  
     4    2    9 1   
     5    3    4 ar  
     6    3   10 1   
     7    4    5 ar  
     8    4    7 1   
     9    5    6 ar  
    10    5   11 1   
    11    6   12 1   
    12    7    8 1   
    13    7   13 1   
    14    7   14 1   
    15    8   15 1   
@<TRIPOS>SUBSTRUCTURE
     1 PY7         1 TEMP              0 ****  ****    0 ROOT
