@<TRIPOS>MOLECULE
PY8
   36    38     1     0     0
SMALL
bcc


@<TRIPOS>ATOM
      1 BR1         5.3240    3.8250   -4.8520 br        1 PY8     -0.060100
      2 C1          4.0540    2.6400   -4.2020 ca        1 PY8     -0.377500
      3 C2          2.6900    2.9900   -4.2020 ca        1 PY8      0.514200
      4 N3          1.7100    2.2140   -3.7260 nb        1 PY8     -0.766000
      5 C4          2.1080    0.9810   -3.2120 ca        1 PY8      0.899900
      6 N5          3.4040    0.5240   -3.1860 nb        1 PY8     -0.805000
      7 C6          4.3840    1.3410   -3.6880 ca        1 PY8      0.741200
      8 N7          5.6900    0.8700   -3.7400 nh        1 PY8     -0.850900
      9 C8          6.0520   -0.4480   -3.2840 c3        1 PY8      0.217800
     10 C9          6.0100   -0.6910   -1.7750 c3        1 PY8     -0.137400
     11 C10         6.1770   -2.1760   -1.4380 c3        1 PY8      0.234800
     12 N13         5.1210   -3.0380   -1.8770 n3        1 PY8     -0.914100
     13 S14         4.0130   -3.7540   -0.9430 sy        1 PY8      1.511200
     14 O14         4.5370   -4.0160    0.3420 o         1 PY8     -0.650800
     15 O15         3.4940   -4.8560   -1.6540 o         1 PY8     -0.650800
     16 C15         2.7900   -2.5870   -0.7720 ca        1 PY8     -0.365500
     17 C20         2.3740   -1.7900   -1.8390 ca        1 PY8      0.013000
     18 C16         2.1760   -2.4250    0.4760 ca        1 PY8     -0.026000
     19 C17         1.1700   -1.4790    0.6520 ca        1 PY8     -0.142000
     20 C18         0.8030   -0.6370   -0.3940 ca        1 PY8     -0.103000
     21 C19         1.4260   -0.7630   -1.6530 ca        1 PY8      0.088600
     22 N21         1.0930    0.1160   -2.7200 nh        1 PY8     -0.692300
     23 H2          2.3580    3.9690   -4.6030 h4        1 PY8      0.041100
     24 H21         0.1990    0.5580   -2.6180 hn        1 PY8      0.435800
     25 H7          6.4010    1.5670   -3.7120 hn        1 PY8      0.439800
     26 H8C1        7.1040   -0.6350   -3.6500 h1        1 PY8      0.057700
     27 H8C2        5.3730   -1.1830   -3.8030 h1        1 PY8      0.057700
     28 H9C1        6.8490   -0.1350   -1.2800 hc        1 PY8      0.061700
     29 H9C2        5.0520   -0.3120   -1.3360 hc        1 PY8      0.061700
     30 H101        7.1480   -2.5340   -1.8890 h1        1 PY8      0.058200
     31 H102        6.2680   -2.2720   -0.3150 h1        1 PY8      0.058200
     32 H13         5.0900   -3.1540   -2.8630 hn        1 PY8      0.446800
     33 H20         2.8050   -1.9540   -2.8430 ha        1 PY8      0.157000
     34 H16         2.5020   -3.0490    1.3270 ha        1 PY8      0.163000
     35 H17         0.6740   -1.3810    1.6300 ha        1 PY8      0.144000
     36 H18         0.0270    0.1280   -0.2270 ha        1 PY8      0.139000
@<TRIPOS>BOND
     1    1    2 1   
     2    2    3 ar  
     3    2    7 ar  
     4    3    4 ar  
     5    3   23 1   
     6    4    5 ar  
     7    5    6 ar  
     8    5   22 1   
     9    6    7 ar  
    10    7    8 1   
    11    8    9 1   
    12    8   25 1   
    13    9   10 1   
    14    9   26 1   
    15    9   27 1   
    16   10   11 1   
    17   10   28 1   
    18   10   29 1   
    19   11   12 1   
    20   11   30 1   
    21   11   31 1   
    22   12   13 1   
    23   12   32 1   
    24   13   14 2   
    25   13   15 2   
    26   13   16 1   
    27   16   17 ar  
    28   16   18 ar  
    29   17   21 ar  
    30   17   33 1   
    31   18   19 ar  
    32   18   34 1   
    33   19   20 ar  
    34   19   35 1   
    35   20   21 ar  
    36   20   36 1   
    37   21   22 1   
    38   22   24 1   
@<TRIPOS>SUBSTRUCTURE
     1 PY8         1 TEMP              0 ****  ****    0 ROOT
