@<TRIPOS>MOLECULE
PY8
   37    39     1     0     0
SMALL
bcc


@<TRIPOS>ATOM
      1 Br1         0.1830    0.3280    0.0690 br        1 PY8     -0.024100
      2 C1          2.0180    0.0600    0.0420 ca        1 PY8     -0.368500
      3 C2          2.7250   -0.1140    1.2440 ca        1 PY8      0.528200
      4 N3          4.0520   -0.2790    1.3140 nb        1 PY8     -0.743000
      5 C4          4.7270   -0.3020    0.1040 ca        1 PY8      0.896900
      6 N5          4.1450   -0.1920   -1.1420 nb        1 PY8     -0.844000
      7 C6          2.7880    0.0220   -1.1720 ca        1 PY8      0.747200
      8 N7          2.1580    0.2410   -2.3870 nu        1 PY8     -0.875900
      9 C8          2.7360   -0.0630   -3.6600 c3        1 PY8      0.235800
     10 C9          3.8190    0.9150   -4.1360 c3        1 PY8     -0.130400
     11 C10         4.6860    0.3120   -5.2340 c3        1 PY8      0.119800
     12 N13         5.5070   -0.8410   -4.7890 ny        1 PY8     -0.704900
     13 S14         7.4150   -0.6080   -4.7180 sy        1 PY8      1.483200
     14 O14         7.6580    0.2800   -5.7440 o         1 PY8     -0.567300
     15 O15         7.7710   -1.9340   -4.8320 o         1 PY8     -0.567300
     16 C15         7.5280    0.0300   -3.2450 ca        1 PY8     -0.508500
     17 C20         6.9150   -0.5670   -2.1290 ca        1 PY8      0.012000
     18 C16         8.2620    1.2180   -3.0460 ca        1 PY8      0.004000
     19 C17         8.3830    1.7750   -1.7790 ca        1 PY8     -0.127000
     20 C18         7.7050    1.2200   -0.6940 ca        1 PY8     -0.039000
     21 C19         6.9180    0.0600   -0.8720 ca        1 PY8      0.120600
     22 N21         6.1400   -0.4940    0.1730 nu        1 PY8     -0.709300
     23 H2          2.2000   -0.1100    2.2230 h4        1 PY8      0.062100
     24 H21         6.5270   -0.3840    1.0930 hn        1 PY8      0.457800
     25 H7          1.1740    0.4070   -2.3580 hn        1 PY8      0.469800
     26 H8C1        3.1470   -1.1140   -3.6330 h1        1 PY8      0.047200
     27 H8C2        1.9010   -0.0550   -4.4220 h1        1 PY8      0.047200
     28 H9C1        3.3260    1.8300   -4.5660 hc        1 PY8      0.093200
     29 H9C2        4.4590    1.2640   -3.2840 hc        1 PY8      0.093200
     30 H101        5.3910    1.1000   -5.6330 hx        1 PY8      0.103700
     31 H102        4.0260   -0.0200   -6.0880 hx        1 PY8      0.103700
     32 H13         5.3260   -1.6300   -5.4100 hn        1 PY8      0.450300
     33 H20         6.4150   -1.5490   -2.2270 ha        1 PY8      0.161000
     34 H16         8.7470    1.7120   -3.9090 ha        1 PY8      0.173000
     35 H17         8.9980    2.6800   -1.6340 ha        1 PY8      0.177000
     36 H18         7.7810    1.6990    0.2990 ha        1 PY8      0.172000
     37 H132        5.1810   -1.1220   -3.8610 hn        1 PY8      0.450300
@<TRIPOS>BOND
     1    1    2 1   
     2    2    3 ar  
     3    2    7 ar  
     4    3    4 ar  
     5    3   23 1   
     6    4    5 ar  
     7    5    6 ar  
     8    5   22 1   
     9    6    7 ar  
    10    7    8 1   
    11    8    9 1   
    12    8   25 1   
    13    9   10 1   
    14    9   26 1   
    15    9   27 1   
    16   10   11 1   
    17   10   28 1   
    18   10   29 1   
    19   11   12 1   
    20   11   30 1   
    21   11   31 1   
    22   12   13 1   
    23   12   32 1   
    24   12   37 1   
    25   13   14 2   
    26   13   15 2   
    27   13   16 1   
    28   16   17 ar  
    29   16   18 ar  
    30   17   21 ar  
    31   17   33 1   
    32   18   19 ar  
    33   18   34 1   
    34   19   20 ar  
    35   19   35 1   
    36   20   21 ar  
    37   20   36 1   
    38   21   22 1   
    39   22   24 1   
@<TRIPOS>SUBSTRUCTURE
     1 PY8         1 TEMP              0 ****  ****    0 ROOT
