@<TRIPOS>MOLECULE
PY8
   39    40     1     0     0
SMALL
bcc


@<TRIPOS>ATOM
      1 BR1         0.1560    0.7470    0.0500 br        1 PY8      0.151900
      2 C1          1.9700    0.4100    0.0840 ca        1 PY8     -0.206500
      3 C2          2.6930    0.5000    1.3200 ca        1 PY8      0.534200
      4 N3          4.0070    0.2820    1.4160 nb        1 PY8     -0.598000
      5 C4          4.6510   -0.0670    0.2460 ca        1 PY8      0.746900
      6 N5          4.0810   -0.2070   -0.9830 nb        1 PY8     -0.679000
      7 C6          2.7410    0.0570   -1.0540 ca        1 PY8      0.524200
      8 N7          2.0820   -0.0280   -2.3790 n4        1 PY8     -0.753700
      9 C8          2.9460   -0.3460   -3.5670 c3        1 PY8      0.117800
     10 C9          3.9360    0.7490   -3.9420 c3        1 PY8     -0.118400
     11 C10         4.5240    0.5370   -5.3370 c3        1 PY8      0.129800
     12 N13         5.4390   -0.5910   -5.4780 n3        1 PY8     -1.017800
     13 S14         7.6140   -0.9550   -4.4810 s4        1 PY8      1.650300
     14 O14         8.2260   -0.3910   -5.5390 o         1 PY8     -0.375400
     15 O15         7.2410   -2.2440   -4.3080 o         1 PY8     -0.375400
     16 C15         7.5690   -0.0800   -3.1320 ca        1 PY8     -0.535500
     17 C20         6.8890   -0.5630   -1.9930 ca        1 PY8      0.049000
     18 C16         8.2590    1.1490   -3.0280 ca        1 PY8      0.081000
     19 C17         8.2750    1.8640   -1.8290 ca        1 PY8     -0.110000
     20 C18         7.5870    1.3980   -0.7130 ca        1 PY8      0.022000
     21 C19         6.8750    0.1760   -0.8080 ca        1 PY8     -0.065400
     22 N21         6.1290   -0.3250    0.3560 n4        1 PY8     -0.613100
     23 H2          2.1730    0.7690    2.2780 h4        1 PY8      0.140100
     24 H21         6.4820    0.1340    1.2210 hn        1 PY8      0.510300
     25 H7          1.3520   -0.7630   -2.3100 hn        1 PY8      0.494800
     26 H8C1        2.2210   -0.5100   -4.4250 hx        1 PY8      0.123700
     27 H8C2        3.4780   -1.3180   -3.3590 hx        1 PY8      0.123700
     28 H9C1        3.4210    1.7500   -3.9690 hc        1 PY8      0.082700
     29 H9C2        4.7650    0.8160   -3.1910 hc        1 PY8      0.082700
     30 H101        5.0940    1.4770   -5.6110 h1        1 PY8      0.105200
     31 H102        3.6720    0.4490   -6.0780 h1        1 PY8      0.105200
     32 H13         5.7370   -0.6190   -6.4490 hn        1 PY8      0.412300
     33 H20         6.3800   -1.5470   -2.0580 ha        1 PY8      0.186000
     34 H16         8.8130    1.5520   -3.9050 ha        1 PY8      0.218000
     35 H17         8.8490    2.8140   -1.7630 ha        1 PY8      0.230000
     36 H18         7.6170    1.9850    0.2280 ha        1 PY8      0.206000
     37 H72         1.6140    0.8830   -2.5430 hn        1 PY8      0.494800
     38 H132        4.9570   -1.4570   -5.2880 hn        1 PY8      0.412300
     39 H212        6.2660   -1.3480    0.4520 hn        1 PY8      0.510300
@<TRIPOS>BOND
     1    1    2 1   
     2    2    3 ar  
     3    2    7 ar  
     4    3    4 ar  
     5    3   23 1   
     6    4    5 ar  
     7    5    6 ar  
     8    5   22 1   
     9    6    7 ar  
    10    7    8 1   
    11    8    9 1   
    12    8   25 1   
    13    8   37 1   
    14    9   10 1   
    15    9   26 1   
    16    9   27 1   
    17   10   11 1   
    18   10   28 1   
    19   10   29 1   
    20   11   12 1   
    21   11   30 1   
    22   11   31 1   
    23   12   32 1   
    24   12   38 1   
    25   13   14 1   
    26   13   15 1   
    27   13   16 1   
    28   16   17 ar  
    29   16   18 ar  
    30   17   21 ar  
    31   17   33 1   
    32   18   19 ar  
    33   18   34 1   
    34   19   20 ar  
    35   19   35 1   
    36   20   21 ar  
    37   20   36 1   
    38   21   22 1   
    39   22   24 1   
    40   22   39 1   
@<TRIPOS>SUBSTRUCTURE
     1 PY8         1 TEMP              0 ****  ****    0 ROOT
