@<TRIPOS>MOLECULE
PY9
   41    43     1     0     0
SMALL
bcc


@<TRIPOS>ATOM
      1 N1          0.3750   -0.7880   -0.0500 n         1 PY9     -0.442800
      2 C4         -4.5850    0.4690    0.1550 ca        1 PY9      0.179100
      3 C5         -4.2060    0.4300   -1.1890 ca        1 PY9     -0.208000
      4 C6         -2.8420    0.2970   -1.5040 ca        1 PY9      0.222100
      5 C7         -0.4370    0.0240   -0.8310 c         1 PY9      0.685700
      6 C8          1.7680   -1.0400   -0.4490 c3        1 PY9      0.135000
      7 C10         0.8250   -3.0930    0.5390 c3        1 PY9     -0.097400
      8 C13         2.8970   -0.3920    1.6940 ca        1 PY9     -0.113000
      9 C15         4.5660    1.3420    1.8020 ca        1 PY9     -0.121000
     10 C17         3.5020    0.8140   -0.3210 ca        1 PY9     -0.047300
     11 C14         3.8010    0.3630    2.4350 ca        1 PY9     -0.142000
     12 C2         -2.2890    0.2350    0.8530 ca        1 PY9     -0.023000
     13 C16         4.4150    1.5630    0.4360 ca        1 PY9     -0.136000
     14 C3         -3.6280    0.3850    1.1840 ca        1 PY9     -0.263000
     15 C1         -1.8740    0.1660   -0.4830 ca        1 PY9     -0.262600
     16 C12         2.7450   -0.1830    0.3170 ca        1 PY9     -0.090300
     17 C9          2.0390   -2.5460   -0.2020 c3        1 PY9     -0.093400
     18 C11        -0.1480   -1.9140    0.7060 c3        1 PY9      0.079000
     19 C18         3.3590    1.1030   -1.7670 c3        1 PY9     -0.070800
     20 O3          0.0500    0.6610   -1.7950 o         1 PY9     -0.638100
     21 O1         -2.5610    0.2730   -2.8410 oh        1 PY9     -0.500100
     22 H5         -4.9540    0.5110   -1.9900 ha        1 PY9      0.173000
     23 H8          1.8700   -0.8210   -1.5540 h1        1 PY9      0.084700
     24 H10         0.3410   -3.9180   -0.0390 hc        1 PY9      0.053200
     25 H10A        1.1120   -3.4970    1.5400 hc        1 PY9      0.053200
     26 H13         2.2870   -1.1630    2.1900 ha        1 PY9      0.128000
     27 H15         5.2840    1.9410    2.3800 ha        1 PY9      0.130000
     28 H14         3.9100    0.1890    3.5150 ha        1 PY9      0.129000
     29 H2         -1.5400    0.1830    1.6600 ha        1 PY9      0.146000
     30 H16         5.0140    2.3420   -0.0590 ha        1 PY9      0.132000
     31 H3         -3.9400    0.4420    2.2360 ha        1 PY9      0.139000
     32 H9          2.1750   -3.0670   -1.1810 hc        1 PY9      0.059200
     33 H9A         2.9740   -2.6860    0.3940 hc        1 PY9      0.059200
     34 H11        -0.2080   -1.6180    1.7910 h1        1 PY9      0.051700
     35 H11A       -1.1830   -2.1870    0.3610 h1        1 PY9      0.051700
     36 H18         3.7140    0.2350   -2.3770 hc        1 PY9      0.054700
     37 H18A        2.2840    1.3010   -2.0210 hc        1 PY9      0.054700
     38 H18B        3.9580    2.0000   -2.0600 hc        1 PY9      0.054700
     39 HO2        -6.0490    0.6440    1.3700 ho        1 PY9      0.424000
     40 HO1        -1.6050    0.3930   -2.9760 ho        1 PY9      0.458000
     41 O2         -5.9270    0.6010    0.4090 oh        1 PY9     -0.489100
@<TRIPOS>BOND
     1    1    5 1   
     2    1    6 1   
     3    1   18 1   
     4    2    3 ar  
     5    2   14 ar  
     6    2   41 1   
     7    3    4 ar  
     8    3   22 1   
     9    4   15 ar  
    10    4   21 1   
    11    5   15 1   
    12    5   20 2   
    13    6   16 1   
    14    6   17 1   
    15    6   23 1   
    16    7   17 1   
    17    7   18 1   
    18    7   24 1   
    19    7   25 1   
    20    8   11 ar  
    21    8   16 ar  
    22    8   26 1   
    23    9   11 ar  
    24    9   13 ar  
    25    9   27 1   
    26   10   13 ar  
    27   10   16 ar  
    28   10   19 1   
    29   11   28 1   
    30   12   14 ar  
    31   12   15 ar  
    32   12   29 1   
    33   13   30 1   
    34   14   31 1   
    35   17   32 1   
    36   17   33 1   
    37   18   34 1   
    38   18   35 1   
    39   19   36 1   
    40   19   37 1   
    41   19   38 1   
    42   21   40 1   
    43   39   41 1   
@<TRIPOS>SUBSTRUCTURE
     1 PY9         1 TEMP              0 ****  ****    0 ROOT
