@<TRIPOS>MOLECULE
PY9
   41    41     1     0     0
SMALL
bcc


@<TRIPOS>ATOM
      1 N1         -1.1340    1.2000   -0.6190 n         1 PY9     -0.345000
      2 C4         -5.2520   -1.9380   -1.2960 c2        1 PY9      0.020000
      3 C5         -4.1110   -2.3670   -0.6730 c2        1 PY9     -0.220000
      4 C6         -2.9160   -1.5600   -0.7420 c2        1 PY9      0.075000
      5 C7         -1.6740    0.4450   -1.6380 c2        1 PY9      0.340000
      6 C8          1.5960    1.4570    0.3050 c1        1 PY9     -0.100000
      7 C10        -0.2100    0.2710    1.5150 c3        1 PY9     -0.164000
      8 C13         3.8220    2.1760    1.1480 c2        1 PY9     -0.151000
      9 C15         5.9250    1.9020   -1.9060 c1        1 PY9     -0.155000
     10 C17         3.4330    1.5400   -1.2250 c2        1 PY9      0.161000
     11 C14         4.6700    3.2020    1.0760 c2        1 PY9     -0.201000
     12 C2         -4.1280    0.1200   -2.0740 c3        1 PY9     -0.194000
     13 C16         4.7840    1.7450   -1.5740 c1        1 PY9     -0.162000
     14 C3         -5.3400   -0.6710   -1.9900 c1        1 PY9     -0.019000
     15 C1         -2.8970   -0.3750   -1.4140 c2        1 PY9     -0.173000
     16 C12         2.9690    1.7100    0.0580 c2        1 PY9     -0.139000
     17 C9          1.0460    1.1170    1.6050 c3        1 PY9     -0.182000
     18 C11        -1.3630    0.9570    0.7770 c3        1 PY9     -0.019000
     19 C18         2.5600    1.0520   -2.3220 c3        1 PY9     -0.207000
     20 O3         -1.1990    0.5430   -2.7920 o         1 PY9     -0.382000
     21 O1         -1.7740   -1.9860   -0.0940 oh        1 PY9     -0.255000
     22 H5         -4.0640   -3.3160   -0.1180 ha        1 PY9      0.137000
     23 H8         -0.2350    1.6180   -0.8190 hn        1 PY9      0.263000
     24 H10         0.0250   -0.7060    1.0150 hc        1 PY9      0.091000
     25 H10A       -0.5600    0.0430    2.5560 hc        1 PY9      0.091000
     26 H13         3.6960    1.6180    2.0940 ha        1 PY9      0.122000
     27 H15         5.2730    3.5200    1.9360 ha        1 PY9      0.116000
     28 H14         6.9360    2.0430   -2.1960 ha        1 PY9      0.228000
     29 H2         -4.3860    1.1540   -1.6860 hc        1 PY9      0.189000
     30 H16         4.8170    3.7870    0.1590 ha        1 PY9      0.116000
     31 H3         -3.9130    0.2700   -3.1820 hc        1 PY9      0.189000
     32 H9          0.7940    2.1110    2.0860 hc        1 PY9      0.101500
     33 H9A         1.7750    0.5990    2.2900 hc        1 PY9      0.101500
     34 H11        -1.5510    1.9600    1.2620 h1        1 PY9      0.085500
     35 H11A       -2.2860    0.3250    0.9100 h1        1 PY9      0.085500
     36 H18         1.4780    1.2290   -2.0860 hc        1 PY9      0.112333
     37 H18A        2.7090   -0.0490   -2.4610 hc        1 PY9      0.112333
     38 H18B        2.8150    1.5620   -3.2840 hc        1 PY9      0.112333
     39 HO2        -6.2680   -3.4810   -0.8040 ho        1 PY9      0.207000
     40 HO1        -1.8490   -2.9410    0.0430 ho        1 PY9      0.220000
     41 O2         -6.4170   -2.6620   -1.2990 oh        1 PY9     -0.208000
@<TRIPOS>BOND
     1    1    5 1   
     2    1   18 1   
     3    1   23 1   
     4    2    3 1   
     5    2   14 1   
     6    2   41 1   
     7    3    4 1   
     8    3   22 1   
     9    4   15 1   
    10    4   21 1   
    11    5   15 1   
    12    5   20 1   
    13    6   16 1   
    14    6   17 1   
    15    7   17 1   
    16    7   18 1   
    17    7   24 1   
    18    7   25 1   
    19    8   11 1   
    20    8   16 1   
    21    8   26 1   
    22    9   13 1   
    23    9   28 1   
    24   10   13 1   
    25   10   16 1   
    26   10   19 1   
    27   11   27 1   
    28   11   30 1   
    29   12   14 1   
    30   12   15 1   
    31   12   29 1   
    32   12   31 1   
    33   17   32 1   
    34   17   33 1   
    35   18   34 1   
    36   18   35 1   
    37   19   36 1   
    38   19   37 1   
    39   19   38 1   
    40   21   40 1   
    41   39   41 1   
@<TRIPOS>SUBSTRUCTURE
     1 PY9         1 TEMP              0 ****  ****    0 ROOT
