@<TRIPOS>MOLECULE
PYA
   32    34     1     0     0
SMALL
bcc


@<TRIPOS>ATOM
      1 C1         -1.0160    0.1660   -4.7670 ca        1 PYA     -0.097000
      2 C2         -2.3570   -0.0750   -4.5590 ca        1 PYA     -0.255300
      3 C3         -2.7850   -0.3610   -3.2340 ca        1 PYA      0.388200
      4 N4         -1.9780   -0.4100   -2.1810 nb        1 PYA     -0.607000
      5 C4A        -0.6400   -0.1680   -2.3750 ca        1 PYA      0.363300
      6 C4B         0.2890   -0.2060   -1.2360 ca        1 PYA      0.368300
      7 N5         -0.1860   -0.4730    0.0220 nb        1 PYA     -0.640000
      8 C6          0.6790   -0.5050    1.0430 ca        1 PYA      0.470600
      9 C7          2.0840   -0.2780    0.8640 ca        1 PYA     -0.208300
     10 C8          2.5640   -0.0040   -0.3940 ca        1 PYA     -0.107000
     11 C8A         1.6670    0.0390   -1.4910 ca        1 PYA     -0.173300
     12 C9          2.1350    0.3240   -2.8100 ca        1 PYA     -0.090000
     13 C10         1.2760    0.3670   -3.8610 ca        1 PYA     -0.145000
     14 C1A        -0.1200    0.1230   -3.6710 ca        1 PYA     -0.144300
     15 CB          0.1980   -0.7920    2.4370 c3        1 PYA     -0.125700
     16 CA         -0.0100    0.4800    3.2650 c3        1 PYA      0.016500
     17 N           1.1770    1.3230    3.3280 n3        1 PYA     -0.892800
     18 C          -0.5550    0.0390    4.6690 c         1 PYA      0.888600
     19 O           0.0060    0.5250    5.6920 o         1 PYA     -0.836800
     20 OXT        -1.5240   -0.7650    4.6940 o         1 PYA     -0.836800
     21 H1         -0.6260    0.3920   -5.7700 ha        1 PYA      0.127000
     22 HC2        -3.0850   -0.0500   -5.3780 ha        1 PYA      0.132000
     23 H3         -3.8530   -0.5610   -3.0280 h4        1 PYA      0.018100
     24 H7          2.7440   -0.3050    1.7420 ha        1 PYA      0.153000
     25 H8          3.6330    0.1880   -0.5680 ha        1 PYA      0.124000
     26 H9          3.2110    0.5100   -2.9470 ha        1 PYA      0.125000
     27 H10         1.6280    0.5890   -4.8790 ha        1 PYA      0.122000
     28 HB3         0.9530   -1.4520    2.9390 hc        1 PYA      0.072200
     29 HB2        -0.7860   -1.3370    2.4340 hc        1 PYA      0.072200
     30 HA         -0.8260    1.0860    2.7740 h1        1 PYA      0.055700
     31 H           0.9370    2.1320    3.8760 hn        1 PYA      0.331800
     32 H2          1.8800    0.8320    3.8530 hn        1 PYA      0.331800
@<TRIPOS>BOND
     1    1    2 ar  
     2    1   14 ar  
     3    1   21 1   
     4    2    3 ar  
     5    2   22 1   
     6    3    4 ar  
     7    3   23 1   
     8    4    5 ar  
     9    5    6 ar  
    10    5   14 ar  
    11    6    7 ar  
    12    6   11 ar  
    13    7    8 ar  
    14    8    9 ar  
    15    8   15 1   
    16    9   10 ar  
    17    9   24 1   
    18   10   11 ar  
    19   10   25 1   
    20   11   12 ar  
    21   12   13 ar  
    22   12   26 1   
    23   13   14 ar  
    24   13   27 1   
    25   15   16 1   
    26   15   28 1   
    27   15   29 1   
    28   16   17 1   
    29   16   18 1   
    30   16   30 1   
    31   17   31 1   
    32   17   32 1   
    33   18   19 1   
    34   18   20 1   
@<TRIPOS>SUBSTRUCTURE
     1 PYA         1 TEMP              0 ****  ****    0 ROOT
