@<TRIPOS>MOLECULE
PYB
   17    17     1     0     0
SMALL
bcc


@<TRIPOS>ATOM
      1 N          -0.0980    0.1810   -0.0590 nv        1 PYB     -0.757200
      2 CA          1.3050    0.0960   -0.0320 cc        1 PYB     -0.017400
      3 CB1         2.1600    0.2080    1.1240 cc        1 PYB     -0.238000
      4 CB          2.1520   -0.0490   -1.1520 cd        1 PYB     -0.244300
      5 CG1         3.4930    0.1320    0.6790 cd        1 PYB     -0.111900
      6 NG2         3.4750   -0.0260   -0.7070 na        1 PYB     -0.038100
      7 CD          4.5950   -0.1400   -1.5810 c3        1 PYB      0.010600
      8 C           4.7230    0.1940    1.5650 c         1 PYB      0.934200
      9 O           5.8720    0.1330    1.0380 o         1 PYB     -0.828300
     10 OXT         4.5210    0.3020    2.8050 o         1 PYB     -0.828300
     11 H          -0.4560    0.1230    0.8760 hn        1 PYB      0.337800
     12 HN2        -0.4780   -0.5730   -0.6000 hn        1 PYB      0.337800
     13 HB1         1.8600    0.3390    2.1580 ha        1 PYB      0.153000
     14 HB          1.9050   -0.1580   -2.2040 h4        1 PYB      0.140000
     15 HD1         4.5510   -1.1160   -2.1350 h1        1 PYB      0.049367
     16 HD2         4.5800    0.6930   -2.3350 h1        1 PYB      0.049367
     17 HD3         5.5470   -0.0880   -0.9790 h1        1 PYB      0.049367
@<TRIPOS>BOND
     1    1    2 1   
     2    1   11 1   
     3    1   12 1   
     4    2    3 1   
     5    2    4 2   
     6    3    5 2   
     7    3   13 1   
     8    4    6 1   
     9    4   14 1   
    10    5    6 1   
    11    5    8 1   
    12    6    7 1   
    13    7   15 1   
    14    7   16 1   
    15    7   17 1   
    16    8    9 1   
    17    8   10 1   
@<TRIPOS>SUBSTRUCTURE
     1 PYB         1 TEMP              0 ****  ****    0 ROOT
