@<TRIPOS>MOLECULE
PYB
   17    17     1     0     0
SMALL
bcc


@<TRIPOS>ATOM
      1 N          -0.0930   -0.2070   -0.0050 nh        1 PYB     -0.757200
      2 CA          1.3070   -0.0850   -0.0070 cc        1 PYB     -0.017400
      3 CB1         2.1610    0.1430    1.1330 cc        1 PYB     -0.238000
      4 CB          2.1540   -0.2300   -1.1270 cd        1 PYB     -0.244300
      5 CG1         3.4930    0.1260    0.6800 cd        1 PYB     -0.111900
      6 NG2         3.4760   -0.1000   -0.6970 na        1 PYB     -0.038100
      7 CD          4.5960   -0.2030   -1.5720 c3        1 PYB      0.010600
      8 C           4.7210    0.3370    1.5450 c         1 PYB      0.934200
      9 O           5.8700    0.2830    1.0180 o         1 PYB     -0.828300
     10 OXT         4.5180    0.5640    2.7680 o         1 PYB     -0.828300
     11 H          -0.4560    0.0960    0.8790 hn        1 PYB      0.337800
     12 HN2        -0.4890    0.3630   -0.7300 hn        1 PYB      0.337800
     13 HB1         1.8610    0.2920    2.1650 ha        1 PYB      0.153000
     14 HB          1.9090   -0.4180   -2.1680 h4        1 PYB      0.140000
     15 HD1         5.5470   -0.0630   -0.9820 h1        1 PYB      0.049367
     16 HD2         4.5290    0.5820   -2.3730 h1        1 PYB      0.049367
     17 HD3         4.6050   -1.2110   -2.0680 h1        1 PYB      0.049367
@<TRIPOS>BOND
     1    1    2 1   
     2    1   11 1   
     3    1   12 1   
     4    2    3 1   
     5    2    4 2   
     6    3    5 2   
     7    3   13 1   
     8    4    6 1   
     9    4   14 1   
    10    5    6 1   
    11    5    8 1   
    12    6    7 1   
    13    7   15 1   
    14    7   16 1   
    15    7   17 1   
    16    8    9 1   
    17    8   10 1   
@<TRIPOS>SUBSTRUCTURE
     1 PYB         1 TEMP              0 ****  ****    0 ROOT
