@<TRIPOS>MOLECULE
PYB
   17    17     1     0     0
SMALL
bcc


@<TRIPOS>ATOM
      1 N          -0.2040    0.1340   -0.3260 nh        1 PYB     -0.757200
      2 CA          0.2190    0.0710    1.0130 cc        1 PYB     -0.017400
      3 CB1         1.5190    0.4220    1.5310 cc        1 PYB     -0.238000
      4 CB         -0.5780   -0.2890    2.1220 cd        1 PYB     -0.244300
      5 CG1         1.4760    0.2720    2.9290 cd        1 PYB     -0.111900
      6 NG2         0.1970   -0.1620    3.2770 na        1 PYB     -0.038100
      7 CD         -0.3000   -0.4380    4.5840 c3        1 PYB      0.010600
      8 C           2.6320    0.5240    3.8780 c         1 PYB      0.934200
      9 O           2.4610    0.3700    5.1220 o         1 PYB     -0.828300
     10 OXT         3.7240    0.8790    3.3570 o         1 PYB     -0.828300
     11 H          -0.6680   -0.7190   -0.5810 hn        1 PYB      0.337800
     12 HN2         0.5910    0.2610   -0.9240 hn        1 PYB      0.337800
     13 HB1         2.3850    0.7560    0.9710 ha        1 PYB      0.153000
     14 HB         -1.6140   -0.6100    2.1620 h4        1 PYB      0.140000
     15 HD1         0.5160   -0.2570    5.3410 h1        1 PYB      0.049367
     16 HD2        -1.1780    0.2260    4.8100 h1        1 PYB      0.049367
     17 HD3        -0.6430   -1.5060    4.6470 h1        1 PYB      0.049367
@<TRIPOS>BOND
     1    1    2 1   
     2    1   11 1   
     3    1   12 1   
     4    2    3 1   
     5    2    4 2   
     6    3    5 2   
     7    3   13 1   
     8    4    6 1   
     9    4   14 1   
    10    5    6 1   
    11    5    8 1   
    12    6    7 1   
    13    7   15 1   
    14    7   16 1   
    15    7   17 1   
    16    8    9 1   
    17    8   10 1   
@<TRIPOS>SUBSTRUCTURE
     1 PYB         1 TEMP              0 ****  ****    0 ROOT
