@<TRIPOS>MOLECULE
PYB
   18    18     1     0     0
SMALL
bcc


@<TRIPOS>ATOM
      1 N          -0.0850   -0.0570    0.0380 n4        1 PYB     -0.638000
      2 CA          1.3440   -0.0230    0.0130 cc        1 PYB     -0.233400
      3 CB1         2.1940    0.0750    1.1680 cc        1 PYB     -0.182000
      4 CB          2.1720   -0.0780   -1.1390 cd        1 PYB     -0.160300
      5 CG1         3.5160    0.0770    0.6900 cd        1 PYB     -0.096900
      6 NG2         3.4820   -0.0160   -0.7050 na        1 PYB      0.021900
      7 CD          4.6090   -0.0460   -1.5890 c3        1 PYB     -0.018400
      8 C           4.7620    0.1680    1.5900 c         1 PYB      0.945200
      9 O           4.5080    0.2430    2.8140 o         1 PYB     -0.777800
     10 OXT         5.8890    0.1600    1.0370 o         1 PYB     -0.777800
     11 H          -0.4260   -0.9300   -0.3750 hn        1 PYB      0.441467
     12 HN2        -0.4680    0.7350   -0.4850 hn        1 PYB      0.441467
     13 HB1         1.9160    0.1380    2.2170 ha        1 PYB      0.184000
     14 HB          1.9060   -0.1550   -2.1920 h4        1 PYB      0.167000
     15 HD1         4.6030   -1.0030   -2.1770 h1        1 PYB      0.081033
     16 HD2         4.5570    0.8220   -2.2980 h1        1 PYB      0.081033
     17 HD3         5.5580    0.0180   -0.9760 h1        1 PYB      0.081033
     18 HN3        -0.3920   -0.0010    1.0160 hn        1 PYB      0.441467
@<TRIPOS>BOND
     1    1    2 1   
     2    1   11 1   
     3    1   12 1   
     4    1   18 1   
     5    2    3 1   
     6    2    4 2   
     7    3    5 2   
     8    3   13 1   
     9    4    6 1   
    10    4   14 1   
    11    5    6 1   
    12    5    8 1   
    13    6    7 1   
    14    7   15 1   
    15    7   16 1   
    16    7   17 1   
    17    8    9 1   
    18    8   10 1   
@<TRIPOS>SUBSTRUCTURE
     1 PYB         1 TEMP              0 ****  ****    0 ROOT
