@<TRIPOS>MOLECULE
PYC
   12    12     1     0     0
SMALL
bcc


@<TRIPOS>ATOM
      1 O7         -0.0390    0.0020    0.1010 o         1 PYC     -0.832300
      2 O8          1.8250   -0.0010   -1.1380 o         1 PYC     -0.832300
      3 C1          1.2200    0.0000   -0.0330 c         1 PYC      0.931200
      4 C2          2.0530   -0.0000    1.2340 cc        1 PYC     -0.134900
      5 C3          3.4490   -0.0020    1.4130 cd        1 PYC     -0.215000
      6 C4          3.7030   -0.0020    2.8230 cd        1 PYC     -0.223000
      7 C5          2.4550    0.0000    3.4690 cc        1 PYC     -0.228300
      8 N6          1.4640    0.0010    2.4960 na        1 PYC     -0.156100
      9 H31         4.1810   -0.0040    0.6140 ha        1 PYC      0.145000
     10 H41         4.6730   -0.0030    3.3050 ha        1 PYC      0.117000
     11 H61         2.2160    0.0010    4.5290 h4        1 PYC      0.132000
     12 HN6         0.4880    0.0030    2.6370 hn        1 PYC      0.296700
@<TRIPOS>BOND
     1    1    3 1   
     2    2    3 1   
     3    3    4 1   
     4    4    5 2   
     5    4    8 1   
     6    5    6 1   
     7    5    9 1   
     8    6    7 2   
     9    6   10 1   
    10    7    8 1   
    11    7   11 1   
    12    8   12 1   
@<TRIPOS>SUBSTRUCTURE
     1 PYC         1 TEMP              0 ****  ****    0 ROOT
