@<TRIPOS>MOLECULE
PYC
   12    12     1     0     0
SMALL
bcc


@<TRIPOS>ATOM
      1 O7          1.9650   -1.1930    0.0000 o         1 PYC     -0.832300
      2 O8          2.1380    1.0380    0.0020 o         1 PYC     -0.832300
      3 C1          1.4680   -0.0290    0.0010 c         1 PYC      0.931200
      4 C2         -0.0430    0.0800    0.0000 cc        1 PYC     -0.134900
      5 C3         -0.8810    1.2120    0.0010 cd        1 PYC     -0.215000
      6 C4         -2.2350    0.7460   -0.0000 cd        1 PYC     -0.223000
      7 C5         -2.1920   -0.6580   -0.0010 cc        1 PYC     -0.228300
      8 N6         -0.8590   -1.0490   -0.0010 na        1 PYC     -0.156100
      9 H31        -0.5400    2.2410    0.0020 ha        1 PYC      0.145000
     10 H41        -3.1300    1.3580    0.0000 ha        1 PYC      0.117000
     11 H61        -3.0000   -1.3840   -0.0020 h4        1 PYC      0.132000
     12 HN6        -0.5060   -1.9700   -0.0020 hn        1 PYC      0.296700
@<TRIPOS>BOND
     1    1    3 1   
     2    2    3 1   
     3    3    4 1   
     4    4    5 2   
     5    4    8 1   
     6    5    6 1   
     7    5    9 1   
     8    6    7 2   
     9    6   10 1   
    10    7    8 1   
    11    7   11 1   
    12    8   12 1   
@<TRIPOS>SUBSTRUCTURE
     1 PYC         1 TEMP              0 ****  ****    0 ROOT
