@<TRIPOS>MOLECULE
PYD
   18    18     1     0     0
SMALL
bcc


@<TRIPOS>ATOM
      1 N1'         1.2810    0.1580    1.1670 nb        1 PYD     -0.733000
      2 C2'        -0.0380    0.0220    1.5220 ca        1 PYD      0.679300
      3 CM2        -0.3540    0.0200    2.9990 c3        1 PYD     -0.135400
      4 N3'        -1.0840   -0.1070    0.6590 nb        1 PYD     -0.762000
      5 C4'        -0.7910   -0.1210   -0.6850 ca        1 PYD      0.672200
      6 N4'        -1.8180   -0.3500   -1.5960 nh        1 PYD     -0.936500
      7 C5'         0.5610    0.0290   -1.1460 ca        1 PYD     -0.377900
      8 C6'         1.5450    0.1600   -0.1510 ca        1 PYD      0.458200
      9 C7'         0.9100    0.0340   -2.5770 c3        1 PYD     -0.034800
     10 HM21        0.0370    0.9570    3.4650 hc        1 PYD      0.061367
     11 HM22       -1.4540   -0.0450    3.1810 hc        1 PYD      0.061367
     12 HM23        0.1450   -0.8580    3.4790 hc        1 PYD      0.061367
     13 HN41       -2.7520   -0.2780   -1.2600 hn        1 PYD      0.417300
     14 HN42       -1.6600    0.0000   -2.5110 hn        1 PYD      0.417300
     15 HC6'        2.6100    0.2740   -0.4290 h4        1 PYD      0.024100
     16 HC71        0.5990   -0.9250   -3.0640 hc        1 PYD      0.042700
     17 HC72        0.4010    0.8780   -3.1080 hc        1 PYD      0.042700
     18 HC73        2.0130    0.1530   -2.7180 hc        1 PYD      0.042700
@<TRIPOS>BOND
     1    1    2 ar  
     2    1    8 ar  
     3    2    3 1   
     4    2    4 ar  
     5    3   10 1   
     6    3   11 1   
     7    3   12 1   
     8    4    5 ar  
     9    5    6 1   
    10    5    7 ar  
    11    6   13 1   
    12    6   14 1   
    13    7    8 ar  
    14    7    9 1   
    15    8   15 1   
    16    9   16 1   
    17    9   17 1   
    18    9   18 1   
@<TRIPOS>SUBSTRUCTURE
     1 PYD         1 TEMP              0 ****  ****    0 ROOT
