@<TRIPOS>MOLECULE
PYD
   19    19     1     0     0
SMALL
bcc


@<TRIPOS>ATOM
      1 N1'        -0.0450   -0.1270   -0.0490 nb        1 PYD     -0.636000
      2 C2'         1.3330   -0.0120   -0.0350 ca        1 PYD      0.713300
      3 CM2         2.0480    0.0050   -1.3610 c3        1 PYD     -0.151400
      4 N3'         2.0810    0.0870    1.1020 nb        1 PYD     -0.699000
      5 C4'         1.3970    0.0680    2.2820 ca        1 PYD      0.477200
      6 N4'         2.2100    0.1820    3.5130 n4        1 PYD     -0.822300
      7 C5'        -0.0020   -0.0470    2.3810 ca        1 PYD     -0.267900
      8 C6'        -0.6760   -0.1430    1.1230 ca        1 PYD      0.473200
      9 C7'        -0.7410   -0.0740    3.6540 c3        1 PYD     -0.082800
     10 HM21        1.8260   -0.9450   -1.9100 hc        1 PYD      0.091033
     11 HM22        1.6710    0.8660   -1.9710 hc        1 PYD      0.091033
     12 HM23        3.1530    0.1040   -1.2330 hc        1 PYD      0.091033
     13 HN41        1.8580   -0.4910    4.2030 hn        1 PYD      0.474467
     14 HN42        2.1150    1.1350    3.8850 hn        1 PYD      0.474467
     15 HC6'       -1.7820   -0.2370    1.0940 h4        1 PYD      0.072100
     16 HC71       -1.8470   -0.1170    3.4730 hc        1 PYD      0.075033
     17 HC72       -0.5340    0.8450    4.2600 hc        1 PYD      0.075033
     18 HC73       -0.4640   -0.9760    4.2590 hc        1 PYD      0.075033
     19 H4'3        3.2040   -0.0070    3.3180 hn        1 PYD      0.474467
@<TRIPOS>BOND
     1    1    2 ar  
     2    1    8 ar  
     3    2    3 1   
     4    2    4 ar  
     5    3   10 1   
     6    3   11 1   
     7    3   12 1   
     8    4    5 ar  
     9    5    6 1   
    10    5    7 ar  
    11    6   13 1   
    12    6   14 1   
    13    6   19 1   
    14    7    8 ar  
    15    7    9 1   
    16    8   15 1   
    17    9   16 1   
    18    9   17 1   
    19    9   18 1   
@<TRIPOS>SUBSTRUCTURE
     1 PYD         1 TEMP              0 ****  ****    0 ROOT
