@<TRIPOS>MOLECULE
PYD
   18    18     1     0     0
SMALL
bcc


@<TRIPOS>ATOM
      1 N1'        -0.0460   -0.0430   -0.0510 nb        1 PYD     -0.732000
      2 C2'         1.3210    0.0520   -0.0090 ca        1 PYD      0.679300
      3 CM2         2.0610    0.0870   -1.3260 c3        1 PYD     -0.135400
      4 N3'         2.0800    0.1050    1.1220 nb        1 PYD     -0.764000
      5 C4'         1.4160    0.0780    2.3250 ca        1 PYD      0.672200
      6 N4'         2.1450    0.2300    3.5010 nh        1 PYD     -0.936500
      7 C5'        -0.0160   -0.0350    2.3740 ca        1 PYD     -0.376900
      8 C6'        -0.6770   -0.0870    1.1360 ca        1 PYD      0.457200
      9 C7'        -0.7590   -0.0820    3.6450 c3        1 PYD     -0.034800
     10 HM21        2.7940    0.9300   -1.3310 hc        1 PYD      0.061367
     11 HM22        1.3530    0.2180   -2.1800 hc        1 PYD      0.061367
     12 HM23        2.6150   -0.8740   -1.4590 hc        1 PYD      0.061367
     13 HN41        3.1330    0.1330    3.4430 hn        1 PYD      0.417300
     14 HN42        1.7220   -0.1510    4.3150 hn        1 PYD      0.417300
     15 HC6'       -1.7790   -0.1690    1.0920 h4        1 PYD      0.024100
     16 HC71       -0.5730    0.8430    4.2480 hc        1 PYD      0.042700
     17 HC72       -0.4470   -0.9670    4.2560 hc        1 PYD      0.042700
     18 HC73       -1.8590   -0.1610    3.4610 hc        1 PYD      0.042700
@<TRIPOS>BOND
     1    1    2 ar  
     2    1    8 ar  
     3    2    3 1   
     4    2    4 ar  
     5    3   10 1   
     6    3   11 1   
     7    3   12 1   
     8    4    5 ar  
     9    5    6 1   
    10    5    7 ar  
    11    6   13 1   
    12    6   14 1   
    13    7    8 ar  
    14    7    9 1   
    15    8   15 1   
    16    9   16 1   
    17    9   17 1   
    18    9   18 1   
@<TRIPOS>SUBSTRUCTURE
     1 PYD         1 TEMP              0 ****  ****    0 ROOT
