@<TRIPOS>MOLECULE
PYD
   18    18     1     0     0
SMALL
bcc


@<TRIPOS>ATOM
      1 N1'        -0.0330    0.1020   -0.0500 nb        1 PYD     -0.733000
      2 C2'         1.3310   -0.0430   -0.0040 ca        1 PYD      0.679300
      3 CM2         2.0590   -0.1070   -1.3270 c3        1 PYD     -0.135400
      4 N3'         2.0840   -0.1310    1.1270 nb        1 PYD     -0.762000
      5 C4'         1.4170   -0.0890    2.3300 ca        1 PYD      0.672200
      6 N4'         2.1370   -0.2760    3.5060 nv        1 PYD     -0.936500
      7 C5'        -0.0090    0.0740    2.3750 ca        1 PYD     -0.377900
      8 C6'        -0.6640    0.1590    1.1350 ca        1 PYD      0.458200
      9 C7'        -0.7550    0.1390    3.6440 c3        1 PYD     -0.034800
     10 HM21        3.1630   -0.1830   -1.1820 hc        1 PYD      0.061367
     11 HM22        1.8330    0.8130   -1.9210 hc        1 PYD      0.061367
     12 HM23        1.7060   -1.0000   -1.8980 hc        1 PYD      0.061367
     13 HN41        1.7250    0.1130    4.3220 hn        1 PYD      0.417300
     14 HN42        3.1280   -0.2130    3.4510 hn        1 PYD      0.417300
     15 HC6'       -1.7630    0.2810    1.0900 h4        1 PYD      0.024100
     16 HC71       -0.6050   -0.7970    4.2400 hc        1 PYD      0.042700
     17 HC72       -0.4130    1.0070    4.2630 hc        1 PYD      0.042700
     18 HC73       -1.8510    0.2590    3.4570 hc        1 PYD      0.042700
@<TRIPOS>BOND
     1    1    2 ar  
     2    1    8 ar  
     3    2    3 1   
     4    2    4 ar  
     5    3   10 1   
     6    3   11 1   
     7    3   12 1   
     8    4    5 ar  
     9    5    6 1   
    10    5    7 ar  
    11    6   13 1   
    12    6   14 1   
    13    7    8 ar  
    14    7    9 1   
    15    8   15 1   
    16    9   16 1   
    17    9   17 1   
    18    9   18 1   
@<TRIPOS>SUBSTRUCTURE
     1 PYD         1 TEMP              0 ****  ****    0 ROOT
