@<TRIPOS>MOLECULE
PYE
   16    16     1     0     0
SMALL
bcc


@<TRIPOS>ATOM
      1 C1          0.0100   -0.0290   -0.0260 c3        1 PYE      0.127400
      2 C2          1.5290   -0.0170    0.0100 c3        1 PYE     -0.112400
      3 C3          2.0300    0.0180    1.4400 c3        1 PYE     -0.077400
      4 C4          1.3750    1.1520    2.2010 c3        1 PYE     -0.112400
      5 C5         -0.1370    1.0860    2.0650 c3        1 PYE      0.127400
      6 O5         -0.5510    1.0560    0.7040 os        1 PYE     -0.416600
      7 H11        -0.3730    0.1210   -1.0700 h1        1 PYE      0.045200
      8 H12        -0.3830   -0.9970    0.3870 h1        1 PYE      0.045200
      9 H21         1.9050    0.8850   -0.5390 hc        1 PYE      0.049700
     10 H22         1.9190   -0.9260   -0.5130 hc        1 PYE      0.049700
     11 H31         1.7960   -0.9570    1.9430 hc        1 PYE      0.041700
     12 H32         3.1430    0.1450    1.4500 hc        1 PYE      0.041700
     13 H41         1.7400    2.1320    1.7980 hc        1 PYE      0.049700
     14 H42         1.6510    1.1000    3.2850 hc        1 PYE      0.049700
     15 H51        -0.6230    2.0120    2.4740 h1        1 PYE      0.045200
     16 H52        -0.5380    0.1810    2.5960 h1        1 PYE      0.045200
@<TRIPOS>BOND
     1    1    2 1   
     2    1    6 1   
     3    1    7 1   
     4    1    8 1   
     5    2    3 1   
     6    2    9 1   
     7    2   10 1   
     8    3    4 1   
     9    3   11 1   
    10    3   12 1   
    11    4    5 1   
    12    4   13 1   
    13    4   14 1   
    14    5    6 1   
    15    5   15 1   
    16    5   16 1   
@<TRIPOS>SUBSTRUCTURE
     1 PYE         1 TEMP              0 ****  ****    0 ROOT
