@<TRIPOS>MOLECULE
PYE
   16    16     1     0     0
SMALL
bcc


@<TRIPOS>ATOM
      1 C1         -1.1870   -0.2730    0.7130 c3        1 PYE      0.127400
      2 C2         -1.2440    0.2150   -0.7250 c3        1 PYE     -0.112400
      3 C3         -0.0000   -0.2040   -1.4810 c3        1 PYE     -0.077400
      4 C4          1.2440    0.2150   -0.7250 c3        1 PYE     -0.112400
      5 C5          1.1880   -0.2730    0.7120 c3        1 PYE      0.127400
      6 O5          0.0010    0.1500    1.3740 os        1 PYE     -0.416600
      7 H11        -2.0120    0.1760    1.3270 h1        1 PYE      0.045200
      8 H12        -1.2540   -1.3930    0.7490 h1        1 PYE      0.045200
      9 H21        -1.3270    1.3330   -0.7330 hc        1 PYE      0.049700
     10 H22        -2.1570   -0.2020   -1.2210 hc        1 PYE      0.049700
     11 H31        -0.0000   -1.3180   -1.6160 hc        1 PYE      0.041700
     12 H32        -0.0010    0.2590   -2.5010 hc        1 PYE      0.041700
     13 H41         2.1560   -0.2020   -1.2220 hc        1 PYE      0.049700
     14 H42         1.3270    1.3330   -0.7340 hc        1 PYE      0.049700
     15 H51         2.0130    0.1760    1.3260 h1        1 PYE      0.045200
     16 H52         1.2550   -1.3930    0.7480 h1        1 PYE      0.045200
@<TRIPOS>BOND
     1    1    2 1   
     2    1    6 1   
     3    1    7 1   
     4    1    8 1   
     5    2    3 1   
     6    2    9 1   
     7    2   10 1   
     8    3    4 1   
     9    3   11 1   
    10    3   12 1   
    11    4    5 1   
    12    4   13 1   
    13    4   14 1   
    14    5    6 1   
    15    5   15 1   
    16    5   16 1   
@<TRIPOS>SUBSTRUCTURE
     1 PYE         1 TEMP              0 ****  ****    0 ROOT
