@<TRIPOS>MOLECULE
PYF
   15    12     1     0     0
SMALL
bcc


@<TRIPOS>ATOM
      1 N1         -1.7430    0.2640   -1.3340 n1        1 PYF     -0.463800
      2 C2         -0.3600    0.2460   -1.3170 c1        1 PYF     -0.015500
      3 C3          0.3260    0.1070   -0.1040 c1        1 PYF     -0.106100
      4 C4         -0.3740   -0.0110    1.0750 c1        1 PYF     -0.066500
      5 C5         -1.7820    0.0070    1.0640 c1        1 PYF     -0.066500
      6 C6         -2.4600    0.1440   -0.1340 c1        1 PYF      0.309300
      7 C7          1.8690    0.1280   -0.0880 c3        1 PYF      0.147500
      8 O7          2.3650   -1.1840   -0.3260 oh        1 PYF     -0.599800
      9 H2          0.1750    0.3370   -2.2120 ha        1 PYF      0.098500
     10 H4          0.0830   -0.1030    1.8780 ha        1 PYF      0.094000
     11 H5         -2.2490   -0.0720    1.8530 ha        1 PYF      0.094000
     12 H6         -3.4930    0.1550   -0.1440 ha        1 PYF      0.100500
     13 H71         2.2000    0.7500   -0.8090 h1        1 PYF      0.034700
     14 H72         2.1800    0.4380    0.7700 h1        1 PYF      0.034700
     15 HO7         3.2640   -1.2060   -0.1710 ho        1 PYF      0.406000
@<TRIPOS>BOND
     1    1    6 3   
     2    2    3 3   
     3    2    9 1   
     4    3    7 1   
     5    4    5 3   
     6    4   10 1   
     7    5   11 1   
     8    6   12 1   
     9    7    8 1   
    10    7   13 1   
    11    7   14 1   
    12    8   15 1   
@<TRIPOS>SUBSTRUCTURE
     1 PYF         1 TEMP              0 ****  ****    0 ROOT
