@<TRIPOS>MOLECULE
PYF
   15    15     1     0     0
SMALL
bcc


@<TRIPOS>ATOM
      1 N1          1.1770    0.1950   -1.6390 nb        1 PYF     -0.663000
      2 C2          1.1970    0.4460   -0.3170 ca        1 PYF      0.401200
      3 C3          0.0640    0.3300    0.5160 ca        1 PYF     -0.248600
      4 C4         -1.1450   -0.0690   -0.0670 ca        1 PYF     -0.082000
      5 C5         -1.1810   -0.3360   -1.4350 ca        1 PYF     -0.244300
      6 C6          0.0040   -0.1910   -2.1790 ca        1 PYF      0.395200
      7 C7          0.1650    0.6540    1.9680 c3        1 PYF      0.176700
      8 O7         -0.8290    0.0200    2.7500 oh        1 PYF     -0.593800
      9 H2          2.1720    0.7590    0.0980 h4        1 PYF      0.022100
     10 H4         -2.0480   -0.1630    0.5560 ha        1 PYF      0.151000
     11 H5         -2.1110   -0.6510   -1.9260 ha        1 PYF      0.145000
     12 H6          0.0200   -0.3910   -3.2650 h4        1 PYF      0.023100
     13 H71        -0.0130    1.7540    2.1320 h1        1 PYF      0.057700
     14 H72         1.1860    0.3850    2.3550 h1        1 PYF      0.057700
     15 HO7        -0.7300   -0.9310    2.6240 ho        1 PYF      0.402000
@<TRIPOS>BOND
     1    1    2 ar  
     2    1    6 ar  
     3    2    3 ar  
     4    2    9 1   
     5    3    4 ar  
     6    3    7 1   
     7    4    5 ar  
     8    4   10 1   
     9    5    6 ar  
    10    5   11 1   
    11    6   12 1   
    12    7    8 1   
    13    7   13 1   
    14    7   14 1   
    15    8   15 1   
@<TRIPOS>SUBSTRUCTURE
     1 PYF         1 TEMP              0 ****  ****    0 ROOT
