@<TRIPOS>MOLECULE
PYF
   15    15     1     0     0
SMALL
bcc


@<TRIPOS>ATOM
      1 N1         -0.0400    0.5300    0.0130 nb        1 PYF     -0.664000
      2 C2          1.2990    0.4080    0.0130 ca        1 PYF      0.392200
      3 C3          2.0390   -0.0680    1.1180 ca        1 PYF     -0.205600
      4 C4          1.3410   -0.4320    2.2740 ca        1 PYF     -0.066000
      5 C5         -0.0500   -0.3110    2.2880 ca        1 PYF     -0.247300
      6 C6         -0.6950    0.1730    1.1370 ca        1 PYF      0.391200
      7 C7          3.5220   -0.1610    1.0080 c3        1 PYF      0.181700
      8 O7          4.0530   -0.6640    2.2250 oh        1 PYF     -0.599800
      9 H2          1.8100    0.7070   -0.9190 h4        1 PYF      0.019100
     10 H4          1.8890   -0.8070    3.1530 ha        1 PYF      0.159000
     11 H5         -0.6310   -0.5870    3.1770 ha        1 PYF      0.144000
     12 H6         -1.7940    0.2840    1.1050 h4        1 PYF      0.021100
     13 H71         3.7980   -0.8500    0.1610 h1        1 PYF      0.034700
     14 H72         3.9530    0.8580    0.8000 h1        1 PYF      0.034700
     15 HO7         5.0090   -0.7060    2.1050 ho        1 PYF      0.406000
@<TRIPOS>BOND
     1    1    2 ar  
     2    1    6 ar  
     3    2    3 ar  
     4    2    9 1   
     5    3    4 ar  
     6    3    7 1   
     7    4    5 ar  
     8    4   10 1   
     9    5    6 ar  
    10    5   11 1   
    11    6   12 1   
    12    7    8 1   
    13    7   13 1   
    14    7   14 1   
    15    8   15 1   
@<TRIPOS>SUBSTRUCTURE
     1 PYF         1 TEMP              0 ****  ****    0 ROOT
