@<TRIPOS>MOLECULE
PYF
   15    15     1     0     0
SMALL
bcc


@<TRIPOS>ATOM
      1 N1         -0.0330    0.3020   -0.0090 nb        1 PYF     -0.663000
      2 C2          1.3120    0.2960   -0.0260 ca        1 PYF      0.401200
      3 C3          2.1050    0.0260    1.1090 ca        1 PYF     -0.248600
      4 C4          1.4540   -0.2520    2.3170 ca        1 PYF     -0.082000
      5 C5          0.0600   -0.2530    2.3500 ca        1 PYF     -0.244300
      6 C6         -0.6400    0.0300    1.1630 ca        1 PYF      0.395200
      7 C7          3.5920    0.0660    1.0110 c3        1 PYF      0.176700
      8 O7          4.2360   -0.7030    2.0080 oh        1 PYF     -0.593800
      9 H2          1.7820    0.5220   -1.0010 h4        1 PYF      0.022100
     10 H4          2.0460   -0.4610    3.2220 ha        1 PYF      0.151000
     11 H5         -0.4840   -0.4660    3.2790 ha        1 PYF      0.145000
     12 H6         -1.7450    0.0410    1.1450 h4        1 PYF      0.023100
     13 H71         3.9230   -0.2750   -0.0090 h1        1 PYF      0.057700
     14 H72         3.9640    1.1150    1.1880 h1        1 PYF      0.057700
     15 HO7         3.9320   -1.6140    1.9110 ho        1 PYF      0.402000
@<TRIPOS>BOND
     1    1    2 ar  
     2    1    6 ar  
     3    2    3 ar  
     4    2    9 1   
     5    3    4 ar  
     6    3    7 1   
     7    4    5 ar  
     8    4   10 1   
     9    5    6 ar  
    10    5   11 1   
    11    6   12 1   
    12    7    8 1   
    13    7   13 1   
    14    7   14 1   
    15    8   15 1   
@<TRIPOS>SUBSTRUCTURE
     1 PYF         1 TEMP              0 ****  ****    0 ROOT
