@<TRIPOS>MOLECULE
PYG
   15    15     1     0     0
SMALL
bcc


@<TRIPOS>ATOM
      1 C1          0.1090    0.0790    1.2080 ca        1 PYG      0.153100
      2 C2         -0.5950   -0.0400   -0.0040 ca        1 PYG     -0.094900
      3 C3          0.1140   -0.1200   -1.2170 ca        1 PYG      0.153100
      4 C4          1.5170   -0.1230   -1.2130 ca        1 PYG     -0.186000
      5 C5          2.1930   -0.0310    0.0010 ca        1 PYG     -0.068000
      6 C6          1.5110    0.0770    1.2110 ca        1 PYG     -0.186000
      7 O1         -0.5370    0.1810    2.4140 oh        1 PYG     -0.491100
      8 O2         -1.9780    0.0240   -0.0130 oh        1 PYG     -0.518100
      9 O3         -0.5260   -0.2170   -2.4250 oh        1 PYG     -0.491100
     10 H4          2.0590   -0.1950   -2.1660 ha        1 PYG      0.155000
     11 H5          3.2950   -0.0350    0.0040 ha        1 PYG      0.140000
     12 H6          2.0490    0.1610    2.1650 ha        1 PYG      0.155000
     13 HO1        -1.4800    0.3230    2.2310 ho        1 PYG      0.433000
     14 HO2        -2.2880   -0.8930    0.0620 ho        1 PYG      0.412000
     15 HO3        -1.4710   -0.0470   -2.2730 ho        1 PYG      0.433000
@<TRIPOS>BOND
     1    1    2 ar  
     2    1    6 ar  
     3    1    7 1   
     4    2    3 ar  
     5    2    8 1   
     6    3    4 ar  
     7    3    9 1   
     8    4    5 ar  
     9    4   10 1   
    10    5    6 ar  
    11    5   11 1   
    12    6   12 1   
    13    7   13 1   
    14    8   14 1   
    15    9   15 1   
@<TRIPOS>SUBSTRUCTURE
     1 PYG         1 TEMP              0 ****  ****    0 ROOT
