@<TRIPOS>MOLECULE
PYG
   15    15     1     0     0
SMALL
bcc


@<TRIPOS>ATOM
      1 C1         -0.0730    0.1050    0.0980 ca        1 PYG      0.153100
      2 C2          1.3320    0.1460    0.0980 ca        1 PYG     -0.094900
      3 C3          2.0310    0.1020    1.3180 ca        1 PYG      0.153100
      4 C4          1.3310   -0.0240    2.5270 ca        1 PYG     -0.186000
      5 C5         -0.0610   -0.0890    2.5020 ca        1 PYG     -0.068000
      6 C6         -0.7740   -0.0210    1.3070 ca        1 PYG     -0.186000
      7 O1         -0.8010    0.1650   -1.0630 oh        1 PYG     -0.491100
      8 O2          2.0210    0.3310   -1.0890 oh        1 PYG     -0.518100
      9 O3          3.4010    0.1590    1.3710 oh        1 PYG     -0.491100
     10 H4          1.8890   -0.0670    3.4720 ha        1 PYG      0.155000
     11 H5         -0.6110   -0.1900    3.4510 ha        1 PYG      0.140000
     12 H6         -1.8720   -0.0610    1.2930 ha        1 PYG      0.155000
     13 HO1        -0.1900    0.4040   -1.7800 ho        1 PYG      0.433000
     14 HO2         2.2150   -0.5580   -1.4270 ho        1 PYG      0.412000
     15 HO3         3.7200    0.3980    0.4850 ho        1 PYG      0.433000
@<TRIPOS>BOND
     1    1    2 ar  
     2    1    6 ar  
     3    1    7 1   
     4    2    3 ar  
     5    2    8 1   
     6    3    4 ar  
     7    3    9 1   
     8    4    5 ar  
     9    4   10 1   
    10    5    6 ar  
    11    5   11 1   
    12    6   12 1   
    13    7   13 1   
    14    8   14 1   
    15    9   15 1   
@<TRIPOS>SUBSTRUCTURE
     1 PYG         1 TEMP              0 ****  ****    0 ROOT
