@<TRIPOS>MOLECULE
PYH
   38    38     1     0     0
SMALL
bcc


@<TRIPOS>ATOM
      1 CAA         5.5020    2.4420    0.7150 c3        1 PYH     -0.086100
      2 CAP         5.0000    1.0300    0.5670 c3        1 PYH     -0.087700
      3 CAJ         6.0030    0.1250   -0.1720 c3        1 PYH     -0.179700
      4 CAF         5.2150   -0.3530   -1.3720 c2        1 PYH      0.400200
      5 NAL         4.0000    0.0840   -1.4590 n2        1 PYH     -0.565900
      6 CAR         3.7130    0.9700   -0.3220 c3        1 PYH      0.013500
      7 CAO         2.4830    0.5350    0.4940 c         1 PYH      0.666100
      8 OAD         2.5250    0.5180    1.7430 o         1 PYH     -0.629100
      9 NZ          1.3440    0.2340   -0.2030 n         1 PYH     -0.550900
     10 CE          0.1220   -0.1620    0.4540 c3        1 PYH      0.087000
     11 CD         -1.1180    0.0390   -0.4140 c3        1 PYH     -0.094400
     12 CG         -2.3540   -0.4320    0.3250 c3        1 PYH     -0.074400
     13 CB         -3.5890   -0.2700   -0.5350 c3        1 PYH     -0.063400
     14 CA         -4.8730   -0.6440    0.2060 c3        1 PYH      0.018500
     15 C          -6.0880   -0.1340   -0.6410 c         1 PYH      0.887600
     16 OXT        -6.0830    1.0760   -0.9980 o         1 PYH     -0.844800
     17 O          -7.0130   -0.9540   -0.9050 o         1 PYH     -0.844800
     18 N          -4.9410   -2.0540    0.5670 n3        1 PYH     -0.891800
     19 HA         -4.9000   -0.0660    1.1760 h1        1 PYH      0.041700
     20 H          -5.8930   -2.2450    0.8380 hn        1 PYH      0.329800
     21 HN2        -4.7730   -2.6020   -0.2590 hn        1 PYH      0.329800
     22 HB1        -3.6960    0.8010   -0.8570 hc        1 PYH      0.046700
     23 HB2        -3.4860   -0.8900   -1.4630 hc        1 PYH      0.046700
     24 HG1        -2.2320   -1.5080    0.6180 hc        1 PYH      0.040700
     25 HG2        -2.4750    0.1580    1.2710 hc        1 PYH      0.040700
     26 HD1        -1.2310    1.1220   -0.6810 hc        1 PYH      0.040700
     27 HD2        -1.0160   -0.5340   -1.3730 hc        1 PYH      0.040700
     28 HE1         0.1980   -1.2510    0.7430 h1        1 PYH      0.051200
     29 HE2         0.0190    0.4310    1.4080 h1        1 PYH      0.051200
     30 HZ          1.3620    0.2070   -1.1940 hn        1 PYH      0.322500
     31 HAR         3.4820    1.9940   -0.7350 h1        1 PYH      0.089700
     32 HAF         5.6550   -1.0230   -2.1200 h4        1 PYH      0.031800
     33 HAJ1        6.9150    0.6850   -0.4940 hc        1 PYH      0.062200
     34 HAJ2        6.3220   -0.7380    0.4610 hc        1 PYH      0.062200
     35 HAP         4.7710    0.6080    1.5820 hc        1 PYH      0.099700
     36 HAA1        5.7270    2.8960   -0.2800 hc        1 PYH      0.036700
     37 HAA2        4.7340    3.0710    1.2280 hc        1 PYH      0.036700
     38 HAA3        6.4370    2.4550    1.3270 hc        1 PYH      0.036700
@<TRIPOS>BOND
     1    1    2 1   
     2    1   36 1   
     3    1   37 1   
     4    1   38 1   
     5    2    3 1   
     6    2    6 1   
     7    2   35 1   
     8    3    4 1   
     9    3   33 1   
    10    3   34 1   
    11    4    5 2   
    12    4   32 1   
    13    5    6 1   
    14    6    7 1   
    15    6   31 1   
    16    7    8 2   
    17    7    9 1   
    18    9   10 1   
    19    9   30 1   
    20   10   11 1   
    21   10   28 1   
    22   10   29 1   
    23   11   12 1   
    24   11   26 1   
    25   11   27 1   
    26   12   13 1   
    27   12   24 1   
    28   12   25 1   
    29   13   14 1   
    30   13   22 1   
    31   13   23 1   
    32   14   15 1   
    33   14   18 1   
    34   14   19 1   
    35   15   16 1   
    36   15   17 1   
    37   18   20 1   
    38   18   21 1   
@<TRIPOS>SUBSTRUCTURE
     1 PYH         1 TEMP              0 ****  ****    0 ROOT
