@<TRIPOS>MOLECULE
PYJ
   18    18     1     0     0
SMALL
bcc


@<TRIPOS>ATOM
      1 CB         -1.9580    0.1150   -0.5460 c3        1 PYJ     -0.038100
      2 CX         -2.7690   -0.1670    0.6970 c3        1 PYJ     -0.089100
      3 CG         -0.4930    0.0770   -0.2780 ca        1 PYJ     -0.077300
      4 CD1         0.1470   -1.1460   -0.0430 ca        1 PYJ     -0.128000
      5 CD2         0.2600    1.2560   -0.2680 ca        1 PYJ     -0.128000
      6 CE1         1.5180   -1.1870    0.2010 ca        1 PYJ     -0.128000
      7 CE2         1.6320    1.2130   -0.0250 ca        1 PYJ     -0.128000
      8 CZ          2.2630   -0.0080    0.2100 ca        1 PYJ     -0.134000
      9 HCB1       -2.2060   -0.6480   -1.3330 hc        1 PYJ      0.046700
     10 HCB2       -2.2460    1.1190   -0.9580 hc        1 PYJ      0.046700
     11 HCX1       -3.8590   -0.1590    0.4530 hc        1 PYJ      0.036033
     12 HCX2       -2.5060   -1.1670    1.1180 hc        1 PYJ      0.036033
     13 HCX3       -2.5750    0.6060    1.4790 hc        1 PYJ      0.036033
     14 HCD1       -0.4400   -2.0760   -0.0500 ha        1 PYJ      0.130000
     15 HCD2       -0.2330    2.2220   -0.4540 ha        1 PYJ      0.130000
     16 HCE1        2.0130   -2.1520    0.3850 ha        1 PYJ      0.130000
     17 HCE2        2.2160    2.1440   -0.0190 ha        1 PYJ      0.130000
     18 HCZ1        3.3450   -0.0420    0.4020 ha        1 PYJ      0.130000
@<TRIPOS>BOND
     1    1    2 1   
     2    1    3 1   
     3    1    9 1   
     4    1   10 1   
     5    2   11 1   
     6    2   12 1   
     7    2   13 1   
     8    3    4 ar  
     9    3    5 ar  
    10    4    6 ar  
    11    4   14 1   
    12    5    7 ar  
    13    5   15 1   
    14    6    8 ar  
    15    6   16 1   
    16    7    8 ar  
    17    7   17 1   
    18    8   18 1   
@<TRIPOS>SUBSTRUCTURE
     1 PYJ         1 TEMP              0 ****  ****    0 ROOT
