@<TRIPOS>MOLECULE
PYJ
   18    18     1     0     0
SMALL
bcc


@<TRIPOS>ATOM
      1 CB          0.0370   -0.1150    0.0280 c3        1 PYJ     -0.038100
      2 CX          1.5200    0.1640   -0.0400 c3        1 PYJ     -0.089100
      3 CG         -0.4770   -0.0760    1.4250 ca        1 PYJ     -0.077300
      4 CD1        -0.5970    1.1470    2.0960 ca        1 PYJ     -0.128000
      5 CD2        -0.8530   -1.2550    2.0780 ca        1 PYJ     -0.128000
      6 CE1        -1.0840    1.1890    3.4010 ca        1 PYJ     -0.128000
      7 CE2        -1.3410   -1.2110    3.3840 ca        1 PYJ     -0.128000
      8 CZ         -1.4570    0.0100    4.0470 ca        1 PYJ     -0.134000
      9 HCB1       -0.5130    0.6500   -0.5860 hc        1 PYJ      0.046700
     10 HCB2       -0.1740   -1.1180   -0.4300 hc        1 PYJ      0.046700
     11 HCX1        2.0930   -0.6100    0.5250 hc        1 PYJ      0.036033
     12 HCX2        1.7510    1.1630    0.4020 hc        1 PYJ      0.036033
     13 HCX3        1.8630    0.1550   -1.1020 hc        1 PYJ      0.036033
     14 HCD1       -0.3030    2.0770    1.5870 ha        1 PYJ      0.130000
     15 HCD2       -0.7640   -2.2210    1.5590 ha        1 PYJ      0.130000
     16 HCE1       -1.1750    2.1530    3.9210 ha        1 PYJ      0.130000
     17 HCE2       -1.6340   -2.1420    3.8900 ha        1 PYJ      0.130000
     18 HCZ1       -1.8420    0.0440    5.0770 ha        1 PYJ      0.130000
@<TRIPOS>BOND
     1    1    2 1   
     2    1    3 1   
     3    1    9 1   
     4    1   10 1   
     5    2   11 1   
     6    2   12 1   
     7    2   13 1   
     8    3    4 ar  
     9    3    5 ar  
    10    4    6 ar  
    11    4   14 1   
    12    5    7 ar  
    13    5   15 1   
    14    6    8 ar  
    15    6   16 1   
    16    7    8 ar  
    17    7   17 1   
    18    8   18 1   
@<TRIPOS>SUBSTRUCTURE
     1 PYJ         1 TEMP              0 ****  ****    0 ROOT
