@<TRIPOS>MOLECULE
PYJ
   18    18     1     0     0
SMALL
bcc


@<TRIPOS>ATOM
      1 CB          0.0350   -0.1100    0.0270 c3        1 PYJ     -0.038100
      2 CX          1.5130    0.1930   -0.0430 c3        1 PYJ     -0.089100
      3 CG         -0.4760   -0.0800    1.4250 ca        1 PYJ     -0.077300
      4 CD1        -0.6170    1.1420    2.0960 ca        1 PYJ     -0.128000
      5 CD2        -0.8300   -1.2640    2.0800 ca        1 PYJ     -0.128000
      6 CE1        -1.1020    1.1760    3.4020 ca        1 PYJ     -0.128000
      7 CE2        -1.3160   -1.2280    3.3870 ca        1 PYJ     -0.128000
      8 CZ         -1.4520   -0.0090    4.0500 ca        1 PYJ     -0.134000
      9 HCB1       -0.5280    0.6450   -0.5860 hc        1 PYJ      0.046700
     10 HCB2       -0.1600   -1.1170   -0.4300 hc        1 PYJ      0.046700
     11 HCX1        2.1000   -0.5720    0.5200 hc        1 PYJ      0.036033
     12 HCX2        1.7290    1.1960    0.3980 hc        1 PYJ      0.036033
     13 HCX3        1.8550    0.1890   -1.1060 hc        1 PYJ      0.036033
     14 HCD1       -0.3410    2.0760    1.5860 ha        1 PYJ      0.130000
     15 HCD2       -0.7250   -2.2290    1.5620 ha        1 PYJ      0.130000
     16 HCE1       -1.2090    2.1390    3.9210 ha        1 PYJ      0.130000
     17 HCE2       -1.5920   -2.1640    3.8940 ha        1 PYJ      0.130000
     18 HCZ1       -1.8360    0.0190    5.0800 ha        1 PYJ      0.130000
@<TRIPOS>BOND
     1    1    2 1   
     2    1    3 1   
     3    1    9 1   
     4    1   10 1   
     5    2   11 1   
     6    2   12 1   
     7    2   13 1   
     8    3    4 ar  
     9    3    5 ar  
    10    4    6 ar  
    11    4   14 1   
    12    5    7 ar  
    13    5   15 1   
    14    6    8 ar  
    15    6   16 1   
    16    7    8 ar  
    17    7   17 1   
    18    8   18 1   
@<TRIPOS>SUBSTRUCTURE
     1 PYJ         1 TEMP              0 ****  ****    0 ROOT
