@<TRIPOS>MOLECULE
PYL
   38    37     1     0     0
SMALL
bcc


@<TRIPOS>ATOM
      1 CB2        -3.4840   -2.4090    3.5510 c3        1 PYL     -0.204000
      2 CG2        -2.1440   -2.1400    3.7050 c3        1 PYL     -0.127000
      3 CD2        -1.8260   -1.8440    5.1650 c3        1 PYL     -0.183000
      4 CE2        -1.2090   -0.6660    5.0510 c2        1 PYL     -0.092000
      5 N2         -1.4160    0.0030    3.8750 n1        1 PYL     -0.153000
      6 CA2        -1.7330   -0.7540    2.8500 c2        1 PYL     -0.101000
      7 C2         -0.6360   -0.9330    1.8160 c2        1 PYL      0.310000
      8 O2          0.2510   -1.7760    1.9980 o         1 PYL     -0.390000
      9 NZ         -0.5460   -0.0250    0.7020 n         1 PYL     -0.360000
     10 CE          0.6310   -0.0410   -0.1560 c3        1 PYL     -0.029000
     11 CD          0.3320    0.7140   -1.4320 c3        1 PYL     -0.173000
     12 CG          1.6290    0.9010   -2.2340 c3        1 PYL     -0.153000
     13 CB          1.3010    1.5070   -3.6030 c3        1 PYL     -0.142000
     14 CA          2.6040    1.8240   -4.3460 c3        1 PYL     -0.129000
     15 C           2.6510    1.0450   -5.6350 c2        1 PYL      0.307000
     16 OXT         3.5890    0.2520   -5.8480 o         1 PYL     -0.579500
     17 O           1.7820    1.2640   -6.5470 o         1 PYL     -0.579500
     18 N           2.6670    3.2220   -4.6310 n3        1 PYL     -0.324000
     19 HA          3.3880    1.5660   -3.7710 h1        1 PYL      0.081000
     20 H           3.0080    3.3480   -5.4940 hn        1 PYL      0.125000
     21 H2          3.2090    3.6270   -4.0310 hn        1 PYL      0.125000
     22 HB3         0.7780    2.3470   -3.4790 hc        1 PYL      0.086000
     23 HB2         0.7750    0.8690   -4.1240 hc        1 PYL      0.086000
     24 HG3         2.0700    0.0220   -2.3590 hc        1 PYL      0.080000
     25 HG2         2.2300    1.5020   -1.7480 hc        1 PYL      0.080000
     26 HD3        -0.0380    1.5770   -1.2140 hc        1 PYL      0.080000
     27 HD2        -0.3310    0.1940   -1.9840 hc        1 PYL      0.080000
     28 HE3         1.3960    0.3950    0.3180 h1        1 PYL      0.090500
     29 HE2         0.8660   -0.9730   -0.3730 h1        1 PYL      0.090500
     30 HZ         -1.2720    0.5320    0.4910 hn        1 PYL      0.236000
     31 HA2        -2.4940   -0.3860    2.3010 ha        1 PYL      0.129000
     32 HE22       -0.9230   -0.1910    5.8590 h4        1 PYL      0.161000
     33 HD32       -1.4240   -2.5810    5.7190 hc        1 PYL      0.101500
     34 HD22       -2.6580   -1.6910    5.6440 hc        1 PYL      0.101500
     35 HG22       -1.6270   -2.8750    3.4040 hc        1 PYL      0.139000
     36 HB12       -3.7570   -3.1020    4.1920 hc        1 PYL      0.076000
     37 HB22       -3.9930   -1.6080    3.7100 hc        1 PYL      0.076000
     38 HB32       -3.6450   -2.7170    2.6580 hc        1 PYL      0.076000
@<TRIPOS>BOND
     1    1    2 1   
     2    1   36 1   
     3    1   37 1   
     4    1   38 1   
     5    2    3 1   
     6    2    6 1   
     7    2   35 1   
     8    3    4 1   
     9    3   33 1   
    10    3   34 1   
    11    4    5 1   
    12    4   32 1   
    13    6    7 1   
    14    6   31 1   
    15    7    8 1   
    16    7    9 1   
    17    9   10 1   
    18    9   30 1   
    19   10   11 1   
    20   10   28 1   
    21   10   29 1   
    22   11   12 1   
    23   11   26 1   
    24   11   27 1   
    25   12   13 1   
    26   12   24 1   
    27   12   25 1   
    28   13   14 1   
    29   13   22 1   
    30   13   23 1   
    31   14   15 1   
    32   14   18 1   
    33   14   19 1   
    34   15   16 1   
    35   15   17 1   
    36   18   20 1   
    37   18   21 1   
@<TRIPOS>SUBSTRUCTURE
     1 PYL         1 TEMP              0 ****  ****    0 ROOT
