@<TRIPOS>MOLECULE
PYM
   11    10     1     0     0
SMALL
bcc


@<TRIPOS>ATOM
      1 C1          0.1750   -0.0000   -0.6970 c         1 PYM      0.554100
      2 N1         -0.8080    0.0000   -1.6450 n         1 PYM     -0.650000
      3 O1          1.3820   -0.0000   -1.0130 o         1 PYM     -0.596100
      4 C2         -0.2430   -0.0000    0.7740 c         1 PYM      0.510100
      5 O2         -1.4310   -0.0000    1.1050 o         1 PYM     -0.512100
      6 C3          0.8950    0.0000    1.7300 c3        1 PYM     -0.190100
      7 HN12       -0.5720   -0.0000   -2.6050 hn        1 PYM      0.323500
      8 HN11       -1.7610    0.0000   -1.3790 hn        1 PYM      0.323500
      9 H33         0.5300    0.0000    2.7850 hc        1 PYM      0.078700
     10 H32         1.5300   -0.9040    1.5510 hc        1 PYM      0.078700
     11 H31         1.5300    0.9040    1.5510 hc        1 PYM      0.078700
@<TRIPOS>BOND
     1    1    2 1   
     2    1    3 2   
     3    1    4 1   
     4    2    7 1   
     5    2    8 1   
     6    4    5 2   
     7    4    6 1   
     8    6    9 1   
     9    6   10 1   
    10    6   11 1   
@<TRIPOS>SUBSTRUCTURE
     1 PYM         1 TEMP              0 ****  ****    0 ROOT
