@<TRIPOS>MOLECULE
PYM
   12    11     1     0     0
SMALL
bcc


@<TRIPOS>ATOM
      1 C1         -0.1140    0.1170    0.0200 c         1 PYM      0.406100
      2 N1          1.3890   -0.0550    0.0210 n4        1 PYM     -0.759400
      3 O1         -0.6390    0.2690    1.1060 o         1 PYM     -0.353100
      4 C2         -0.7890    0.0980   -1.3690 c         1 PYM      0.557100
      5 O2         -0.0720    0.2070   -2.3530 o         1 PYM     -0.436100
      6 C3         -2.2590   -0.0500   -1.3050 c3        1 PYM     -0.197100
      7 HN12        1.7920    0.4920   -0.7500 hn        1 PYM      0.477133
      8 HN11        1.7950    0.2530    0.9130 hn        1 PYM      0.477133
      9 H33        -2.7130    0.2590   -2.2830 hc        1 PYM      0.116700
     10 H32        -2.5210   -1.1240   -1.1120 hc        1 PYM      0.116700
     11 H31        -2.6910    0.5740   -0.4810 hc        1 PYM      0.116700
     12 H13         1.6220   -1.0430   -0.1270 hn        1 PYM      0.477133
@<TRIPOS>BOND
     1    1    2 1   
     2    1    3 2   
     3    1    4 1   
     4    2    7 1   
     5    2    8 1   
     6    2   12 1   
     7    4    5 2   
     8    4    6 1   
     9    6    9 1   
    10    6   10 1   
    11    6   11 1   
@<TRIPOS>SUBSTRUCTURE
     1 PYM         1 TEMP              0 ****  ****    0 ROOT
