@<TRIPOS>MOLECULE
PYM
   12    11     1     0     0
SMALL
bcc


@<TRIPOS>ATOM
      1 C1         -0.1160   -0.0000    0.0180 c         1 PYM      0.405100
      2 N1          1.3960    0.0000    0.0170 n4        1 PYM     -0.757400
      3 O1         -0.6520   -0.0010    1.1090 o         1 PYM     -0.353100
      4 C2         -0.7880   -0.0000   -1.3730 c         1 PYM      0.557100
      5 O2         -0.0660   -0.0010   -2.3590 o         1 PYM     -0.435100
      6 C3         -2.2650    0.0000   -1.3030 c3        1 PYM     -0.196100
      7 HN12        1.7680    0.0000    0.9750 hn        1 PYM      0.476800
      8 HN11        1.7360    0.8320   -0.4810 hn        1 PYM      0.476800
      9 H33        -2.6260    0.9080   -0.7540 hc        1 PYM      0.116367
     10 H32        -2.6270   -0.9080   -0.7540 hc        1 PYM      0.116367
     11 H31        -2.6960    0.0010   -2.3390 hc        1 PYM      0.116367
     12 H13         1.7360   -0.8310   -0.4810 hn        1 PYM      0.476800
@<TRIPOS>BOND
     1    1    2 1   
     2    1    3 2   
     3    1    4 1   
     4    2    7 1   
     5    2    8 1   
     6    2   12 1   
     7    4    5 2   
     8    4    6 1   
     9    6    9 1   
    10    6   10 1   
    11    6   11 1   
@<TRIPOS>SUBSTRUCTURE
     1 PYM         1 TEMP              0 ****  ****    0 ROOT
