@<TRIPOS>MOLECULE
PYN
   67    71     1     0     0
SMALL
bcc


@<TRIPOS>ATOM
      1 C          -2.5950    0.2880   -1.1480 ca        1 PYN     -0.181800
      2 C1         -1.1970    0.0340   -0.9170 ca        1 PYN      0.454100
      3 C2         -3.4300    0.4620   -0.0390 ca        1 PYN     -0.047000
      4 C3         -2.8940    0.3860    1.2490 ca        1 PYN     -0.181800
      5 C4         -1.4840    0.1290    1.3950 ca        1 PYN      0.454100
      6 C5         -0.9300    0.0510    2.7260 ca        1 PYN     -0.239800
      7 C6         -1.7310    0.2180    3.8370 ca        1 PYN      0.085100
      8 C7         -3.1470    0.4750    3.6640 ca        1 PYN     -0.155000
      9 C8         -3.6920    0.5540    2.4210 ca        1 PYN     -0.087000
     10 C9         -3.0740    0.3510   -2.4900 ca        1 PYN     -0.087000
     11 C10        -2.2450    0.1780   -3.5560 ca        1 PYN     -0.155000
     12 C11        -0.8400   -0.0760   -3.3510 ca        1 PYN      0.085100
     13 C12        -0.3410   -0.1430   -2.0600 ca        1 PYN     -0.239800
     14 N          -0.6640   -0.0410    0.3290 nb        1 PYN     -0.670000
     15 N13        -1.2600    0.1570    5.1570 n         1 PYN     -0.475100
     16 C14         0.0380   -0.0990    5.5880 c         1 PYN      0.666100
     17 C15         0.2280   -0.1010    7.0970 c3        1 PYN     -0.156900
     18 C16         1.6760   -0.4680    7.4330 c3        1 PYN      0.174300
     19 O14         0.9800   -0.3080    4.8050 o         1 PYN     -0.585100
     20 N1          0.0440   -0.2690   -4.4240 n         1 PYN     -0.475100
     21 C17        -0.2050   -0.1270   -5.7850 c         1 PYN      0.666100
     22 C18         0.9900   -0.3910   -6.6890 c3        1 PYN     -0.156900
     23 C19         0.5830   -0.1970   -8.1510 c3        1 PYN      0.174300
     24 O1         -1.3170    0.1880   -6.2430 o         1 PYN     -0.585100
     25 C21         3.1510   -1.2100    9.2290 c3        1 PYN      0.158800
     26 N22         1.9130   -0.5150    8.8660 n3        1 PYN     -0.730600
     27 C23         1.9050    0.7940    9.5220 c3        1 PYN      0.158800
     28 C24         3.9730   -0.3300   10.1840 c3        1 PYN     -0.093650
     29 C25         3.1750    0.9530   10.3720 c3        1 PYN     -0.093650
     30 C26         1.2450   -0.6510  -10.4550 c3        1 PYN      0.158800
     31 N27         1.6780   -0.4680   -9.0680 n3        1 PYN     -0.730600
     32 C28         2.7470    0.5320   -9.0420 c3        1 PYN      0.158800
     33 C29         2.0790    0.2510  -11.3770 c3        1 PYN     -0.093650
     34 C30         3.0410    1.0090  -10.4730 c3        1 PYN     -0.093650
     35 H21        -4.5040    0.6570   -0.1820 ha        1 PYN      0.137000
     36 H51         0.1530   -0.1470    2.8170 ha        1 PYN      0.170500
     37 H71        -3.7840    0.6070    4.5530 ha        1 PYN      0.153500
     38 H81        -4.7680    0.7490    2.2910 ha        1 PYN      0.135000
     39 H91        -4.1470    0.5450   -2.6470 ha        1 PYN      0.135000
     40 H101       -2.6450    0.2320   -4.5820 ha        1 PYN      0.153500
     41 H121        0.7280   -0.3370   -1.8670 ha        1 PYN      0.170500
     42 HN1        -1.9480    0.3000    5.8630 hn        1 PYN      0.317000
     43 H151       -0.0190    0.9150    7.5010 hc        1 PYN      0.072950
     44 H152       -0.4720   -0.8420    7.5660 hc        1 PYN      0.072950
     45 H161        1.8850   -1.4900    7.0060 h1        1 PYN      0.051700
     46 H162        2.3570    0.2610    6.9020 h1        1 PYN      0.051700
     47 HN11        0.9780   -0.5040   -4.1640 hn        1 PYN      0.317000
     48 H181        1.8230    0.3110   -6.4210 hc        1 PYN      0.072950
     49 H182        1.3540   -1.4400   -6.5280 hc        1 PYN      0.072950
     50 H191       -0.2540   -0.9170   -8.3790 h1        1 PYN      0.051700
     51 H192        0.1660    0.8470   -8.2660 h1        1 PYN      0.051700
     52 H212        3.7680   -1.4830    8.3300 h1        1 PYN      0.043200
     53 H231        1.8270    1.6390    8.7830 h1        1 PYN      0.043200
     54 H232        0.9910    0.8290   10.1760 h1        1 PYN      0.043200
     55 H241        4.1270   -0.8540   11.1580 hc        1 PYN      0.047950
     56 H242        4.9790   -0.1170    9.7490 hc        1 PYN      0.047950
     57 H251        2.9070    1.1060   11.4460 hc        1 PYN      0.047950
     58 H252        3.7610    1.8430   10.0370 hc        1 PYN      0.047950
     59 H261        1.4160   -1.7340  -10.7080 h1        1 PYN      0.043200
     60 H262        0.1490   -0.4360  -10.5940 h1        1 PYN      0.043200
     61 H281        2.4910    1.4110   -8.3880 h1        1 PYN      0.043200
     62 H282        3.6540    0.0330   -8.6040 h1        1 PYN      0.043200
     63 H291        2.6320   -0.3650  -12.1270 hc        1 PYN      0.047950
     64 H292        1.4160    0.9550  -11.9390 hc        1 PYN      0.047950
     65 H301        4.1030    0.7920  -10.7450 hc        1 PYN      0.047950
     66 H302        2.8880    2.1120  -10.5570 hc        1 PYN      0.047950
     67 H211        2.8480   -2.1650    9.7400 h1        1 PYN      0.043200
@<TRIPOS>BOND
     1    1    2 ar  
     2    1    3 ar  
     3    1   10 ar  
     4    2   13 ar  
     5    2   14 ar  
     6    3    4 ar  
     7    3   35 1   
     8    4    5 ar  
     9    4    9 ar  
    10    5    6 ar  
    11    5   14 ar  
    12    6    7 ar  
    13    6   36 1   
    14    7    8 ar  
    15    7   15 1   
    16    8    9 ar  
    17    8   37 1   
    18    9   38 1   
    19   10   11 ar  
    20   10   39 1   
    21   11   12 ar  
    22   11   40 1   
    23   12   13 ar  
    24   12   20 1   
    25   13   41 1   
    26   15   16 1   
    27   15   42 1   
    28   16   17 1   
    29   16   19 2   
    30   17   18 1   
    31   17   43 1   
    32   17   44 1   
    33   18   26 1   
    34   18   45 1   
    35   18   46 1   
    36   20   21 1   
    37   20   47 1   
    38   21   22 1   
    39   21   24 2   
    40   22   23 1   
    41   22   48 1   
    42   22   49 1   
    43   23   31 1   
    44   23   50 1   
    45   23   51 1   
    46   25   26 1   
    47   25   28 1   
    48   25   52 1   
    49   25   67 1   
    50   26   27 1   
    51   27   29 1   
    52   27   53 1   
    53   27   54 1   
    54   28   29 1   
    55   28   55 1   
    56   28   56 1   
    57   29   57 1   
    58   29   58 1   
    59   30   31 1   
    60   30   33 1   
    61   30   59 1   
    62   30   60 1   
    63   31   32 1   
    64   32   34 1   
    65   32   61 1   
    66   32   62 1   
    67   33   34 1   
    68   33   63 1   
    69   33   64 1   
    70   34   65 1   
    71   34   66 1   
@<TRIPOS>SUBSTRUCTURE
     1 PYN         1 TEMP              0 ****  ****    0 ROOT
