@<TRIPOS>MOLECULE
PYN
   67    71     1     0     0
SMALL
bcc


@<TRIPOS>ATOM
      1 C          -0.0940   -0.5150   -0.0470 ca        1 PYN     -0.181800
      2 C1          1.3270   -0.3320    0.0930 ca        1 PYN      0.454100
      3 C2         -0.6490   -0.4440   -1.3280 ca        1 PYN     -0.047000
      4 C3          0.1770   -0.2000   -2.4290 ca        1 PYN     -0.181800
      5 C4          1.5900   -0.0280   -2.2040 ca        1 PYN      0.454100
      6 C5          2.4440    0.2240   -3.3400 ca        1 PYN     -0.239800
      7 C6          1.9220    0.2990   -4.6150 ca        1 PYN      0.085100
      8 C7          0.4970    0.1230   -4.8150 ca        1 PYN     -0.155000
      9 C8         -0.3270   -0.1150   -3.7610 ca        1 PYN     -0.087000
     10 C9         -0.8780   -0.7600    1.1190 ca        1 PYN     -0.087000
     11 C10        -0.3170   -0.8260    2.3590 ca        1 PYN     -0.155000
     12 C11         1.1050   -0.6470    2.5250 ca        1 PYN      0.085100
     13 C12         1.8960   -0.4070    1.4130 ca        1 PYN     -0.239800
     14 N           2.1410   -0.0940   -0.9670 nb        1 PYN     -0.670000
     15 N13         2.6930    0.5370   -5.7630 ns        1 PYN     -0.475100
     16 C14         4.0630    0.7690   -5.8370 c         1 PYN      0.666100
     17 C15         4.6050    0.9960   -7.2390 c3        1 PYN     -0.156900
     18 C16         6.1000    1.3150   -7.1690 c3        1 PYN      0.174300
     19 O14         4.7990    0.7860   -4.8360 o         1 PYN     -0.585100
     20 N1          1.7180   -0.7020    3.7860 ns        1 PYN     -0.475100
     21 C17         1.1430   -1.0060    5.0160 c         1 PYN      0.666100
     22 C18         2.1030   -0.9920    6.1950 c3        1 PYN     -0.156900
     23 C19         1.3440   -1.3170    7.4830 c3        1 PYN      0.174300
     24 O1         -0.0630   -1.2710    5.1550 o         1 PYN     -0.585100
     25 C21         7.9770    2.2280   -8.4320 c3        1 PYN      0.158800
     26 N22         6.6720    1.5640   -8.4820 n3        1 PYN     -0.730600
     27 C23         6.7870    0.3720   -9.3250 c3        1 PYN      0.158800
     28 C24         8.9820    1.4500   -9.2960 c3        1 PYN     -0.093650
     29 C25         8.2210    0.2610   -9.8660 c3        1 PYN     -0.093650
     30 C26         1.4690   -1.2260    9.9180 c3        1 PYN      0.158800
     31 N27         2.2050   -1.2880    8.6520 n3        1 PYN     -0.730600
     32 C28         3.1620   -2.3940    8.7250 c3        1 PYN      0.158800
     33 C29         1.9840   -2.3190   10.8660 c3        1 PYN     -0.093650
     34 C30         3.0680   -3.0680   10.1020 c3        1 PYN     -0.093650
     35 H21        -1.7330   -0.5790   -1.4690 ha        1 PYN      0.137000
     36 H51         3.5240    0.3550   -3.1480 ha        1 PYN      0.170500
     37 H71         0.0840    0.1840   -5.8340 ha        1 PYN      0.153500
     38 H81        -1.4100   -0.2490   -3.9150 ha        1 PYN      0.135000
     39 H91        -1.9640   -0.8970    0.9940 ha        1 PYN      0.135000
     40 H101       -0.9500   -1.0170    3.2420 ha        1 PYN      0.153500
     41 H121        2.9850   -0.2640    1.5030 ha        1 PYN      0.170500
     42 HN1         2.1880    0.5570   -6.6210 hn        1 PYN      0.317000
     43 H151        4.0560    1.8450   -7.7250 hc        1 PYN      0.072950
     44 H152        4.4330    0.0730   -7.8540 hc        1 PYN      0.072950
     45 H161        6.2290    2.2450   -6.5450 h1        1 PYN      0.051700
     46 H162        6.6160    0.4720   -6.6220 h1        1 PYN      0.051700
     47 HN11        2.6980   -0.5160    3.7870 hn        1 PYN      0.317000
     48 H181        2.9150   -1.7470    6.0220 hc        1 PYN      0.072950
     49 H182        2.5810    0.0200    6.2780 hc        1 PYN      0.072950
     50 H191        0.8270   -2.3130    7.3460 h1        1 PYN      0.051700
     51 H192        0.5380   -0.5410    7.6180 h1        1 PYN      0.051700
     52 H212        8.3670    2.3270   -7.3820 h1        1 PYN      0.043200
     53 H231        6.5090   -0.5670   -8.7730 h1        1 PYN      0.043200
     54 H232        6.0600    0.4980  -10.1730 h1        1 PYN      0.043200
     55 H241        9.8500    1.1130   -8.6780 hc        1 PYN      0.047950
     56 H242        9.3780    2.1020  -10.1120 hc        1 PYN      0.047950
     57 H251        8.2180    0.2840  -10.9830 hc        1 PYN      0.047950
     58 H252        8.6850   -0.7040   -9.5470 hc        1 PYN      0.047950
     59 H261        0.3590   -1.3340    9.7730 h1        1 PYN      0.043200
     60 H262        1.6600   -0.2070   10.3540 h1        1 PYN      0.043200
     61 H281        4.1860   -1.9530    8.5760 h1        1 PYN      0.043200
     62 H282        2.9960   -3.1530    7.9120 h1        1 PYN      0.043200
     63 H291        1.1530   -3.0050   11.1600 hc        1 PYN      0.047950
     64 H292        2.3940   -1.8620   11.7990 hc        1 PYN      0.047950
     65 H301        2.8080   -4.1490    9.9920 hc        1 PYN      0.047950
     66 H302        4.0490   -3.0070   10.6330 hc        1 PYN      0.047950
     67 H211        7.8290    3.2650   -8.8420 h1        1 PYN      0.043200
@<TRIPOS>BOND
     1    1    2 ar  
     2    1    3 ar  
     3    1   10 ar  
     4    2   13 ar  
     5    2   14 ar  
     6    3    4 ar  
     7    3   35 1   
     8    4    5 ar  
     9    4    9 ar  
    10    5    6 ar  
    11    5   14 ar  
    12    6    7 ar  
    13    6   36 1   
    14    7    8 ar  
    15    7   15 1   
    16    8    9 ar  
    17    8   37 1   
    18    9   38 1   
    19   10   11 ar  
    20   10   39 1   
    21   11   12 ar  
    22   11   40 1   
    23   12   13 ar  
    24   12   20 1   
    25   13   41 1   
    26   15   16 1   
    27   15   42 1   
    28   16   17 1   
    29   16   19 2   
    30   17   18 1   
    31   17   43 1   
    32   17   44 1   
    33   18   26 1   
    34   18   45 1   
    35   18   46 1   
    36   20   21 1   
    37   20   47 1   
    38   21   22 1   
    39   21   24 2   
    40   22   23 1   
    41   22   48 1   
    42   22   49 1   
    43   23   31 1   
    44   23   50 1   
    45   23   51 1   
    46   25   26 1   
    47   25   28 1   
    48   25   52 1   
    49   25   67 1   
    50   26   27 1   
    51   27   29 1   
    52   27   53 1   
    53   27   54 1   
    54   28   29 1   
    55   28   55 1   
    56   28   56 1   
    57   29   57 1   
    58   29   58 1   
    59   30   31 1   
    60   30   33 1   
    61   30   59 1   
    62   30   60 1   
    63   31   32 1   
    64   32   34 1   
    65   32   61 1   
    66   32   62 1   
    67   33   34 1   
    68   33   63 1   
    69   33   64 1   
    70   34   65 1   
    71   34   66 1   
@<TRIPOS>SUBSTRUCTURE
     1 PYN         1 TEMP              0 ****  ****    0 ROOT
