@<TRIPOS>MOLECULE
PYN
   69    73     1     0     0
SMALL
bcc


@<TRIPOS>ATOM
      1 C           2.1090    0.5080    0.6180 ca        1 PYN     -0.135300
      2 C1          3.3760   -0.1510    0.7970 ca        1 PYN      0.422600
      3 C2          1.5200    0.4800   -0.6540 ca        1 PYN     -0.026000
      4 C3          2.1720   -0.1800   -1.7040 ca        1 PYN     -0.135300
      5 C4          3.4370   -0.8110   -1.4330 ca        1 PYN      0.422600
      6 C5          4.1110   -1.4950   -2.5150 ca        1 PYN     -0.110300
      7 C6          3.5350   -1.5280   -3.7630 ca        1 PYN     -0.016400
      8 C7          2.2720   -0.8960   -4.0280 ca        1 PYN     -0.142000
      9 C8          1.6210   -0.2460   -3.0220 ca        1 PYN     -0.048000
     10 C9          1.4960    1.1670    1.7280 ca        1 PYN     -0.048000
     11 C10         2.0890    1.1830    2.9560 ca        1 PYN     -0.142000
     12 C11         3.3540    0.5270    3.1410 ca        1 PYN     -0.016400
     13 C12         3.9880   -0.1220    2.1080 ca        1 PYN     -0.110300
     14 N           4.0180   -0.7930   -0.2090 nb        1 PYN     -0.619000
     15 N13         4.2050   -2.2280   -4.8640 n4        1 PYN     -0.571200
     16 C14         5.1790   -1.3000   -5.6200 c         1 PYN      0.565100
     17 C15         4.5620   -0.5180   -6.7310 c3        1 PYN     -0.164400
     18 C16         5.5830    0.5070   -7.2740 c3        1 PYN      0.186800
     19 O14         6.3250   -1.3480   -5.2150 o         1 PYN     -0.394100
     20 N1          3.9710    0.5710    4.4700 n4        1 PYN     -0.571200
     21 C17         3.5650   -0.6450    5.3280 c         1 PYN      0.565100
     22 C18         2.3030   -0.4700    6.1050 c3        1 PYN     -0.164400
     23 C19         1.9040   -1.8120    6.7590 c3        1 PYN      0.186800
     24 O1          4.3430   -1.5780    5.2650 o         1 PYN     -0.394100
     25 C21         5.5140    2.7010   -8.3650 c3        1 PYN      0.158800
     26 N22         4.9570    1.3460   -8.2710 n3        1 PYN     -0.744600
     27 C23         4.9060    0.7660   -9.6170 c3        1 PYN      0.158800
     28 C24         5.9040    2.9890   -9.8230 c3        1 PYN     -0.094400
     29 C25         5.5300    1.7470  -10.6200 c3        1 PYN     -0.094400
     30 C26        -0.1660   -2.9150    7.4700 c3        1 PYN      0.158800
     31 N27         0.6240   -1.6790    7.4170 n3        1 PYN     -0.744600
     32 C28         0.6840   -1.1030    8.7640 c3        1 PYN      0.158800
     33 C29        -0.5810   -3.1900    8.9230 c3        1 PYN     -0.094400
     34 C30        -0.0250   -2.0400    9.7520 c3        1 PYN     -0.094400
     35 H21         0.5490    0.9760   -0.8260 ha        1 PYN      0.176000
     36 H51         5.0840   -1.9750   -2.2960 ha        1 PYN      0.187000
     37 H71         1.8290   -0.9390   -5.0370 ha        1 PYN      0.167000
     38 H81         0.6480    0.2440   -3.2090 ha        1 PYN      0.179000
     39 H91         0.5240    1.6690    1.5700 ha        1 PYN      0.179000
     40 H101        1.6030    1.7000    3.8000 ha        1 PYN      0.167000
     41 H121        4.9610   -0.6340    2.2360 ha        1 PYN      0.187000
     42 HN1         4.7320   -3.0260   -4.4820 hn        1 PYN      0.465800
     43 H151        4.2580   -1.2210   -7.5550 hc        1 PYN      0.111700
     44 H152        3.6410    0.0130   -6.3620 hc        1 PYN      0.111700
     45 H161        6.4740   -0.0690   -7.6600 h1        1 PYN      0.057700
     46 H162        5.9330    1.1400   -6.4100 h1        1 PYN      0.057700
     47 HN11        3.6790    1.4330    4.9450 hn        1 PYN      0.465800
     48 H181        2.4640    0.3070    6.9030 hc        1 PYN      0.111700
     49 H182        1.4800   -0.1120    5.4260 hc        1 PYN      0.111700
     50 H191        1.8350   -2.5880    5.9450 h1        1 PYN      0.057700
     51 H192        2.7410   -2.1170    7.4520 h1        1 PYN      0.057700
     52 H231        3.8200    0.6020   -9.8580 h1        1 PYN      0.048700
     53 H232        5.4260   -0.2300   -9.6690 h1        1 PYN      0.048700
     54 H241        5.3550    3.8880  -10.1980 hc        1 PYN      0.064700
     55 H242        6.9980    3.2020   -9.9000 hc        1 PYN      0.064700
     56 H251        4.7980    1.9920  -11.4280 hc        1 PYN      0.064700
     57 H252        6.4300    1.2940  -11.1040 hc        1 PYN      0.064700
     58 H261        0.3900   -3.7980    7.0520 h1        1 PYN      0.048700
     59 H262       -1.0740   -2.7420    6.8290 h1        1 PYN      0.048700
     60 H281        0.1510   -0.1130    8.7170 h1        1 PYN      0.048700
     61 H282        1.7400   -0.9110    9.0960 h1        1 PYN      0.048700
     62 H291       -1.6950   -3.2410    9.0030 hc        1 PYN      0.064700
     63 H292       -0.1700   -4.1700    9.2680 hc        1 PYN      0.064700
     64 H301        0.6940   -2.4120   10.5240 hc        1 PYN      0.064700
     65 H302       -0.8430   -1.4950   10.2850 hc        1 PYN      0.064700
     66 H211        6.4000    2.8480   -7.6900 h1        1 PYN      0.048700
     67 H132        3.4960   -2.5790   -5.5170 hn        1 PYN      0.465800
     68 H12         4.9950    0.5790    4.3640 hn        1 PYN      0.465800
     69 H212        4.7020    3.4040   -8.0300 h1        1 PYN      0.048700
@<TRIPOS>BOND
     1    1    2 ar  
     2    1    3 ar  
     3    1   10 ar  
     4    2   13 ar  
     5    2   14 ar  
     6    3    4 ar  
     7    3   35 1   
     8    4    5 ar  
     9    4    9 ar  
    10    5    6 ar  
    11    5   14 ar  
    12    6    7 ar  
    13    6   36 1   
    14    7    8 ar  
    15    7   15 1   
    16    8    9 ar  
    17    8   37 1   
    18    9   38 1   
    19   10   11 ar  
    20   10   39 1   
    21   11   12 ar  
    22   11   40 1   
    23   12   13 ar  
    24   12   20 1   
    25   13   41 1   
    26   15   16 1   
    27   15   42 1   
    28   15   67 1   
    29   16   17 1   
    30   16   19 2   
    31   17   18 1   
    32   17   43 1   
    33   17   44 1   
    34   18   26 1   
    35   18   45 1   
    36   18   46 1   
    37   20   21 1   
    38   20   47 1   
    39   20   68 1   
    40   21   22 1   
    41   21   24 2   
    42   22   23 1   
    43   22   48 1   
    44   22   49 1   
    45   23   31 1   
    46   23   50 1   
    47   23   51 1   
    48   25   26 1   
    49   25   28 1   
    50   25   66 1   
    51   25   69 1   
    52   26   27 1   
    53   27   29 1   
    54   27   52 1   
    55   27   53 1   
    56   28   29 1   
    57   28   54 1   
    58   28   55 1   
    59   29   56 1   
    60   29   57 1   
    61   30   31 1   
    62   30   33 1   
    63   30   58 1   
    64   30   59 1   
    65   31   32 1   
    66   32   34 1   
    67   32   60 1   
    68   32   61 1   
    69   33   34 1   
    70   33   62 1   
    71   33   63 1   
    72   34   64 1   
    73   34   65 1   
@<TRIPOS>SUBSTRUCTURE
     1 PYN         1 TEMP              0 ****  ****    0 ROOT
