@<TRIPOS>MOLECULE
PYN
   67    71     1     0     0
SMALL
bcc


@<TRIPOS>ATOM
      1 C          -0.0930   -0.5280   -0.0500 ca        1 PYN     -0.181800
      2 C1          1.3270   -0.3390    0.0910 ca        1 PYN      0.454100
      3 C2         -0.6470   -0.4620   -1.3330 ca        1 PYN     -0.047000
      4 C3          0.1800   -0.2160   -2.4320 ca        1 PYN     -0.181800
      5 C4          1.5910   -0.0380   -2.2060 ca        1 PYN      0.454100
      6 C5          2.4460    0.2150   -3.3410 ca        1 PYN     -0.239800
      7 C6          1.9260    0.2860   -4.6170 ca        1 PYN      0.085100
      8 C7          0.5020    0.1030   -4.8190 ca        1 PYN     -0.155000
      9 C8         -0.3230   -0.1370   -3.7660 ca        1 PYN     -0.087000
     10 C9         -0.8780   -0.7740    1.1150 ca        1 PYN     -0.087000
     11 C10        -0.3190   -0.8350    2.3560 ca        1 PYN     -0.155000
     12 C11         1.1020   -0.6500    2.5240 ca        1 PYN      0.085100
     13 C12         1.8940   -0.4090    1.4120 ca        1 PYN     -0.239800
     14 N           2.1410   -0.1000   -0.9690 nb        1 PYN     -0.670000
     15 N13         2.6970    0.5250   -5.7650 n         1 PYN     -0.475100
     16 C14         4.0660    0.7620   -5.8370 c         1 PYN      0.666100
     17 C15         4.6090    0.9900   -7.2390 c3        1 PYN     -0.156900
     18 C16         6.1030    1.3140   -7.1680 c3        1 PYN      0.174300
     19 O14         4.8010    0.7820   -4.8350 o         1 PYN     -0.585100
     20 N1          1.7140   -0.7000    3.7850 n         1 PYN     -0.475100
     21 C17         1.1390   -1.0040    5.0150 c         1 PYN      0.666100
     22 C18         2.0970   -0.9850    6.1960 c3        1 PYN     -0.156900
     23 C19         1.3370   -1.3110    7.4830 c3        1 PYN      0.174300
     24 O1         -0.0670   -1.2740    5.1530 o         1 PYN     -0.585100
     25 C21         7.9780    2.2340   -8.4290 c3        1 PYN      0.158800
     26 N22         6.6750    1.5660   -8.4800 n3        1 PYN     -0.730600
     27 C23         6.7950    0.3750   -9.3230 c3        1 PYN      0.158800
     28 C24         8.9860    1.4610   -9.2930 c3        1 PYN     -0.093650
     29 C25         8.2300    0.2700   -9.8640 c3        1 PYN     -0.093650
     30 C26         1.4590   -1.2160    9.9180 c3        1 PYN      0.158800
     31 N27         2.1970   -1.2770    8.6530 n3        1 PYN     -0.730600
     32 C28         3.1590   -2.3780    8.7280 c3        1 PYN      0.158800
     33 C29         1.9780   -2.3060   10.8680 c3        1 PYN     -0.093650
     34 C30         3.0660   -3.0510   10.1070 c3        1 PYN     -0.093650
     35 H21        -1.7300   -0.6020   -1.4740 ha        1 PYN      0.137000
     36 H51         3.5250    0.3500   -3.1480 ha        1 PYN      0.170500
     37 H71         0.0890    0.1600   -5.8390 ha        1 PYN      0.153500
     38 H81        -1.4050   -0.2750   -3.9210 ha        1 PYN      0.135000
     39 H91        -1.9630   -0.9150    0.9880 ha        1 PYN      0.135000
     40 H101       -0.9520   -1.0270    3.2380 ha        1 PYN      0.153500
     41 H121        2.9830   -0.2620    1.5030 ha        1 PYN      0.170500
     42 HN1         2.1930    0.5420   -6.6230 hn        1 PYN      0.317000
     43 H151        4.4410    0.0660   -7.8540 hc        1 PYN      0.072950
     44 H152        4.0570    1.8360   -7.7260 hc        1 PYN      0.072950
     45 H161        6.2280    2.2440   -6.5430 h1        1 PYN      0.051700
     46 H162        6.6210    0.4730   -6.6200 h1        1 PYN      0.051700
     47 HN11        2.6930   -0.5110    3.7870 hn        1 PYN      0.317000
     48 H181        2.9130   -1.7360    6.0250 hc        1 PYN      0.072950
     49 H182        2.5710    0.0290    6.2770 hc        1 PYN      0.072950
     50 H191        0.8250   -2.3090    7.3470 h1        1 PYN      0.051700
     51 H192        0.5280   -0.5380    7.6160 h1        1 PYN      0.051700
     52 H212        8.3670    2.3330   -7.3780 h1        1 PYN      0.043200
     53 H231        6.5210   -0.5660   -8.7710 h1        1 PYN      0.043200
     54 H232        6.0670    0.4980  -10.1710 h1        1 PYN      0.043200
     55 H241        9.8550    1.1270   -8.6750 hc        1 PYN      0.047950
     56 H242        9.3800    2.1160  -10.1090 hc        1 PYN      0.047950
     57 H251        8.6970   -0.6930   -9.5460 hc        1 PYN      0.047950
     58 H252        8.2260    0.2940  -10.9810 hc        1 PYN      0.047950
     59 H261        1.6450   -0.1960   10.3530 h1        1 PYN      0.043200
     60 H262        0.3500   -1.3290    9.7710 h1        1 PYN      0.043200
     61 H281        2.9970   -3.1390    7.9160 h1        1 PYN      0.043200
     62 H282        4.1810   -1.9330    8.5800 h1        1 PYN      0.043200
     63 H291        1.1490   -2.9950   11.1620 hc        1 PYN      0.047950
     64 H292        2.3850   -1.8450   11.8010 hc        1 PYN      0.047950
     65 H301        4.0460   -2.9840   10.6380 hc        1 PYN      0.047950
     66 H302        2.8110   -4.1330    9.9970 hc        1 PYN      0.047950
     67 H211        7.8270    3.2710   -8.8360 h1        1 PYN      0.043200
@<TRIPOS>BOND
     1    1    2 ar  
     2    1    3 ar  
     3    1   10 ar  
     4    2   13 ar  
     5    2   14 ar  
     6    3    4 ar  
     7    3   35 1   
     8    4    5 ar  
     9    4    9 ar  
    10    5    6 ar  
    11    5   14 ar  
    12    6    7 ar  
    13    6   36 1   
    14    7    8 ar  
    15    7   15 1   
    16    8    9 ar  
    17    8   37 1   
    18    9   38 1   
    19   10   11 ar  
    20   10   39 1   
    21   11   12 ar  
    22   11   40 1   
    23   12   13 ar  
    24   12   20 1   
    25   13   41 1   
    26   15   16 1   
    27   15   42 1   
    28   16   17 1   
    29   16   19 2   
    30   17   18 1   
    31   17   43 1   
    32   17   44 1   
    33   18   26 1   
    34   18   45 1   
    35   18   46 1   
    36   20   21 1   
    37   20   47 1   
    38   21   22 1   
    39   21   24 2   
    40   22   23 1   
    41   22   48 1   
    42   22   49 1   
    43   23   31 1   
    44   23   50 1   
    45   23   51 1   
    46   25   26 1   
    47   25   28 1   
    48   25   52 1   
    49   25   67 1   
    50   26   27 1   
    51   27   29 1   
    52   27   53 1   
    53   27   54 1   
    54   28   29 1   
    55   28   55 1   
    56   28   56 1   
    57   29   57 1   
    58   29   58 1   
    59   30   31 1   
    60   30   33 1   
    61   30   59 1   
    62   30   60 1   
    63   31   32 1   
    64   32   34 1   
    65   32   61 1   
    66   32   62 1   
    67   33   34 1   
    68   33   63 1   
    69   33   64 1   
    70   34   65 1   
    71   34   66 1   
@<TRIPOS>SUBSTRUCTURE
     1 PYN         1 TEMP              0 ****  ****    0 ROOT
