@<TRIPOS>MOLECULE
PYO
   31    32     1     0     0
SMALL
bcc


@<TRIPOS>ATOM
      1 OP3        -1.6240    0.4530   -3.6100 o         1 PYO     -0.925167
      2 P          -0.7090    0.0050   -2.5210 p5        1 PYO      1.339900
      3 OP1         0.4850   -0.8640   -2.8410 o         1 PYO     -0.925167
      4 OP2        -1.3240   -0.4010   -1.1940 o         1 PYO     -0.925167
      5 O5'         0.1750    1.4220   -2.0500 os        1 PYO     -0.568200
      6 C5'         0.2600    1.7180   -0.7190 c3        1 PYO      0.225400
      7 C4'         1.5260    1.1330   -0.0440 c3        1 PYO      0.062100
      8 O4'         1.4620    1.4070    1.3760 os        1 PYO     -0.436600
      9 C3'         1.6850   -0.3910   -0.2160 c3        1 PYO      0.074100
     10 C1'         1.4270    0.1970    2.1310 c3        1 PYO      0.256500
     11 O3'         2.7600   -0.7000   -1.0720 oh        1 PYO     -0.664800
     12 C2'         1.9360   -0.9470    1.1940 c3        1 PYO      0.108100
     13 O2'         3.2920   -1.2070    1.5000 oh        1 PYO     -0.616800
     14 N1          0.0840   -0.0540    2.6730 n         1 PYO     -0.356000
     15 C6         -0.9800   -0.3350    1.8550 cc        1 PYO      0.079600
     16 C2         -0.1290    0.0640    4.0920 c         1 PYO      0.798900
     17 C5         -2.2470   -0.5330    2.3910 cd        1 PYO     -0.443600
     18 O2          0.8500    0.3150    4.8370 o         1 PYO     -0.676500
     19 N3         -1.4220   -0.1240    4.6320 nc        1 PYO     -0.706100
     20 C4         -2.4050   -0.4040    3.7950 cd        1 PYO      0.530500
     21 H5''        0.3340    2.8400   -0.5990 h1        1 PYO     -0.001800
     22 H5'        -0.6490    1.3630   -0.1580 h1        1 PYO     -0.001800
     23 H4'         2.4430    1.6650   -0.4100 h1        1 PYO      0.047700
     24 H3'         0.7180   -0.8190   -0.6500 h1        1 PYO      0.163700
     25 H1'         2.1270    0.3580    3.0030 h2        1 PYO      0.109700
     26 HO3         2.3450   -0.8360   -1.9550 ho        1 PYO      0.494000
     27 H2'         1.3950   -1.9140    1.3640 h1        1 PYO      0.073700
     28 HO2         3.8280   -0.7670    0.8280 ho        1 PYO      0.421000
     29 HC6        -0.8310   -0.4060    0.7280 h4        1 PYO      0.298000
     30 HC5        -3.0850   -0.7590    1.7240 ha        1 PYO      0.169000
     31 HC4        -3.4030   -0.5380    4.2520 h4        1 PYO     -0.003200
@<TRIPOS>BOND
     1    1    2 1   
     2    2    3 1   
     3    2    4 1   
     4    2    5 1   
     5    5    6 1   
     6    6    7 1   
     7    6   21 1   
     8    6   22 1   
     9    7    8 1   
    10    7    9 1   
    11    7   23 1   
    12    8   10 1   
    13    9   11 1   
    14    9   12 1   
    15    9   24 1   
    16   10   12 1   
    17   10   14 1   
    18   10   25 1   
    19   11   26 1   
    20   12   13 1   
    21   12   27 1   
    22   13   28 1   
    23   14   15 1   
    24   14   16 1   
    25   15   17 2   
    26   15   29 1   
    27   16   18 2   
    28   16   19 1   
    29   17   20 1   
    30   17   30 1   
    31   19   20 2   
    32   20   31 1   
@<TRIPOS>SUBSTRUCTURE
     1 PYO         1 TEMP              0 ****  ****    0 ROOT
