@<TRIPOS>MOLECULE
PYP
   45    49     1     0     0
SMALL
bcc


@<TRIPOS>ATOM
      1 P           0.7520    1.5200    0.9270 p5        1 PYP      1.330900
      2 O1P         1.1780    2.9140    0.5130 o         1 PYP     -0.931500
      3 O2P        -0.1810    1.4840    2.1040 o         1 PYP     -0.931500
      4 O5'        -0.3430    1.1950   -0.3930 os        1 PYP     -0.557200
      5 C5'        -1.4290    2.0240   -0.4220 c3        1 PYP      0.228400
      6 C4'        -1.2800    3.0910   -1.5340 c3        1 PYP      0.059100
      7 O4'        -2.5870    3.3740   -2.0940 os        1 PYP     -0.443600
      8 C1'        -2.8760    4.7680   -2.0460 c3        1 PYP      0.178400
      9 C1         -4.3650    4.1000   -0.1420 ca        1 PYP     -0.097000
     10 C2         -5.4620    4.2820    0.6890 ca        1 PYP     -0.096000
     11 C3         -7.4520    5.6030    1.3640 ca        1 PYP     -0.081000
     12 C4         -8.2580    6.6840    1.2030 ca        1 PYP     -0.162000
     13 C5         -8.8020    8.7930    0.0130 ca        1 PYP     -0.147000
     14 C6         -8.5040    9.7320   -0.9700 ca        1 PYP     -0.135000
     15 C7         -7.3870    9.5750   -1.7870 ca        1 PYP     -0.146000
     16 C8         -5.3800    8.2710   -2.4500 ca        1 PYP     -0.168000
     17 C9         -4.5810    7.1850   -2.2920 ca        1 PYP     -0.071000
     18 C10        -4.0590    5.0260   -1.1490 ca        1 PYP     -0.026300
     19 C11        -4.8630    6.1700   -1.3100 ca        1 PYP     -0.066000
     20 C12        -6.2990    5.3970    0.5330 ca        1 PYP     -0.074000
     21 C13        -7.9820    7.6700    0.1940 ca        1 PYP     -0.017000
     22 C14        -6.5470    8.4650   -1.6330 ca        1 PYP     -0.012000
     23 C15        -5.9980    6.3510   -0.4720 ca        1 PYP     -0.014000
     24 C16        -6.8440    7.4970   -0.6370 ca        1 PYP     -0.016000
     25 C2'        -1.6240    5.5130   -1.5730 c3        1 PYP     -0.117400
     26 C3'        -0.6790    4.4220   -1.0420 c3        1 PYP      0.160100
     27 O3'         0.6070    4.6380   -1.5770 oh        1 PYP     -0.674800
     28 O3P         1.7770    0.4340    0.8080 o         1 PYP     -0.931500
     29 H5'1       -2.3570    1.4250   -0.6710 h1        1 PYP     -0.005300
     30 H5'2       -1.5820    2.5300    0.5740 h1        1 PYP     -0.005300
     31 H4'        -0.6670    2.6730   -2.3770 h1        1 PYP      0.068700
     32 H1'        -3.1530    5.0520   -3.1010 h1        1 PYP      0.032700
     33 H1         -3.7030    3.2180   -0.0200 ha        1 PYP      0.202000
     34 H2         -5.6760    3.5460    1.4800 ha        1 PYP      0.136000
     35 H3         -7.6600    4.8510    2.1410 ha        1 PYP      0.125000
     36 H4         -9.1400    6.8380    1.8410 ha        1 PYP      0.116000
     37 H5         -9.6830    8.9280    0.6550 ha        1 PYP      0.117000
     38 H6         -9.1540   10.6090   -1.1010 ha        1 PYP      0.111000
     39 H7         -7.1570   10.3250   -2.5570 ha        1 PYP      0.119000
     40 H8         -5.1500    9.0390   -3.2030 ha        1 PYP      0.119000
     41 H9         -3.6760    7.0620   -2.9090 ha        1 PYP      0.142000
     42 H2'2       -1.8630    6.2560   -0.7770 hc        1 PYP      0.041200
     43 H2'1       -1.1480    6.0530   -2.4280 hc        1 PYP      0.041200
     44 H3'        -0.6250    4.4420    0.0830 h1        1 PYP      0.099700
     45 H3T         1.2060    4.0700   -1.0370 ho        1 PYP      0.500000
@<TRIPOS>BOND
     1    1    2 1   
     2    1    3 1   
     3    1    4 1   
     4    1   28 1   
     5    4    5 1   
     6    5    6 1   
     7    5   29 1   
     8    5   30 1   
     9    6    7 1   
    10    6   26 1   
    11    6   31 1   
    12    7    8 1   
    13    8   18 1   
    14    8   25 1   
    15    8   32 1   
    16    9   10 ar  
    17    9   18 ar  
    18    9   33 1   
    19   10   20 ar  
    20   10   34 1   
    21   11   12 ar  
    22   11   20 ar  
    23   11   35 1   
    24   12   21 ar  
    25   12   36 1   
    26   13   14 ar  
    27   13   21 ar  
    28   13   37 1   
    29   14   15 ar  
    30   14   38 1   
    31   15   22 ar  
    32   15   39 1   
    33   16   17 ar  
    34   16   22 ar  
    35   16   40 1   
    36   17   19 ar  
    37   17   41 1   
    38   18   19 ar  
    39   19   23 ar  
    40   20   23 ar  
    41   21   24 ar  
    42   22   24 ar  
    43   23   24 ar  
    44   25   26 1   
    45   25   42 1   
    46   25   43 1   
    47   26   27 1   
    48   26   44 1   
    49   27   45 1   
@<TRIPOS>SUBSTRUCTURE
     1 PYP         1 TEMP              0 ****  ****    0 ROOT
