@<TRIPOS>MOLECULE
PYP
   45    49     1     0     0
SMALL
bcc


@<TRIPOS>ATOM
      1 P           0.7830    1.5730    0.9590 p5        1 PYP      1.330900
      2 O1P         1.1980    2.9650    0.5230 o         1 PYP     -0.931500
      3 O2P        -0.1450    1.5490    2.1410 o         1 PYP     -0.931500
      4 O5'        -0.3160    1.2220   -0.3510 os        1 PYP     -0.557200
      5 C5'        -1.4070    2.0450   -0.3870 c3        1 PYP      0.228400
      6 C4'        -1.2700    3.0960   -1.5150 c3        1 PYP      0.059100
      7 O4'        -2.5810    3.3620   -2.0730 os        1 PYP     -0.443600
      8 C1'        -2.8790    4.7550   -2.0440 c3        1 PYP      0.178400
      9 C1         -4.3550    4.1060   -0.1230 ca        1 PYP     -0.097000
     10 C2         -5.4490    4.2930    0.7100 ca        1 PYP     -0.096000
     11 C3         -7.4440    5.6120    1.3750 ca        1 PYP     -0.081000
     12 C4         -8.2580    6.6850    1.2020 ca        1 PYP     -0.162000
     13 C5         -8.8210    8.7730   -0.0160 ca        1 PYP     -0.147000
     14 C6         -8.5330    9.7000   -1.0140 ca        1 PYP     -0.135000
     15 C7         -7.4190    9.5370   -1.8330 ca        1 PYP     -0.146000
     16 C8         -5.4070    8.2370   -2.4870 ca        1 PYP     -0.168000
     17 C9         -4.6010    7.1580   -2.3170 ca        1 PYP     -0.071000
     18 C10        -4.0590    5.0190   -1.1460 ca        1 PYP     -0.026300
     19 C11        -4.8710    6.1560   -1.3190 ca        1 PYP     -0.066000
     20 C12        -6.2940    5.4010    0.5420 ca        1 PYP     -0.074000
     21 C13        -7.9940    7.6580    0.1770 ca        1 PYP     -0.017000
     22 C14        -6.5720    8.4350   -1.6680 ca        1 PYP     -0.012000
     23 C15        -6.0030    6.3410   -0.4790 ca        1 PYP     -0.014000
     24 C16        -6.8580    7.4800   -0.6570 ca        1 PYP     -0.016000
     25 C2'        -1.6290    5.5150   -1.5880 c3        1 PYP     -0.117400
     26 C3'        -0.6750    4.4380   -1.0450 c3        1 PYP      0.160100
     27 O3'         0.6070    4.6540   -1.5900 oh        1 PYP     -0.674800
     28 O3P         1.8140    0.4930    0.8510 o         1 PYP     -0.931500
     29 H5'1       -2.3330    1.4370   -0.6230 h1        1 PYP     -0.005300
     30 H5'2       -1.5590    2.5640    0.6020 h1        1 PYP     -0.005300
     31 H4'        -0.6590    2.6700   -2.3540 h1        1 PYP      0.068700
     32 H1'        -3.1630    5.0230   -3.1020 h1        1 PYP      0.032700
     33 H1         -3.6870    3.2300    0.0080 ha        1 PYP      0.202000
     34 H2         -5.6540    3.5680    1.5130 ha        1 PYP      0.136000
     35 H3         -7.6440    4.8700    2.1640 ha        1 PYP      0.125000
     36 H4         -9.1380    6.8430    1.8420 ha        1 PYP      0.116000
     37 H5         -9.7000    8.9120    0.6280 ha        1 PYP      0.117000
     38 H6         -9.1900   10.5700   -1.1550 ha        1 PYP      0.111000
     39 H7         -7.1980   10.2770   -2.6160 ha        1 PYP      0.119000
     40 H8         -5.1860    8.9950   -3.2520 ha        1 PYP      0.119000
     41 H9         -3.6970    7.0320   -2.9370 ha        1 PYP      0.142000
     42 H2'2       -1.8690    6.2680   -0.8020 hc        1 PYP      0.041200
     43 H2'1       -1.1610    6.0450   -2.4530 hc        1 PYP      0.041200
     44 H3'        -0.6160    4.4750    0.0790 h1        1 PYP      0.099700
     45 H3T         1.2120    4.0980   -1.0440 ho        1 PYP      0.500000
@<TRIPOS>BOND
     1    1    2 1   
     2    1    3 1   
     3    1    4 1   
     4    1   28 1   
     5    4    5 1   
     6    5    6 1   
     7    5   29 1   
     8    5   30 1   
     9    6    7 1   
    10    6   26 1   
    11    6   31 1   
    12    7    8 1   
    13    8   18 1   
    14    8   25 1   
    15    8   32 1   
    16    9   10 ar  
    17    9   18 ar  
    18    9   33 1   
    19   10   20 ar  
    20   10   34 1   
    21   11   12 ar  
    22   11   20 ar  
    23   11   35 1   
    24   12   21 ar  
    25   12   36 1   
    26   13   14 ar  
    27   13   21 ar  
    28   13   37 1   
    29   14   15 ar  
    30   14   38 1   
    31   15   22 ar  
    32   15   39 1   
    33   16   17 ar  
    34   16   22 ar  
    35   16   40 1   
    36   17   19 ar  
    37   17   41 1   
    38   18   19 ar  
    39   19   23 ar  
    40   20   23 ar  
    41   21   24 ar  
    42   22   24 ar  
    43   23   24 ar  
    44   25   26 1   
    45   25   42 1   
    46   25   43 1   
    47   26   27 1   
    48   26   44 1   
    49   27   45 1   
@<TRIPOS>SUBSTRUCTURE
     1 PYP         1 TEMP              0 ****  ****    0 ROOT
