@<TRIPOS>MOLECULE
PYQ
   24    26     1     0     0
SMALL
bcc


@<TRIPOS>ATOM
      1 C1         -0.0350    0.0290    0.0000 ca        1 PYQ     -0.094000
      2 C2          1.3650    0.0120   -0.0420 ca        1 PYQ     -0.114300
      3 C3          2.0340   -0.0590    1.1810 ca        1 PYQ      0.042600
      4 C5          1.3600   -0.1050    2.4330 ca        1 PYQ     -0.124300
      5 C6          2.3870   -0.1570    3.5210 c3        1 PYQ     -0.040100
      6 C7          3.7520   -0.1340    2.7600 c3        1 PYQ      0.096000
      7 N8          3.4320   -0.0960    1.3340 n         1 PYQ     -0.369000
      8 C9          4.2530    0.2930    0.2830 c         1 PYQ      0.708500
      9 O10         5.4840    0.3890    0.4340 o         1 PYQ     -0.622500
     10 C11         3.5840    0.6030   -1.0480 c3        1 PYQ     -0.148400
     11 C12         2.1930    0.0290   -1.2740 c3        1 PYQ     -0.024100
     12 C13        -0.0220   -0.0910    2.4430 ca        1 PYQ     -0.086000
     13 C14        -0.7080   -0.0240    1.2190 ca        1 PYQ     -0.156000
     14 H11        -0.6020    0.0840   -0.9410 ha        1 PYQ      0.134000
     15 H61         2.3040    0.7220    4.2060 hc        1 PYQ      0.063700
     16 H62         2.2960   -1.0920    4.1260 hc        1 PYQ      0.063700
     17 H71         4.3630    0.7630    3.0460 h1        1 PYQ      0.061200
     18 H72         4.3470   -1.0600    2.9770 h1        1 PYQ      0.061200
     19 H111        4.2700    0.2400   -1.8580 hc        1 PYQ      0.079200
     20 H112        3.5430    1.7240   -1.1120 hc        1 PYQ      0.079200
     21 H121        1.6850    0.6260   -2.0770 hc        1 PYQ      0.058700
     22 H122        2.2850   -1.0270   -1.6530 hc        1 PYQ      0.058700
     23 H131       -0.5820   -0.1290    3.3880 ha        1 PYQ      0.137000
     24 H141       -1.8080   -0.0110    1.2270 ha        1 PYQ      0.133000
@<TRIPOS>BOND
     1    1    2 ar  
     2    1   13 ar  
     3    1   14 1   
     4    2    3 ar  
     5    2   11 1   
     6    3    4 ar  
     7    3    7 1   
     8    4    5 1   
     9    4   12 ar  
    10    5    6 1   
    11    5   15 1   
    12    5   16 1   
    13    6    7 1   
    14    6   17 1   
    15    6   18 1   
    16    7    8 1   
    17    8    9 2   
    18    8   10 1   
    19   10   11 1   
    20   10   19 1   
    21   10   20 1   
    22   11   21 1   
    23   11   22 1   
    24   12   13 ar  
    25   12   23 1   
    26   13   24 1   
@<TRIPOS>SUBSTRUCTURE
     1 PYQ         1 TEMP              0 ****  ****    0 ROOT
