@<TRIPOS>MOLECULE
PYQ
   24    26     1     0     0
SMALL
bcc


@<TRIPOS>ATOM
      1 C1         -0.0350    0.0350    0.0020 ca        1 PYQ     -0.094000
      2 C2          1.3640    0.0150   -0.0420 ca        1 PYQ     -0.114300
      3 C3          2.0340   -0.0590    1.1810 ca        1 PYQ      0.042600
      4 C5          1.3610   -0.1050    2.4330 ca        1 PYQ     -0.124300
      5 C6          2.3890   -0.1610    3.5210 c3        1 PYQ     -0.040100
      6 C7          3.7530   -0.1390    2.7590 c3        1 PYQ      0.096000
      7 N8          3.4320   -0.0990    1.3330 n         1 PYQ     -0.369000
      8 C9          4.2530    0.2890    0.2810 c         1 PYQ      0.708500
      9 O10         5.4840    0.3820    0.4310 o         1 PYQ     -0.622500
     10 C11         3.5830    0.6020   -1.0480 c3        1 PYQ     -0.148400
     11 C12         2.1910    0.0320   -1.2740 c3        1 PYQ     -0.024100
     12 C13        -0.0210   -0.0880    2.4440 ca        1 PYQ     -0.086000
     13 C14        -0.7080   -0.0180    1.2210 ca        1 PYQ     -0.156000
     14 H11        -0.6040    0.0920   -0.9380 ha        1 PYQ      0.134000
     15 H61         2.2960   -1.0970    4.1240 hc        1 PYQ      0.063700
     16 H62         2.3080    0.7170    4.2070 hc        1 PYQ      0.063700
     17 H71         4.3660    0.7560    3.0450 h1        1 PYQ      0.061200
     18 H72         4.3460   -1.0670    2.9730 h1        1 PYQ      0.061200
     19 H111        3.5450    1.7240   -1.1110 hc        1 PYQ      0.079200
     20 H112        4.2680    0.2390   -1.8600 hc        1 PYQ      0.079200
     21 H121        2.2800   -1.0230   -1.6550 hc        1 PYQ      0.058700
     22 H122        1.6830    0.6310   -2.0760 hc        1 PYQ      0.058700
     23 H131       -0.5800   -0.1270    3.3900 ha        1 PYQ      0.137000
     24 H141       -1.8080   -0.0030    1.2300 ha        1 PYQ      0.133000
@<TRIPOS>BOND
     1    1    2 ar  
     2    1   13 ar  
     3    1   14 1   
     4    2    3 ar  
     5    2   11 1   
     6    3    4 ar  
     7    3    7 1   
     8    4    5 1   
     9    4   12 ar  
    10    5    6 1   
    11    5   15 1   
    12    5   16 1   
    13    6    7 1   
    14    6   17 1   
    15    6   18 1   
    16    7    8 1   
    17    8    9 2   
    18    8   10 1   
    19   10   11 1   
    20   10   19 1   
    21   10   20 1   
    22   11   21 1   
    23   11   22 1   
    24   12   13 ar  
    25   12   23 1   
    26   13   24 1   
@<TRIPOS>SUBSTRUCTURE
     1 PYQ         1 TEMP              0 ****  ****    0 ROOT
