@<TRIPOS>MOLECULE
PYQ
   24    26     1     0     0
SMALL
bcc


@<TRIPOS>ATOM
      1 C1         -0.0320    0.0250   -0.0050 ca        1 PYQ     -0.094000
      2 C2          1.3680    0.0130   -0.0460 ca        1 PYQ     -0.114300
      3 C3          2.0370   -0.0570    1.1770 ca        1 PYQ      0.042600
      4 C5          1.3620   -0.1060    2.4280 ca        1 PYQ     -0.124300
      5 C6          2.3890   -0.1560    3.5170 c3        1 PYQ     -0.040100
      6 C7          3.7550   -0.1280    2.7570 c3        1 PYQ      0.096000
      7 N8          3.4350   -0.0890    1.3310 n         1 PYQ     -0.369000
      8 C9          4.2550    0.3030    0.2800 c         1 PYQ      0.708500
      9 O10         5.4850    0.4030    0.4320 o         1 PYQ     -0.622500
     10 C11         3.5850    0.6120   -1.0510 c3        1 PYQ     -0.148400
     11 C12         2.1970    0.0340   -1.2780 c3        1 PYQ     -0.024100
     12 C13        -0.0200   -0.0970    2.4380 ca        1 PYQ     -0.086000
     13 C14        -0.7060   -0.0310    1.2140 ca        1 PYQ     -0.156000
     14 H11        -0.5990    0.0800   -0.9460 ha        1 PYQ      0.134000
     15 H61         2.3010   -1.0920    4.1200 hc        1 PYQ      0.063700
     16 H62         2.3030    0.7210    4.2020 hc        1 PYQ      0.063700
     17 H71         4.3520   -1.0520    2.9720 h1        1 PYQ      0.061200
     18 H72         4.3620    0.7710    3.0430 h1        1 PYQ      0.061200
     19 H111        3.5410    1.7340   -1.1140 hc        1 PYQ      0.079200
     20 H112        4.2730    0.2530   -1.8610 hc        1 PYQ      0.079200
     21 H121        2.2920   -1.0210   -1.6580 hc        1 PYQ      0.058700
     22 H122        1.6860    0.6300   -2.0810 hc        1 PYQ      0.058700
     23 H131       -0.5790   -0.1380    3.3830 ha        1 PYQ      0.137000
     24 H141       -1.8060   -0.0220    1.2210 ha        1 PYQ      0.133000
@<TRIPOS>BOND
     1    1    2 ar  
     2    1   13 ar  
     3    1   14 1   
     4    2    3 ar  
     5    2   11 1   
     6    3    4 ar  
     7    3    7 1   
     8    4    5 1   
     9    4   12 ar  
    10    5    6 1   
    11    5   15 1   
    12    5   16 1   
    13    6    7 1   
    14    6   17 1   
    15    6   18 1   
    16    7    8 1   
    17    8    9 2   
    18    8   10 1   
    19   10   11 1   
    20   10   19 1   
    21   10   20 1   
    22   11   21 1   
    23   11   22 1   
    24   12   13 ar  
    25   12   23 1   
    26   13   24 1   
@<TRIPOS>SUBSTRUCTURE
     1 PYQ         1 TEMP              0 ****  ****    0 ROOT
