@<TRIPOS>MOLECULE
PYQ
   24    26     1     0     0
SMALL
bcc


@<TRIPOS>ATOM
      1 C1          1.6340    0.0350    1.9550 ca        1 PYQ     -0.094000
      2 C2          1.2660    0.0930    0.6050 ca        1 PYQ     -0.114300
      3 C3         -0.1000    0.0800    0.3200 ca        1 PYQ      0.042600
      4 C5         -1.1020    0.0020    1.3270 ca        1 PYQ     -0.124300
      5 C6         -2.4420   -0.0090    0.6600 c3        1 PYQ     -0.040100
      6 C7         -2.1110    0.0700   -0.8660 c3        1 PYQ      0.096000
      7 N8         -0.6550    0.1430   -0.9710 n         1 PYQ     -0.369000
      8 C9          0.1380   -0.1340   -2.0790 c         1 PYQ      0.708500
      9 O10        -0.3570   -0.2080   -3.2170 o         1 PYQ     -0.622500
     10 C11         1.6250   -0.3500   -1.8360 c3        1 PYQ     -0.148400
     11 C12         2.2030    0.2030   -0.5420 c3        1 PYQ     -0.024100
     12 C13        -0.7090   -0.0500    2.6510 ca        1 PYQ     -0.086000
     13 C14         0.6630   -0.0340    2.9530 ca        1 PYQ     -0.156000
     14 H11         2.7000    0.0430    2.2250 ha        1 PYQ      0.134000
     15 H61        -3.0080   -0.9430    0.8910 hc        1 PYQ      0.063700
     16 H62        -3.0600    0.8700    0.9680 hc        1 PYQ      0.063700
     17 H71        -2.4960   -0.8310   -1.4130 h1        1 PYQ      0.061200
     18 H72        -2.5570    0.9910   -1.3250 h1        1 PYQ      0.061200
     19 H111        1.7790   -1.4630   -1.8720 hc        1 PYQ      0.079200
     20 H112        2.1720    0.0980   -2.7070 hc        1 PYQ      0.079200
     21 H121        3.1600   -0.3390   -0.3160 hc        1 PYQ      0.058700
     22 H122        2.4620    1.2880   -0.6850 hc        1 PYQ      0.058700
     23 H131       -1.4510   -0.1070    3.4600 ha        1 PYQ      0.137000
     24 H141        0.9760   -0.0770    4.0060 ha        1 PYQ      0.133000
@<TRIPOS>BOND
     1    1    2 ar  
     2    1   13 ar  
     3    1   14 1   
     4    2    3 ar  
     5    2   11 1   
     6    3    4 ar  
     7    3    7 1   
     8    4    5 1   
     9    4   12 ar  
    10    5    6 1   
    11    5   15 1   
    12    5   16 1   
    13    6    7 1   
    14    6   17 1   
    15    6   18 1   
    16    7    8 1   
    17    8    9 2   
    18    8   10 1   
    19   10   11 1   
    20   10   19 1   
    21   10   20 1   
    22   11   21 1   
    23   11   22 1   
    24   12   13 ar  
    25   12   23 1   
    26   13   24 1   
@<TRIPOS>SUBSTRUCTURE
     1 PYQ         1 TEMP              0 ****  ****    0 ROOT
