@<TRIPOS>MOLECULE
PYR
    9     8     1     0     0
SMALL
bcc


@<TRIPOS>ATOM
      1 C1          0.0390    0.1790   -0.0090 c         1 PYR      0.853600
      2 O1          0.8650    1.0880    0.2730 o         1 PYR     -0.819300
      3 O2         -0.1630   -0.8660    0.6670 o         1 PYR     -0.819300
      4 C2         -0.7490    0.3300   -1.3170 c         1 PYR      0.466100
      5 O3         -1.8490    0.8870   -1.4200 o         1 PYR     -0.598100
      6 C3         -0.0710   -0.2680   -2.5150 c3        1 PYR     -0.206100
      7 H31         0.9220    0.2240   -2.6470 hc        1 PYR      0.040700
      8 H32         0.0910   -1.3570   -2.3290 hc        1 PYR      0.040700
      9 H33        -0.6730   -0.1390   -3.4450 hc        1 PYR      0.040700
@<TRIPOS>BOND
     1    1    2 1   
     2    1    3 1   
     3    1    4 1   
     4    4    5 2   
     5    4    6 1   
     6    6    7 1   
     7    6    8 1   
     8    6    9 1   
@<TRIPOS>SUBSTRUCTURE
     1 PYR         1 TEMP              0 ****  ****    0 ROOT
