@<TRIPOS>MOLECULE
PYR
    9     8     1     0     0
SMALL
bcc


@<TRIPOS>ATOM
      1 C1          0.0300   -0.1200   -0.0030 c         1 PYR      0.853600
      2 O1          0.7750   -1.0850    0.3170 o         1 PYR     -0.819300
      3 O2         -0.0770    0.9660    0.6280 o         1 PYR     -0.819300
      4 C2         -0.7740   -0.2570   -1.3030 c         1 PYR      0.466100
      5 O3         -1.9190   -0.7210   -1.3810 o         1 PYR     -0.598100
      6 C3         -0.0530    0.2290   -2.5260 c3        1 PYR     -0.206100
      7 H31         0.2040    1.3060   -2.3860 hc        1 PYR      0.040700
      8 H32         0.8940   -0.3530   -2.6380 hc        1 PYR      0.040700
      9 H33        -0.6680    0.1130   -3.4490 hc        1 PYR      0.040700
@<TRIPOS>BOND
     1    1    2 1   
     2    1    3 1   
     3    1    4 1   
     4    4    5 2   
     5    4    6 1   
     6    6    7 1   
     7    6    8 1   
     8    6    9 1   
@<TRIPOS>SUBSTRUCTURE
     1 PYR         1 TEMP              0 ****  ****    0 ROOT
