@<TRIPOS>MOLECULE
PYR
    9     8     1     0     0
SMALL
bcc


@<TRIPOS>ATOM
      1 C1          0.7060   -0.1330   -0.0670 c         1 PYR      0.853600
      2 O1          1.4020   -0.9090    0.6420 o         1 PYR     -0.819300
      3 O2          1.0730    0.4040   -1.1470 o         1 PYR     -0.819300
      4 C2         -0.7330    0.1370    0.3950 c         1 PYR      0.466100
      5 O3         -1.0740    1.0650    1.1390 o         1 PYR     -0.598100
      6 C3         -1.7420   -0.8380   -0.1350 c3        1 PYR     -0.206100
      7 H31        -1.4560   -1.8660    0.1960 hc        1 PYR      0.040700
      8 H32        -2.7740   -0.6100    0.2220 hc        1 PYR      0.040700
      9 H33        -1.7210   -0.8040   -1.2510 hc        1 PYR      0.040700
@<TRIPOS>BOND
     1    1    2 1   
     2    1    3 1   
     3    1    4 1   
     4    4    5 2   
     5    4    6 1   
     6    6    7 1   
     7    6    8 1   
     8    6    9 1   
@<TRIPOS>SUBSTRUCTURE
     1 PYR         1 TEMP              0 ****  ****    0 ROOT
