@<TRIPOS>MOLECULE
PYS
   12    12     1     0     0
SMALL
bcc


@<TRIPOS>ATOM
      1 N1         -1.0760    0.2780   -0.1210 nb        1 PYS     -0.687000
      2 C2          0.1530    0.2270    0.4490 ca        1 PYS      0.509600
      3 C3          1.3350    0.0390   -0.3020 ca        1 PYS     -0.235300
      4 C4          1.2330   -0.0990   -1.6850 ca        1 PYS     -0.078000
      5 C5         -0.0280   -0.0480   -2.2840 ca        1 PYS     -0.257300
      6 C6         -1.1500    0.1420   -1.4560 ca        1 PYS      0.412200
      7 S2          0.3560    0.3870    2.1340 sh        1 PYS     -0.344100
      8 H3          2.3100    0.0040    0.2030 ha        1 PYS      0.154000
      9 H4          2.1360   -0.2460   -2.2960 ha        1 PYS      0.141000
     10 H5         -0.1480   -0.1520   -3.3690 ha        1 PYS      0.145000
     11 H6         -2.1680    0.1900   -1.8820 h4        1 PYS      0.024100
     12 HS2        -0.8970    0.5440    2.5370 hs        1 PYS      0.216800
@<TRIPOS>BOND
     1    1    2 ar  
     2    1    6 ar  
     3    2    3 ar  
     4    2    7 1   
     5    3    4 ar  
     6    3    8 1   
     7    4    5 ar  
     8    4    9 1   
     9    5    6 ar  
    10    5   10 1   
    11    6   11 1   
    12    7   12 1   
@<TRIPOS>SUBSTRUCTURE
     1 PYS         1 TEMP              0 ****  ****    0 ROOT
