@<TRIPOS>MOLECULE
PYS
   12    12     1     0     0
SMALL
bcc


@<TRIPOS>ATOM
      1 N1          0.0320   -0.2150   -0.0630 nb        1 PYS     -0.687000
      2 C2          1.3850   -0.1870    0.0090 ca        1 PYS      0.509600
      3 C3          2.0810   -0.0500    1.2320 ca        1 PYS     -0.235300
      4 C4          1.3460    0.0590    2.4100 ca        1 PYS     -0.078000
      5 C5         -0.0490    0.0310    2.3480 ca        1 PYS     -0.257300
      6 C6         -0.6560   -0.1080    1.0870 ca        1 PYS      0.412200
      7 S2          2.3520   -0.3150   -1.3900 sh        1 PYS     -0.344100
      8 H3          3.1800   -0.0320    1.2410 ha        1 PYS      0.154000
      9 H4          1.8600    0.1660    3.3770 ha        1 PYS      0.141000
     10 H5         -0.6610    0.1140    3.2540 ha        1 PYS      0.145000
     11 H6         -1.7560   -0.1350    0.9850 h4        1 PYS      0.024100
     12 HS2         1.4300   -0.4260   -2.3360 hs        1 PYS      0.216800
@<TRIPOS>BOND
     1    1    2 ar  
     2    1    6 ar  
     3    2    3 ar  
     4    2    7 1   
     5    3    4 ar  
     6    3    8 1   
     7    4    5 ar  
     8    4    9 1   
     9    5    6 ar  
    10    5   10 1   
    11    6   11 1   
    12    7   12 1   
@<TRIPOS>SUBSTRUCTURE
     1 PYS         1 TEMP              0 ****  ****    0 ROOT
