@<TRIPOS>MOLECULE
PYS
   12     9     1     0     0
SMALL
bcc


@<TRIPOS>ATOM
      1 N1         -0.9200    0.0730   -1.0210 n1        1 PYS     -0.486800
      2 C2          0.4430    0.0730   -1.0210 c1        1 PYS      0.079100
      3 C3          1.1360    0.0730    0.1800 c1        1 PYS     -0.112500
      4 C4          0.4540    0.0730    1.3620 c1        1 PYS     -0.077500
      5 C5         -0.9110    0.0730    1.3600 c1        1 PYS     -0.077500
      6 C6         -1.6030    0.0730    0.1590 c1        1 PYS      0.330300
      7 S2          1.3290    0.0930   -2.5560 sh        1 PYS     -0.241900
      8 H3          2.1120    0.0730    0.1790 ha        1 PYS      0.096500
      9 H4          0.9410    0.0730    2.2070 ha        1 PYS      0.085500
     10 H5         -1.4010    0.0730    2.2050 ha        1 PYS      0.085500
     11 H6         -2.5790    0.0730    0.1570 ha        1 PYS      0.103500
     12 HS2         0.9990   -0.8280   -3.2120 hs        1 PYS      0.216800
@<TRIPOS>BOND
     1    1    6 3   
     2    2    3 3   
     3    2    7 1   
     4    3    8 1   
     5    4    5 3   
     6    4    9 1   
     7    5   10 1   
     8    6   11 1   
     9    7   12 1   
@<TRIPOS>SUBSTRUCTURE
     1 PYS         1 TEMP              0 ****  ****    0 ROOT
