@<TRIPOS>MOLECULE
PYT
   14    13     1     0     0
SMALL
bcc


@<TRIPOS>ATOM
      1 N          -0.0530    0.0000   -0.0130 n4        1 PYT     -0.712400
      2 CA          1.4150   -0.0000    0.0670 ce        1 PYT     -0.161200
      3 CB          2.0530   -0.0000    1.2560 c2        1 PYT      0.010000
      4 C           2.0700    0.0000   -1.2700 c         1 PYT      0.540300
      5 NT          3.5630   -0.0010   -1.3450 n4        1 PYT     -0.739400
      6 O           1.4750    0.0010   -2.3390 o         1 PYT     -0.351100
      7 HN1        -0.4660    0.0010    0.9340 hn        1 PYT      0.499467
      8 HN2        -0.3810   -0.8390   -0.5210 hn        1 PYT      0.499467
      9 HC1         1.5280   -0.0000    2.2360 ha        1 PYT      0.205000
     10 HC2         3.1540   -0.0010    1.3560 ha        1 PYT      0.205000
     11 HT1         3.8490   -0.0010   -2.3450 hn        1 PYT      0.502133
     12 HT2         3.9560   -0.8410   -0.8970 hn        1 PYT      0.502133
     13 HN3        -0.3800    0.8390   -0.5220 hn        1 PYT      0.499467
     14 HT3         3.9570    0.8400   -0.8970 hn        1 PYT      0.502133
@<TRIPOS>BOND
     1    1    2 1   
     2    1    7 1   
     3    1    8 1   
     4    1   13 1   
     5    2    3 2   
     6    2    4 1   
     7    3    9 1   
     8    3   10 1   
     9    4    5 1   
    10    4    6 2   
    11    5   11 1   
    12    5   12 1   
    13    5   14 1   
@<TRIPOS>SUBSTRUCTURE
     1 PYT         1 TEMP              0 ****  ****    0 ROOT
