@<TRIPOS>MOLECULE
PYT
   14    13     1     0     0
SMALL
bcc


@<TRIPOS>ATOM
      1 N          -0.0530   -0.0050   -0.0120 nz        1 PYT     -0.710400
      2 CA          1.4150   -0.0030    0.0670 ce        1 PYT     -0.161200
      3 CB          2.0540   -0.0060    1.2560 c2        1 PYT      0.011000
      4 C           2.0690    0.0040   -1.2700 c         1 PYT      0.539300
      5 NT          3.5630    0.0080   -1.3450 nz        1 PYT     -0.740400
      6 O           1.4750    0.0050   -2.3390 o         1 PYT     -0.351100
      7 HN1        -0.4650   -0.0100    0.9350 hn        1 PYT      0.498467
      8 HN2        -0.3790   -0.8430   -0.5240 hn        1 PYT      0.498467
      9 HC1         1.5290   -0.0110    2.2360 ha        1 PYT      0.205000
     10 HC2         3.1550   -0.0040    1.3550 ha        1 PYT      0.205000
     11 HT1         3.8490    0.0130   -2.3460 hn        1 PYT      0.501800
     12 HT2         3.9580   -0.8330   -0.9010 hn        1 PYT      0.501800
     13 HN3        -0.3820    0.8350   -0.5170 hn        1 PYT      0.498467
     14 HT3         3.9540    0.8480   -0.8950 hn        1 PYT      0.501800
@<TRIPOS>BOND
     1    1    2 1   
     2    1    7 1   
     3    1    8 1   
     4    1   13 1   
     5    2    3 2   
     6    2    4 1   
     7    3    9 1   
     8    3   10 1   
     9    4    5 1   
    10    4    6 2   
    11    5   11 1   
    12    5   12 1   
    13    5   14 1   
@<TRIPOS>SUBSTRUCTURE
     1 PYT         1 TEMP              0 ****  ****    0 ROOT
