@<TRIPOS>MOLECULE
PYT
   14    13     1     0     0
SMALL
bcc


@<TRIPOS>ATOM
      1 N          -0.0530   -0.0070   -0.0140 n4        1 PYT     -0.710400
      2 CA          1.4150   -0.0030    0.0660 ce        1 PYT     -0.161200
      3 CB          2.0530   -0.0060    1.2560 c2        1 PYT      0.011000
      4 C           2.0700    0.0050   -1.2710 c         1 PYT      0.539300
      5 NT          3.5630    0.0090   -1.3450 n4        1 PYT     -0.740400
      6 O           1.4760    0.0080   -2.3400 o         1 PYT     -0.351100
      7 HN1        -0.4660   -0.0080    0.9330 hn        1 PYT      0.498467
      8 HN2        -0.3830    0.8310   -0.5230 hn        1 PYT      0.498467
      9 HC1         1.5280   -0.0110    2.2350 ha        1 PYT      0.205000
     10 HC2         3.1540   -0.0030    1.3550 ha        1 PYT      0.205000
     11 HT1         3.9540    0.8490   -0.8940 hn        1 PYT      0.501800
     12 HT2         3.9590   -0.8320   -0.9010 hn        1 PYT      0.501800
     13 HN3        -0.3780   -0.8470   -0.5230 hn        1 PYT      0.498467
     14 HT3         3.8500    0.0140   -2.3450 hn        1 PYT      0.501800
@<TRIPOS>BOND
     1    1    2 1   
     2    1    7 1   
     3    1    8 1   
     4    1   13 1   
     5    2    3 2   
     6    2    4 1   
     7    3    9 1   
     8    3   10 1   
     9    4    5 1   
    10    4    6 2   
    11    5   11 1   
    12    5   12 1   
    13    5   14 1   
@<TRIPOS>SUBSTRUCTURE
     1 PYT         1 TEMP              0 ****  ****    0 ROOT
