@<TRIPOS>MOLECULE
PYT
   12    11     1     0     0
SMALL
bcc


@<TRIPOS>ATOM
      1 N           0.8800    0.4610    1.5290 nh        1 PYT     -0.805600
      2 CA         -0.1970   -0.0230    0.7790 ce        1 PYT      0.041800
      3 CB         -1.4360   -0.2450    1.2620 c2        1 PYT     -0.294000
      4 C           0.1030   -0.2450   -0.6870 c         1 PYT      0.659300
      5 NT         -0.7910    0.2400   -1.6030 n         1 PYT     -0.662000
      6 O           1.1310   -0.8540   -1.0480 o         1 PYT     -0.615100
      7 HN1         0.8030    0.2720    2.5060 hn        1 PYT      0.394800
      8 HN2         1.7700    0.2010    1.1540 hn        1 PYT      0.394800
      9 HC1        -2.2650   -0.5510    0.6150 ha        1 PYT      0.125000
     10 HC2        -1.6850   -0.1440    2.3250 ha        1 PYT      0.125000
     11 HT1        -0.6140    0.1210   -2.5690 hn        1 PYT      0.317500
     12 HT2        -1.5770    0.7640   -1.3160 hn        1 PYT      0.317500
@<TRIPOS>BOND
     1    1    2 1   
     2    1    7 1   
     3    1    8 1   
     4    2    3 2   
     5    2    4 1   
     6    3    9 1   
     7    3   10 1   
     8    4    5 1   
     9    4    6 2   
    10    5   11 1   
    11    5   12 1   
@<TRIPOS>SUBSTRUCTURE
     1 PYT         1 TEMP              0 ****  ****    0 ROOT
