@<TRIPOS>MOLECULE
PYU
   25    23     1     0     0
SMALL
bcc


@<TRIPOS>ATOM
      1 N1         -0.0350   -0.4450   -0.6170 n4        1 PYU      0.095000
      2 C4         -3.1610    1.6760   -0.9390 c2        1 PYU     -0.179000
      3 C5         -4.4500   -0.7340   -0.3430 c2        1 PYU     -0.385000
      4 C6         -4.4860    1.6630   -0.6700 c1        1 PYU      0.183000
      5 C7          2.1940   -0.2060    0.9050 c1        1 PYU      0.041000
      6 C8         -0.0930   -0.3880    0.7750 c1        1 PYU     -0.668000
      7 C10         2.7380   -0.0760    2.0870 c2        1 PYU     -0.481000
      8 C11        -0.1270   -0.3570    2.0080 c1        1 PYU     -0.002000
      9 C1         -2.3920    0.4310   -0.9870 c2        1 PYU     -0.185000
     10 C9         -5.4420   -1.3210   -1.0510 c2        1 PYU      0.108000
     11 C3         -3.0580   -0.7420   -0.7600 c2        1 PYU      0.181000
     12 C2         -0.9610    0.5240   -1.2850 c2        1 PYU      0.334000
     13 O1         -0.4380    1.3450   -2.0420 o         1 PYU     -0.261000
     14 O4         -6.7480   -1.3120   -0.6970 oh        1 PYU     -0.229000
     15 O2         -2.4200   -1.9370   -0.9730 oh        1 PYU     -0.270000
     16 H5         -4.6500   -0.2190    0.6190 ha        1 PYU      0.191000
     17 H6         -5.3090   -1.8720   -2.0010 h4        1 PYU      0.179000
     18 H7          0.9530   -0.2320   -0.8880 hn        1 PYU      0.249000
     19 H8         -0.2810   -1.3940   -0.9260 hn        1 PYU      0.249000
     20 H10         2.1760   -0.0580    3.0350 ha        1 PYU      0.177500
     21 H11         3.8270    0.0300    2.2140 ha        1 PYU      0.177500
     22 HO4        -6.8760   -0.7710    0.1020 ho        1 PYU      0.241000
     23 HO2        -2.9080   -2.6310   -0.5010 ho        1 PYU      0.253000
     24 HO3        -1.9810    2.8430   -1.8900 ho        1 PYU      0.233000
     25 O3         -2.5190    2.8930   -1.0820 oh        1 PYU     -0.233000
@<TRIPOS>BOND
     1    1    6 1   
     2    1   12 1   
     3    1   18 1   
     4    1   19 1   
     5    2    4 1   
     6    2    9 1   
     7    2   25 1   
     8    3   10 1   
     9    3   11 1   
    10    3   16 1   
    11    5    7 1   
    12    6    8 1   
    13    7   20 1   
    14    7   21 1   
    15    9   11 1   
    16    9   12 1   
    17   10   14 1   
    18   10   17 1   
    19   11   15 1   
    20   12   13 1   
    21   14   22 1   
    22   15   23 1   
    23   24   25 1   
@<TRIPOS>SUBSTRUCTURE
     1 PYU         1 TEMP              0 ****  ****    0 ROOT
