@<TRIPOS>MOLECULE
PYU
   25    26     1     0     0
SMALL
bcc


@<TRIPOS>ATOM
      1 N1         -1.9900   -0.0050    0.0030 n         1 PYU     -0.102200
      2 C4          0.9590   -1.0100    0.2830 ca        1 PYU      0.244600
      3 C5          2.6710    1.1750   -0.1280 ca        1 PYU     -0.266500
      4 C6          2.2700   -1.0620    0.7730 ca        1 PYU     -0.266500
      5 C7         -3.3570    0.0620   -0.3540 cc        1 PYU     -0.134800
      6 C8         -1.9200   -0.2510    1.3920 cc        1 PYU     -0.134800
      7 C10        -4.1230   -0.1550    0.7820 cd        1 PYU     -0.177000
      8 C11        -3.2120   -0.3520    1.8900 cd        1 PYU     -0.177000
      9 C1          0.4630    0.1310   -0.3850 ca        1 PYU     -0.351600
     10 C9          3.1070    0.0450    0.5750 ca        1 PYU      0.217100
     11 C3          1.3590    1.2010   -0.6210 ca        1 PYU      0.244600
     12 C2         -0.9270    0.2500   -0.8760 c         1 PYU      0.590500
     13 O1         -1.1860    0.6110   -2.0400 o         1 PYU     -0.572100
     14 O4          4.3730   -0.0510    1.0890 oh        1 PYU     -0.483100
     15 O2          1.0240    2.3380   -1.3000 oh        1 PYU     -0.489600
     16 H5          3.3330    2.0320   -0.3090 ha        1 PYU      0.169500
     17 H6          2.6340   -1.9570    1.2970 ha        1 PYU      0.169500
     18 H7         -3.6430    0.2580   -1.3900 h4        1 PYU      0.185000
     19 H8         -0.9550   -0.3340    1.8970 h4        1 PYU      0.185000
     20 H10        -5.2080   -0.1750    0.8420 ha        1 PYU      0.161000
     21 H11        -3.4970   -0.5450    2.9210 ha        1 PYU      0.161000
     22 HO4         4.8520    0.7640    0.8730 ho        1 PYU      0.430000
     23 HO2         0.1790    2.2120   -1.7630 ho        1 PYU      0.444500
     24 HO3        -0.6020   -2.1060    0.0100 ho        1 PYU      0.444500
     25 O3          0.2280   -2.1470    0.5070 oh        1 PYU     -0.489600
@<TRIPOS>BOND
     1    1    5 1   
     2    1    6 1   
     3    1   12 1   
     4    2    4 ar  
     5    2    9 ar  
     6    2   25 1   
     7    3   10 ar  
     8    3   11 ar  
     9    3   16 1   
    10    4   10 ar  
    11    4   17 1   
    12    5    7 2   
    13    5   18 1   
    14    6    8 2   
    15    6   19 1   
    16    7    8 1   
    17    7   20 1   
    18    8   21 1   
    19    9   11 ar  
    20    9   12 1   
    21   10   14 1   
    22   11   15 1   
    23   12   13 2   
    24   14   22 1   
    25   15   23 1   
    26   24   25 1   
@<TRIPOS>SUBSTRUCTURE
     1 PYU         1 TEMP              0 ****  ****    0 ROOT
