@<TRIPOS>MOLECULE
PYV
   35    37     1     0     0
SMALL
bcc


@<TRIPOS>ATOM
      1 S          -1.1960   -1.2340   -0.2720 sy        1 PYV      1.510200
      2 C1          3.1740   -0.0410   -0.2030 ca        1 PYV      0.048100
      3 N1         -1.9380    0.1790   -0.0340 n3        1 PYV     -0.914100
      4 O1         -1.5140   -2.1270    0.7680 o         1 PYV     -0.654300
      5 C2          2.4550    0.0040    1.0270 ca        1 PYV     -0.042000
      6 N2         -4.4740    1.6530    0.4480 nb        1 PYV     -0.666000
      7 O2         -1.4410   -1.6970   -1.5880 o         1 PYV     -0.654300
      8 C3          1.0900   -0.3990    1.0420 ca        1 PYV      0.060000
      9 C4          0.4500   -0.7990   -0.1680 ca        1 PYV     -0.344500
     10 C5          1.1920   -0.8320   -1.3320 ca        1 PYV     -0.007000
     11 C6          2.5520   -0.4640   -1.3570 ca        1 PYV     -0.138000
     12 C7          0.3960   -0.3920    2.2880 ca        1 PYV     -0.155000
     13 C8          1.0130    0.0220    3.4420 ca        1 PYV     -0.095000
     14 C9          2.3610    0.4490    3.4180 ca        1 PYV     -0.128000
     15 C10         3.0640    0.4330    2.2400 ca        1 PYV     -0.109000
     16 C11        -2.6390    0.9120   -1.0430 c3        1 PYV      0.182500
     17 C12        -4.1140    1.1310   -0.7510 ca        1 PYV      0.377600
     18 C13        -5.7830    1.8640    0.6640 ca        1 PYV      0.399200
     19 C14        -6.7880    1.5790   -0.2800 ca        1 PYV     -0.242300
     20 C15        -6.4060    1.0430   -1.5080 ca        1 PYV     -0.090000
     21 C16        -5.0510    0.8100   -1.7540 ca        1 PYV     -0.232300
     22 HN1        -1.9860    0.6000    0.8650 hn        1 PYV      0.462800
     23 H5          0.7200   -1.1580   -2.2800 ha        1 PYV      0.169000
     24 H6          3.0960   -0.5170   -2.3140 ha        1 PYV      0.156000
     25 H7         -0.6410   -0.7640    2.3350 ha        1 PYV      0.156000
     26 H8          0.4670    0.0180    4.3980 ha        1 PYV      0.142000
     27 H9          2.8370    0.7830    4.3510 ha        1 PYV      0.140000
     28 H10         4.1190    0.7530    2.2250 ha        1 PYV      0.149000
     29 H11        -2.1650    1.9320   -1.1670 h1        1 PYV      0.067700
     30 H11A       -2.5480    0.3620   -2.0260 h1        1 PYV      0.067700
     31 H13        -6.0400    2.2870    1.6530 h4        1 PYV      0.023100
     32 H14        -7.8430    1.7750   -0.0450 ha        1 PYV      0.146000
     33 H15        -7.1590    0.8020   -2.2730 ha        1 PYV      0.142000
     34 H16        -4.7200    0.3780   -2.7080 ha        1 PYV      0.149000
     35 BR          4.9810    0.4650   -0.3030 br        1 PYV     -0.075100
@<TRIPOS>BOND
     1    1    3 1   
     2    1    4 2   
     3    1    7 2   
     4    1    9 1   
     5    2    5 ar  
     6    2   11 ar  
     7    2   35 1   
     8    3   16 1   
     9    3   22 1   
    10    5    8 ar  
    11    5   15 ar  
    12    6   17 ar  
    13    6   18 ar  
    14    8    9 ar  
    15    8   12 ar  
    16    9   10 ar  
    17   10   11 ar  
    18   10   23 1   
    19   11   24 1   
    20   12   13 ar  
    21   12   25 1   
    22   13   14 ar  
    23   13   26 1   
    24   14   15 ar  
    25   14   27 1   
    26   15   28 1   
    27   16   17 1   
    28   16   29 1   
    29   16   30 1   
    30   17   21 ar  
    31   18   19 ar  
    32   18   31 1   
    33   19   20 ar  
    34   19   32 1   
    35   20   21 ar  
    36   20   33 1   
    37   21   34 1   
@<TRIPOS>SUBSTRUCTURE
     1 PYV         1 TEMP              0 ****  ****    0 ROOT
