@<TRIPOS>MOLECULE
PYV
   36    37     1     0     0
SMALL
bcc


@<TRIPOS>ATOM
      1 S           0.2550   -0.4180   -0.4980 sy        1 PYV      1.243100
      2 C1         -1.8950   -3.1780   -1.5720 ce        1 PYV      0.004600
      3 N1          1.8140   -0.7850    1.7540 nh        1 PYV     -0.257100
      4 O1         -0.7320   -0.5630    0.4570 o         1 PYV     -0.590300
      5 C2         -0.9980   -3.6390   -0.5270 ce        1 PYV     -0.152300
      6 N2          3.0790    1.2200   -1.0140 nh        1 PYV     -0.443800
      7 O2          0.3270    0.7150   -1.2960 o         1 PYV     -0.590300
      8 C3          0.4770   -3.2080   -0.6980 c3        1 PYV      0.017700
      9 C4          0.6950   -1.8170   -1.3400 c3        1 PYV     -0.276700
     10 C5         -0.0490   -1.9440   -2.6750 c2        1 PYV     -0.194300
     11 C6         -1.2200   -2.5270   -2.5280 c1        1 PYV      0.012200
     12 C7          1.3690   -3.6150    0.4200 c2        1 PYV     -0.216200
     13 C8          0.9720   -4.4030    1.4540 ce        1 PYV     -0.087000
     14 C9         -0.4580   -4.4630    1.7330 ce        1 PYV     -0.157100
     15 C10        -1.1920   -4.2160    0.6460 c1        1 PYV      0.105200
     16 C11         1.8070   -0.2800    0.5440 ce        1 PYV      0.297000
     17 C12         3.0450    0.3440    0.0790 ce        1 PYV     -0.211700
     18 C13         4.2660    1.7040   -1.4140 c2        1 PYV      0.098000
     19 C14         5.4810    1.3560   -0.7570 ce        1 PYV     -0.157000
     20 C15         5.4360    0.5630    0.3720 ce        1 PYV     -0.077100
     21 C16         4.1970    0.0240    0.7920 c1        1 PYV     -0.144800
     22 HN1         1.0060   -1.2490    2.1300 hn        1 PYV      0.340700
     23 H5          1.7900   -1.7840   -1.6280 h1        1 PYV      0.151700
     24 H6          0.4880   -1.7140   -3.6000 ha        1 PYV      0.191000
     25 H7          0.7720   -3.9480   -1.5280 hc        1 PYV      0.134700
     26 H8          2.4310   -3.3450    0.3000 ha        1 PYV      0.149000
     27 H9          1.6820   -4.8490    2.1670 ha        1 PYV      0.167000
     28 H10        -0.8290   -4.5420    2.7630 ha        1 PYV      0.191000
     29 H11         2.7760   -1.7220   -3.6150 ha        1 PYV      0.001000
     30 H11A        2.9500   -1.9620   -4.2240 ha        1 PYV      0.001000
     31 H13         2.2320    1.5500   -1.4550 hn        1 PYV      0.491800
     32 H14         4.2720    2.4120   -2.2690 h4        1 PYV      0.196000
     33 H15         6.4210    1.7630   -1.1650 ha        1 PYV      0.182000
     34 H16         6.3460    0.3360    0.9540 ha        1 PYV      0.182000
     35 H12         2.6700   -0.7570    2.3060 hn        1 PYV      0.340700
     36 BR         -3.7260   -3.2660   -1.4050 br        1 PYV      0.057300
@<TRIPOS>BOND
     1    1    4 2   
     2    1    7 2   
     3    1    9 1   
     4    1   16 1   
     5    2    5 1   
     6    2   11 2   
     7    2   36 1   
     8    3   16 2   
     9    3   22 1   
    10    3   35 1   
    11    5    8 1   
    12    5   15 2   
    13    6   17 1   
    14    6   18 1   
    15    6   31 1   
    16    8    9 1   
    17    8   12 1   
    18    8   25 1   
    19    9   10 1   
    20    9   23 1   
    21   10   11 2   
    22   10   24 1   
    23   12   13 2   
    24   12   26 1   
    25   13   14 1   
    26   13   27 1   
    27   14   15 2   
    28   14   28 1   
    29   16   17 1   
    30   17   21 2   
    31   18   19 2   
    32   18   32 1   
    33   19   20 1   
    34   19   33 1   
    35   20   21 2   
    36   20   34 1   
    37   29   30 1   
@<TRIPOS>SUBSTRUCTURE
     1 PYV         1 TEMP              0 ****  ****    0 ROOT
