@<TRIPOS>MOLECULE
PYV
   36    36     1     0     0
SMALL
bcc


@<TRIPOS>ATOM
      1 S           0.6110    0.6810   -0.1760 s6        1 PYV      2.843000
      2 C1         -0.7940   -3.4070   -1.6040 ca        1 PYV     -0.010000
      3 N1          2.4760   -0.6740    0.9810 n2        1 PYV     -0.134000
      4 O1         -0.0740    0.9970    0.9900 o         1 PYV     -0.904000
      5 C2         -0.6780   -3.1370   -0.1930 ca        1 PYV     -0.113000
      6 N2          3.2660    2.2200   -1.1350 n3        1 PYV     -0.084000
      7 O2          0.5460    1.5590   -1.2620 o         1 PYV     -0.904000
      8 C3         -0.2440   -1.8360    0.2210 ca        1 PYV      0.163000
      9 C4          0.0780   -0.8570   -0.7070 ca        1 PYV     -0.826000
     10 C5         -0.0520   -1.1480   -2.0740 ca        1 PYV      0.139000
     11 C6         -0.4840   -2.4070   -2.5130 ca        1 PYV     -0.173000
     12 C7          0.9320   -5.9980    2.0760 c2        1 PYV     -0.101000
     13 C8         -0.3860   -5.9070    2.2870 c2        1 PYV     -0.180000
     14 C9         -1.2630   -4.9440    1.6550 c2        1 PYV     -0.009000
     15 C10        -0.9550   -4.0690    0.7440 c1        1 PYV      0.080000
     16 C11         2.2680    0.2980    0.1580 c2        1 PYV     -0.600000
     17 C12         3.4150    1.0150   -0.4640 c2        1 PYV     -0.060000
     18 C13         4.3640    2.8370   -1.6370 c2        1 PYV     -0.046000
     19 C14         5.6510    2.2810   -1.4940 c2        1 PYV     -0.167000
     20 C15         5.7910    1.0580   -0.8430 c2        1 PYV     -0.020000
     21 C16         4.6630    0.4200   -0.3140 c1        1 PYV     -0.339000
     22 HN1        -0.1700   -1.6180    1.3080 ha        1 PYV      0.202000
     23 H5          0.1840   -0.3610   -2.8230 ha        1 PYV      0.199000
     24 H6         -0.5720   -2.5900   -3.6010 ha        1 PYV      0.197000
     25 H7          1.4880   -5.3420    1.3930 ha        1 PYV      0.143000
     26 H8          1.5420   -6.7550    2.5960 ha        1 PYV      0.143000
     27 H9         -0.8990   -6.5900    2.9910 ha        1 PYV      0.174000
     28 H10        -2.3290   -4.9680    2.0010 ha        1 PYV      0.227000
     29 H11         3.5070   -3.3940   -3.7330 ha        1 PYV      0.000000
     30 H11A        4.1390   -3.4910   -3.9550 ha        1 PYV      0.000000
     31 H13         2.3660    2.6400   -1.2960 hn        1 PYV      0.260000
     32 H14         4.2080    3.7960   -2.1660 h4        1 PYV      0.175000
     33 H15         6.5080    2.8330   -1.9070 ha        1 PYV      0.162000
     34 H16         6.7820    0.5890   -0.7340 ha        1 PYV      0.160000
     35 H12         3.4400   -0.8900    1.1850 hn        1 PYV      0.224000
     36 BR         -1.3540   -5.0750   -2.2070 br        1 PYV      0.183000
@<TRIPOS>BOND
     1    1    4 1   
     2    1    7 1   
     3    1    9 1   
     4    1   16 1   
     5    2    5 1   
     6    2   11 1   
     7    2   36 1   
     8    3   16 1   
     9    3   35 1   
    10    5    8 1   
    11    5   15 1   
    12    6   17 1   
    13    6   18 1   
    14    6   31 1   
    15    8    9 1   
    16    8   22 1   
    17    9   10 1   
    18   10   11 1   
    19   10   23 1   
    20   11   24 1   
    21   12   13 1   
    22   12   25 1   
    23   12   26 1   
    24   13   14 1   
    25   13   27 1   
    26   14   15 1   
    27   14   28 1   
    28   16   17 1   
    29   17   21 1   
    30   18   19 1   
    31   18   32 1   
    32   19   20 1   
    33   19   33 1   
    34   20   21 1   
    35   20   34 1   
    36   29   30 1   
@<TRIPOS>SUBSTRUCTURE
     1 PYV         1 TEMP              0 ****  ****    0 ROOT
