@<TRIPOS>MOLECULE
PYV
   36    36     1     0     0
SMALL
bcc


@<TRIPOS>ATOM
      1 S           0.4520   -0.2360    0.1640 s6        1 PYV      2.833000
      2 C1         -1.6870   -3.9610   -2.2110 c2        1 PYV      0.077000
      3 N1          2.2900   -0.6260    0.0490 ny        1 PYV     -0.473000
      4 O1          0.2360   -0.1200    1.5230 o         1 PYV     -0.859000
      5 C2         -1.6010   -4.5830   -0.9790 c1        1 PYV     -0.177000
      6 N2          4.5970    2.2870   -0.2900 n7        1 PYV     -0.031000
      7 O2          0.2550    0.8300   -0.6980 o         1 PYV     -0.859000
      8 C3          0.0910   -2.8570    0.3100 c2        1 PYV     -0.130000
      9 C4         -0.0530   -1.6450   -0.4720 c2        1 PYV     -0.965000
     10 C5         -0.6190   -1.6900   -1.7240 c2        1 PYV      0.141000
     11 C6         -1.2370   -2.7040   -2.5050 c2        1 PYV     -0.201000
     12 C7         -0.2920   -3.0290    1.5930 c2        1 PYV     -0.127000
     13 C8         -0.4960   -4.3470    2.1610 c2        1 PYV     -0.078000
     14 C9         -1.0970   -5.3340    1.4440 c2        1 PYV     -0.059000
     15 C10        -1.4440   -5.0740    0.1150 c1        1 PYV      0.007000
     16 C11         2.8620    0.6660    0.2340 c1        1 PYV      0.021000
     17 C12         4.0530    0.9960   -0.4630 c2        1 PYV     -0.220000
     18 C13         5.6980    2.6230   -0.9590 c2        1 PYV      0.030000
     19 C14         6.3450    1.7000   -1.8510 c2        1 PYV     -0.146000
     20 C15         5.8280    0.4390   -2.0180 c2        1 PYV     -0.041000
     21 C16         4.6420    0.0620   -1.3220 c1        1 PYV     -0.215000
     22 HN1         2.6100   -1.1210   -0.7950 hn        1 PYV      0.261500
     23 H5         -0.6070   -0.7130   -2.2770 ha        1 PYV      0.153000
     24 H6         -1.4140   -2.3650   -3.5520 ha        1 PYV      0.166000
     25 H7          0.5090   -3.7050   -0.2670 ha        1 PYV      0.148000
     26 H8         -0.5630   -2.1810    2.2520 ha        1 PYV      0.170000
     27 H9         -0.2420   -4.4930    3.2240 ha        1 PYV      0.163000
     28 H10        -1.3420   -6.3170    1.8800 ha        1 PYV      0.177000
     29 H11         2.8360   -3.4200   -0.2110 ha        1 PYV      0.001000
     30 H11A        3.4750   -3.4340   -0.4380 ha        1 PYV      0.001000
     31 H13         4.1420    2.9310    0.3360 hn        1 PYV      0.280000
     32 H14         6.1190    3.6410   -0.8140 h4        1 PYV      0.196000
     33 H15         7.2500    2.0530   -2.3730 ha        1 PYV      0.182000
     34 H16         6.3080   -0.2970   -2.6870 ha        1 PYV      0.181000
     35 H12         2.5680   -1.2060    0.8490 hn        1 PYV      0.261500
     36 Br         -2.5150   -4.9740   -3.5660 br        1 PYV      0.132000
@<TRIPOS>BOND
     1    1    3 1   
     2    1    4 1   
     3    1    7 1   
     4    1    9 1   
     5    2    5 1   
     6    2   11 1   
     7    2   36 1   
     8    3   16 1   
     9    3   22 1   
    10    3   35 1   
    11    5   15 1   
    12    6   17 1   
    13    6   18 1   
    14    6   31 1   
    15    8    9 1   
    16    8   12 1   
    17    8   25 1   
    18    9   10 1   
    19   10   11 1   
    20   10   23 1   
    21   11   24 1   
    22   12   13 1   
    23   12   26 1   
    24   13   14 1   
    25   13   27 1   
    26   14   15 1   
    27   14   28 1   
    28   16   17 1   
    29   17   21 1   
    30   18   19 1   
    31   18   32 1   
    32   19   20 1   
    33   19   33 1   
    34   20   21 1   
    35   20   34 1   
    36   29   30 1   
@<TRIPOS>SUBSTRUCTURE
     1 PYV         1 TEMP              0 ****  ****    0 ROOT
