@<TRIPOS>MOLECULE
PYW
   73    75     1     0     0
SMALL
bcc


@<TRIPOS>ATOM
      1 CAO        -0.5780    0.7650   -0.4250 ca        1 PYW     -0.094000
      2 CAK         0.6750    1.1090   -0.9300 ca        1 PYW     -0.247300
      3 CAM         1.8190    0.7990   -0.1670 ca        1 PYW      0.433200
      4 NAT         1.7610    0.1870    1.0310 nb        1 PYW     -0.640000
      5 CAQ         0.5470   -0.1380    1.5080 ca        1 PYW      0.431200
      6 CBF        -0.6580    0.1210    0.8170 ca        1 PYW     -0.265600
      7 CAS        -1.9650   -0.2360    1.4290 c3        1 PYW     -0.023100
      8 CBL        -2.3100   -1.7090    1.1550 c3        1 PYW      0.145500
      9 NAV        -3.5630   -1.9540    0.3290 ny        1 PYW     -0.667800
     10 C          -4.7190   -1.0190    0.4040 c         1 PYW      0.537100
     11 O          -4.8120   -0.1720    1.2760 o         1 PYW     -0.355100
     12 CBK        -2.2180   -2.6310    2.4130 c3        1 PYW      0.138100
     13 OAJ        -1.0210   -2.2060    3.0420 oh        1 PYW     -0.578800
     14 CBJ        -3.3420   -2.6610    3.4610 c3        1 PYW     -0.152700
     15 CAD        -3.6880   -1.3210    4.0600 c3        1 PYW     -0.101100
     16 CBD        -4.5200   -3.4180    2.9150 c         1 PYW      0.631100
     17 OAH        -4.4990   -4.2050    1.9570 o         1 PYW     -0.579000
     18 OAX        -5.7040   -3.1680    3.5460 os        1 PYW     -0.301200
     19 CBE        -6.8470   -3.8430    3.0950 ce        1 PYW     -0.085100
     20 CAZ        -7.5570   -4.6130    3.9670 c2        1 PYW      0.101600
     21 CAB        -8.8490   -5.2150    3.5720 c3        1 PYW     -0.109900
     22 CAR        -7.0760   -4.8780    5.3510 c3        1 PYW     -0.076200
     23 CAA        -7.9670   -4.2330    6.3880 c3        1 PYW     -0.095100
     24 CBA        -7.2550   -3.5900    1.7200 c         1 PYW      0.681300
     25 OAE        -8.2710   -3.8960    1.1050 o         1 PYW     -0.492000
     26 OG1        -6.2900   -2.8810    0.9900 os        1 PYW     -0.502900
     27 CB         -6.5700   -2.5960   -0.3790 c3        1 PYW      0.138100
     28 CG2        -6.0630   -3.7160   -1.2610 c3        1 PYW     -0.155100
     29 CA         -5.8780   -1.2130   -0.6030 c3        1 PYW      0.026500
     30 N          -5.5390   -0.9660   -2.0300 ny        1 PYW     -0.680800
     31 CBB        -4.5980    0.2300   -2.2290 c         1 PYW      0.506600
     32 OAF        -3.4630    0.0050   -1.8200 o         1 PYW     -0.488100
     33 CBH        -5.1480    1.4150   -2.8620 ca        1 PYW      0.217800
     34 NAU        -6.4680    1.4220   -3.2590 nb        1 PYW     -0.660000
     35 CAN        -6.9410    2.5050   -3.8480 ca        1 PYW      0.412200
     36 CAL        -6.1520    3.6790   -4.0970 ca        1 PYW     -0.097300
     37 CAP        -4.8350    3.6920   -3.7010 ca        1 PYW     -0.182000
     38 CBG        -4.2990    2.5390   -3.0620 ca        1 PYW      0.170800
     39 OAI        -3.0230    2.4490   -2.6230 oh        1 PYW     -0.457100
     40 HAO        -1.4900    1.0080   -0.9940 ha        1 PYW      0.130000
     41 HAK         0.7790    1.6150   -1.8990 ha        1 PYW      0.154000
     42 HAM         2.8330    1.0570   -0.5290 h4        1 PYW      0.050100
     43 HAQ         0.5330   -0.6310    2.5000 h4        1 PYW      0.045100
     44 HAS1       -1.9140   -0.0900    2.5460 hc        1 PYW      0.088700
     45 HAS2       -2.7450    0.4680    1.0380 hc        1 PYW      0.088700
     46 HBL        -1.4810   -2.1120    0.4780 hx        1 PYW      0.119700
     47 HAV        -3.9320   -2.9050    0.5670 hn        1 PYW      0.482300
     48 HBK        -2.1000   -3.6900    2.0260 h1        1 PYW      0.070700
     49 HA         -6.6350   -0.4110   -0.3010 hx        1 PYW      0.170700
     50 HAJ        -0.6870   -2.9490    3.5670 ho        1 PYW      0.446000
     51 HBJ        -2.9530   -3.3110    4.3110 hc        1 PYW      0.122700
     52 HAD1       -2.7690   -0.8740    4.5170 hc        1 PYW      0.069700
     53 HAD2       -4.4630   -1.4470    4.8570 hc        1 PYW      0.069700
     54 HAD3       -4.0850   -0.6140    3.2950 hc        1 PYW      0.069700
     55 HAB1       -8.7360   -5.8080    2.6260 hc        1 PYW      0.088367
     56 HAB2       -9.6050   -4.4110    3.3690 hc        1 PYW      0.088367
     57 HAB3       -9.2460   -5.8860    4.3740 hc        1 PYW      0.088367
     58 HAR1       -7.0660   -5.9940    5.5070 hc        1 PYW      0.075700
     59 HAR2       -6.0240   -4.5090    5.4830 hc        1 PYW      0.075700
     60 HAA1       -9.0220   -4.5850    6.2840 hc        1 PYW      0.056367
     61 HAA2       -7.9510   -3.1210    6.2900 hc        1 PYW      0.056367
     62 HAA3       -7.6030   -4.5040    7.4100 hc        1 PYW      0.056367
     63 HB         -7.6840   -2.4660   -0.5310 h1        1 PYW      0.133700
     64 HG21       -6.4650   -4.6860   -0.8560 hc        1 PYW      0.076033
     65 HG22       -6.4410   -3.6130   -2.3070 hc        1 PYW      0.076033
     66 HG23       -4.9500   -3.7930   -1.2620 hc        1 PYW      0.076033
     67 H          -5.0900   -1.8000   -2.4340 hn        1 PYW      0.481300
     68 HAN        -8.0070    2.4760   -4.1570 h4        1 PYW      0.074100
     69 HAL        -6.6170    4.5470   -4.5990 ha        1 PYW      0.200000
     70 HAP        -4.1890    4.5710   -3.8700 ha        1 PYW      0.192000
     71 HAI        -2.5450    3.2750   -2.8310 ho        1 PYW      0.477000
     72 HAV2       -3.2520   -1.9550   -0.6520 hn        1 PYW      0.482300
     73 H2         -6.4260   -0.8110   -2.5400 hn        1 PYW      0.481300
@<TRIPOS>BOND
     1    1    2 ar  
     2    1    6 ar  
     3    1   40 1   
     4    2    3 ar  
     5    2   41 1   
     6    3    4 ar  
     7    3   42 1   
     8    4    5 ar  
     9    5    6 ar  
    10    5   43 1   
    11    6    7 1   
    12    7    8 1   
    13    7   44 1   
    14    7   45 1   
    15    8    9 1   
    16    8   12 1   
    17    8   46 1   
    18    9   10 1   
    19    9   47 1   
    20    9   72 1   
    21   10   11 2   
    22   10   29 1   
    23   12   13 1   
    24   12   14 1   
    25   12   48 1   
    26   13   50 1   
    27   14   15 1   
    28   14   16 1   
    29   14   51 1   
    30   15   52 1   
    31   15   53 1   
    32   15   54 1   
    33   16   17 2   
    34   16   18 1   
    35   18   19 1   
    36   19   20 2   
    37   19   24 1   
    38   20   21 1   
    39   20   22 1   
    40   21   55 1   
    41   21   56 1   
    42   21   57 1   
    43   22   23 1   
    44   22   58 1   
    45   22   59 1   
    46   23   60 1   
    47   23   61 1   
    48   23   62 1   
    49   24   25 2   
    50   24   26 1   
    51   26   27 1   
    52   27   28 1   
    53   27   29 1   
    54   27   63 1   
    55   28   64 1   
    56   28   65 1   
    57   28   66 1   
    58   29   30 1   
    59   29   49 1   
    60   30   31 1   
    61   30   67 1   
    62   30   73 1   
    63   31   32 2   
    64   31   33 1   
    65   33   34 ar  
    66   33   38 ar  
    67   34   35 ar  
    68   35   36 ar  
    69   35   68 1   
    70   36   37 ar  
    71   36   69 1   
    72   37   38 ar  
    73   37   70 1   
    74   38   39 1   
    75   39   71 1   
@<TRIPOS>SUBSTRUCTURE
     1 PYW         1 TEMP              0 ****  ****    0 ROOT
