@<TRIPOS>MOLECULE
PYW
   71    67     1     0     0
SMALL
bcc


@<TRIPOS>ATOM
      1 CAO         4.2290    1.5520   -0.4310 c1        1 PYW     -0.088000
      2 CAK         5.4610    2.0720   -0.7360 c1        1 PYW     -0.139750
      3 CAM         6.5580    1.7670    0.0570 c1        1 PYW     -0.139750
      4 NAT         6.4110    0.9450    1.1460 n1        1 PYW     -0.140000
      5 CAQ         5.1820    0.4250    1.4520 c1        1 PYW     -0.075000
      6 CBF         4.0820    0.7290    0.6600 c1        1 PYW     -0.130000
      7 CAS         2.6940    0.2680    1.0810 c3        1 PYW     -0.134000
      8 CBL         2.1200   -0.6330    0.0180 c3        1 PYW     -0.006000
      9 NAV         0.6870   -0.4890   -0.0120 n         1 PYW     -0.364000
     10 C           0.0700    0.3330   -1.0160 c2        1 PYW      0.297000
     11 O           0.7520    0.9040   -1.8320 o         1 PYW     -0.390000
     12 CBK         2.4750   -2.0620    0.3230 c3        1 PYW      0.021000
     13 OAJ         3.8680   -2.1680    0.5320 oh        1 PYW     -0.325000
     14 CBJ         1.7360   -2.5150    1.5790 c3        1 PYW     -0.094000
     15 CAD         1.2530   -1.3250    2.3260 c3        1 PYW     -0.212000
     16 CBD         0.5380   -3.3910    1.1870 c2        1 PYW      0.311000
     17 OAH         0.5400   -4.5700    1.4470 o         1 PYW     -0.333000
     18 OAX         0.0020   -2.9390   -0.0410 os        1 PYW     -0.216000
     19 CBE        -1.4630   -3.1220   -0.0380 c2        1 PYW     -0.046000
     20 CAZ        -2.0300   -4.3830   -0.0510 c1        1 PYW      0.013000
     21 CAB        -1.1380   -5.6200   -0.0680 c2        1 PYW     -0.198000
     22 CAR        -3.5510   -4.5380   -0.0470 c3        1 PYW     -0.152000
     23 CAA        -3.9060   -5.9930   -0.1450 c3        1 PYW     -0.210000
     24 CBA        -2.3350   -1.8550   -0.0180 c2        1 PYW      0.356000
     25 OAE        -3.4670   -1.8990    0.4400 o         1 PYW     -0.354000
     26 OG1        -2.0650   -1.0680   -1.1820 os        1 PYW     -0.281000
     27 CB         -2.3810    0.3040   -0.9250 c3        1 PYW      0.038000
     28 CG2        -2.8770    0.9560   -2.2010 c3        1 PYW     -0.242000
     29 CA         -1.1650    1.0130   -0.4470 c3        1 PYW      0.006000
     30 N          -1.2040    2.3820   -0.8860 n         1 PYW     -0.353000
     31 CBB        -1.7060    3.4060   -0.0060 c2        1 PYW      0.377000
     32 OAF        -2.0930    3.1160    1.1010 o         1 PYW     -0.334000
     33 CBH        -1.7550    4.8600   -0.4760 c2        1 PYW     -0.087000
     34 NAU        -1.0030    5.2540   -1.5370 n2        1 PYW     -0.091000
     35 CAN        -0.9560    6.5710   -1.8910 c1        1 PYW     -0.107000
     36 CAL        -1.6780    7.5120   -1.1660 c1        1 PYW     -0.139750
     37 CAP        -2.4320    7.1190   -0.1030 c1        1 PYW     -0.139750
     38 CBG        -2.4790    5.8020    0.2510 c1        1 PYW      0.078000
     39 OAI        -3.2110    5.4050    1.3780 oh        1 PYW     -0.221000
     40 HAO         3.4520    1.7680   -0.9920 ha        1 PYW      0.162000
     41 HAK         5.5680    2.6620   -1.5160 ha        1 PYW      0.149750
     42 HAM         7.4380    2.1390   -0.1610 ha        1 PYW      0.149750
     43 HAQ         5.0790   -0.1600    2.2270 ha        1 PYW      0.156000
     44 HAS1        2.1220    1.0340    1.1950 hc        1 PYW      0.109500
     45 HAS2        2.7550   -0.2180    1.9190 hc        1 PYW      0.109500
     46 HBL         2.4890   -0.3850   -0.8520 h1        1 PYW      0.132000
     47 HAV         0.1740   -0.9000    0.6220 hn        1 PYW      0.249000
     48 HBK         2.2130   -2.6320   -0.4330 h1        1 PYW      0.100000
     49 HA         -1.1320    0.9850    0.5280 h1        1 PYW      0.154000
     50 HAJ         4.2020   -2.7960   -0.0080 ho        1 PYW      0.214000
     51 HBJ         2.3420   -3.0300    2.1450 hc        1 PYW      0.139000
     52 HAD1        1.0830   -0.5970    1.7020 hc        1 PYW      0.093667
     53 HAD2        1.9330   -1.0480    2.9700 hc        1 PYW      0.093667
     54 HAD3        0.4260   -1.5500    2.8000 hc        1 PYW      0.093667
     55 HAB1       -1.4880   -6.2690   -0.7200 ha        1 PYW      0.100000
     56 HAB2       -0.2300   -5.3630   -0.3210 ha        1 PYW      0.100000
     57 HAB3       -1.1260   -6.0260    0.8220 ha        1 PYW      0.100000
     58 HAR1       -3.9310   -4.0560   -0.8150 hc        1 PYW      0.121500
     59 HAR2       -3.9170   -4.1670    0.7870 hc        1 PYW      0.121500
     60 HAA1       -3.5710   -6.3570   -0.9990 hc        1 PYW      0.078000
     61 HAA2       -3.4930   -6.4820    0.6050 hc        1 PYW      0.078000
     62 HAA3       -4.8780   -6.0940   -0.1060 hc        1 PYW      0.078000
     63 HB         -3.0800    0.3560   -0.2390 h1        1 PYW      0.132000
     64 HG21       -2.1010    1.2140   -2.7620 hc        1 PYW      0.097000
     65 HG22       -3.4440    0.3180   -2.6980 hc        1 PYW      0.097000
     66 HG23       -3.4040    1.7600   -1.9780 hc        1 PYW      0.097000
     67 H          -0.9540    2.5930   -1.7300 hn        1 PYW      0.250000
     68 HAN        -0.4170    6.8520   -2.6510 ha        1 PYW      0.169000
     69 HAL        -1.6440    8.4380   -1.4150 ha        1 PYW      0.149750
     70 HAP        -2.9390    7.7800    0.4060 ha        1 PYW      0.149750
     71 HAI        -3.2890    6.1010    1.9450 ho        1 PYW      0.226000
@<TRIPOS>BOND
     1    1    6 1   
     2    1   40 1   
     3    2    3 1   
     4    2   41 1   
     5    3   42 1   
     6    4    5 1   
     7    5   43 1   
     8    6    7 1   
     9    7    8 1   
    10    7   44 1   
    11    7   45 1   
    12    8    9 1   
    13    8   12 1   
    14    8   46 1   
    15    9   10 1   
    16    9   47 1   
    17   10   11 1   
    18   10   29 1   
    19   12   13 1   
    20   12   14 1   
    21   12   48 1   
    22   13   50 1   
    23   14   15 1   
    24   14   16 1   
    25   14   51 1   
    26   15   52 1   
    27   15   53 1   
    28   15   54 1   
    29   16   17 1   
    30   16   18 1   
    31   18   19 1   
    32   19   20 1   
    33   19   24 1   
    34   20   22 1   
    35   21   55 1   
    36   21   56 1   
    37   21   57 1   
    38   22   23 1   
    39   22   58 1   
    40   22   59 1   
    41   23   60 1   
    42   23   61 1   
    43   23   62 1   
    44   24   25 1   
    45   24   26 1   
    46   26   27 1   
    47   27   28 1   
    48   27   29 1   
    49   27   63 1   
    50   28   64 1   
    51   28   65 1   
    52   28   66 1   
    53   29   30 1   
    54   29   49 1   
    55   30   31 1   
    56   30   67 1   
    57   31   32 1   
    58   31   33 1   
    59   33   34 1   
    60   33   38 1   
    61   34   35 1   
    62   35   68 1   
    63   36   37 1   
    64   36   69 1   
    65   37   70 1   
    66   38   39 1   
    67   39   71 1   
@<TRIPOS>SUBSTRUCTURE
     1 PYW         1 TEMP              0 ****  ****    0 ROOT
