@<TRIPOS>MOLECULE
PYW
   71    73     1     0     0
SMALL
bcc


@<TRIPOS>ATOM
      1 CAO        -2.2730    3.0010    1.1360 ca        1 PYW     -0.084000
      2 CAK        -3.6490    3.2260    1.0750 ca        1 PYW     -0.248300
      3 CAM        -4.1690    3.9160   -0.0350 ca        1 PYW      0.386200
      4 NAT        -3.4060    4.3740   -1.0470 nb        1 PYW     -0.669000
      5 CAQ        -2.0820    4.1520   -0.9720 ca        1 PYW      0.390200
      6 CBF        -1.4600    3.4680    0.0960 ca        1 PYW     -0.194600
      7 CAS         0.0150    3.2890    0.1240 c3        1 PYW     -0.044100
      8 CBL         0.4890    2.2760   -0.9290 c3        1 PYW      0.132700
      9 NAV         0.2220    0.8840   -0.6550 n         1 PYW     -0.562900
     10 C          -0.0770    0.3050    0.5610 c         1 PYW      0.675100
     11 O          -0.0320    0.8860    1.6610 o         1 PYW     -0.603100
     12 CBK         1.9680    2.5270   -1.3630 c3        1 PYW      0.117100
     13 OAJ         2.0940    3.9320   -1.5280 oh        1 PYW     -0.590800
     14 CBJ         3.0910    2.0100   -0.4490 c3        1 PYW     -0.127700
     15 CAD         2.9100    2.3510    1.0100 c3        1 PYW     -0.099100
     16 CBD         3.2860    0.5370   -0.6870 c         1 PYW      0.646100
     17 OAH         2.9940   -0.1140   -1.6900 o         1 PYW     -0.538000
     18 OAX         3.9170   -0.1000    0.3600 os        1 PYW     -0.340200
     19 CBE         4.0780   -1.4860    0.2900 ce        1 PYW     -0.010100
     20 CAZ         5.3210   -2.0190    0.3740 c2        1 PYW     -0.005400
     21 CAB         5.5220   -3.4840    0.4480 c3        1 PYW     -0.080900
     22 CAR         6.5430   -1.1670    0.4020 c3        1 PYW     -0.056200
     23 CAA         7.1890   -1.1540    1.7670 c3        1 PYW     -0.090100
     24 CBA         2.8430   -2.2820    0.2210 c         1 PYW      0.657300
     25 OAE         2.7190   -3.5090    0.2290 o         1 PYW     -0.537000
     26 OG1         1.7200   -1.5020    0.1390 os        1 PYW     -0.445900
     27 CB          0.4520   -2.1600   -0.0390 c3        1 PYW      0.136100
     28 CG2         0.2780   -2.5310   -1.4970 c3        1 PYW     -0.123100
     29 CA         -0.5940   -1.1650    0.5360 c3        1 PYW      0.026700
     30 N          -1.8700   -1.2330   -0.1210 n         1 PYW     -0.536900
     31 CBB        -2.9830   -1.7640    0.4920 c         1 PYW      0.591600
     32 OAF        -2.9340   -2.1800    1.6720 o         1 PYW     -0.637100
     33 CBH        -4.2760   -1.8040   -0.2740 ca        1 PYW      0.260800
     34 NAU        -4.2250   -1.8350   -1.6340 nb        1 PYW     -0.631000
     35 CAN        -5.3710   -1.8840   -2.3150 ca        1 PYW      0.357200
     36 CAL        -6.6460   -1.9010   -1.7000 ca        1 PYW     -0.185300
     37 CAP        -6.7160   -1.8730   -0.3200 ca        1 PYW     -0.139000
     38 CBG        -5.5090   -1.8310    0.4250 ca        1 PYW      0.096800
     39 OAI        -5.6720   -1.8040    1.7760 oh        1 PYW     -0.494100
     40 HAO        -1.8240    2.4540    1.9820 ha        1 PYW      0.162000
     41 HAK        -4.3140    2.8750    1.8730 ha        1 PYW      0.143000
     42 HAM        -5.2520    4.1150   -0.1220 h4        1 PYW      0.018100
     43 HAQ        -1.4780    4.5460   -1.8100 h4        1 PYW      0.020100
     44 HAS1        0.4980    4.2790   -0.1100 hc        1 PYW      0.086700
     45 HAS2        0.3510    2.9890    1.1520 hc        1 PYW      0.086700
     46 HBL        -0.1060    2.5100   -1.8730 h1        1 PYW      0.059700
     47 HAV         0.5140    0.2600   -1.3770 hn        1 PYW      0.324500
     48 HBK         2.1040    2.0260   -2.3700 h1        1 PYW      0.051700
     49 HA         -0.7370   -1.4390    1.6310 h1        1 PYW      0.129700
     50 HAJ         2.9170    4.0860   -2.0080 ho        1 PYW      0.406000
     51 HBJ         4.0520    2.4940   -0.8030 hc        1 PYW      0.074700
     52 HAD1        2.0910    1.7420    1.4680 hc        1 PYW      0.061367
     53 HAD2        3.8530    2.1410    1.5710 hc        1 PYW      0.061367
     54 HAD3        2.6560    3.4350    1.1060 hc        1 PYW      0.061367
     55 HAB1        5.1200   -3.9740   -0.4770 hc        1 PYW      0.066367
     56 HAB2        6.6040   -3.7390    0.5540 hc        1 PYW      0.066367
     57 HAB3        4.9590   -3.9130    1.3170 hc        1 PYW      0.066367
     58 HAR1        7.2710   -1.5670   -0.3560 hc        1 PYW      0.059200
     59 HAR2        6.2890   -0.1140    0.1020 hc        1 PYW      0.059200
     60 HAA1        6.4990   -0.7130    2.5260 hc        1 PYW      0.042367
     61 HAA2        7.4540   -2.1900    2.0910 hc        1 PYW      0.042367
     62 HAA3        8.1220   -0.5410    1.7370 hc        1 PYW      0.042367
     63 HB          0.4330   -3.0980    0.5880 h1        1 PYW      0.088700
     64 HG21        1.1570   -3.1440   -1.8210 hc        1 PYW      0.055367
     65 HG22       -0.6470   -3.1420   -1.6330 hc        1 PYW      0.055367
     66 HG23        0.2230   -1.6310   -2.1530 hc        1 PYW      0.055367
     67 H          -1.9030   -0.9800   -1.0820 hn        1 PYW      0.338500
     68 HAN        -5.2760   -1.9100   -3.4150 h4        1 PYW      0.030100
     69 HAL        -7.5550   -1.9370   -2.3160 ha        1 PYW      0.151000
     70 HAP        -7.6740   -1.8860    0.2200 ha        1 PYW      0.163000
     71 HAI        -4.8100   -1.8670    2.2250 ho        1 PYW      0.469000
@<TRIPOS>BOND
     1    1    2 ar  
     2    1    6 ar  
     3    1   40 1   
     4    2    3 ar  
     5    2   41 1   
     6    3    4 ar  
     7    3   42 1   
     8    4    5 ar  
     9    5    6 ar  
    10    5   43 1   
    11    6    7 1   
    12    7    8 1   
    13    7   44 1   
    14    7   45 1   
    15    8    9 1   
    16    8   12 1   
    17    8   46 1   
    18    9   10 1   
    19    9   47 1   
    20   10   11 2   
    21   10   29 1   
    22   12   13 1   
    23   12   14 1   
    24   12   48 1   
    25   13   50 1   
    26   14   15 1   
    27   14   16 1   
    28   14   51 1   
    29   15   52 1   
    30   15   53 1   
    31   15   54 1   
    32   16   17 2   
    33   16   18 1   
    34   18   19 1   
    35   19   20 2   
    36   19   24 1   
    37   20   21 1   
    38   20   22 1   
    39   21   55 1   
    40   21   56 1   
    41   21   57 1   
    42   22   23 1   
    43   22   58 1   
    44   22   59 1   
    45   23   60 1   
    46   23   61 1   
    47   23   62 1   
    48   24   25 2   
    49   24   26 1   
    50   26   27 1   
    51   27   28 1   
    52   27   29 1   
    53   27   63 1   
    54   28   64 1   
    55   28   65 1   
    56   28   66 1   
    57   29   30 1   
    58   29   49 1   
    59   30   31 1   
    60   30   67 1   
    61   31   32 2   
    62   31   33 1   
    63   33   34 ar  
    64   33   38 ar  
    65   34   35 ar  
    66   35   36 ar  
    67   35   68 1   
    68   36   37 ar  
    69   36   69 1   
    70   37   38 ar  
    71   37   70 1   
    72   38   39 1   
    73   39   71 1   
@<TRIPOS>SUBSTRUCTURE
     1 PYW         1 TEMP              0 ****  ****    0 ROOT
