@<TRIPOS>MOLECULE
PYW
   73    75     1     0     0
SMALL
bcc


@<TRIPOS>ATOM
      1 CAO        -0.5800    0.7620   -0.4400 ca        1 PYW     -0.094000
      2 CAK         0.6710    1.1030   -0.9500 ca        1 PYW     -0.247300
      3 CAM         1.8180    0.7890   -0.1930 ca        1 PYW      0.433200
      4 NAT         1.7640    0.1750    1.0050 nb        1 PYW     -0.640000
      5 CAQ         0.5510   -0.1470    1.4870 ca        1 PYW      0.432200
      6 CBF        -0.6560    0.1160    0.8020 ca        1 PYW     -0.265600
      7 CAS        -1.9610   -0.2390    1.4190 c3        1 PYW     -0.023100
      8 CBL        -2.3110   -1.7110    1.1450 c3        1 PYW      0.145500
      9 NAV        -3.5690   -1.9520    0.3240 n4        1 PYW     -0.667800
     10 C          -4.7220   -1.0140    0.4050 c         1 PYW      0.537100
     11 O          -4.8090   -0.1670    1.2780 o         1 PYW     -0.355100
     12 CBK        -2.2160   -2.6340    2.4010 c3        1 PYW      0.138100
     13 OAJ        -1.0150   -2.2130    3.0260 oh        1 PYW     -0.578800
     14 CBJ        -3.3360   -2.6640    3.4550 c3        1 PYW     -0.152700
     15 CAD        -3.6760   -1.3230    4.0560 c3        1 PYW     -0.101100
     16 CBD        -4.5180   -3.4170    2.9120 c         1 PYW      0.631100
     17 OAH        -4.5020   -4.2030    1.9530 o         1 PYW     -0.579000
     18 OAX        -5.6980   -3.1660    3.5480 os        1 PYW     -0.301200
     19 CBE        -6.8450   -3.8380    3.1010 ce        1 PYW     -0.085100
     20 CAZ        -7.5520   -4.6090    3.9740 c2        1 PYW      0.101600
     21 CAB        -8.8460   -5.2080    3.5830 c3        1 PYW     -0.109900
     22 CAR        -7.0660   -4.8780    5.3550 c3        1 PYW     -0.076200
     23 CAA        -7.9520   -4.2360    6.3980 c3        1 PYW     -0.095100
     24 CBA        -7.2580   -3.5810    1.7280 c         1 PYW      0.681300
     25 OAE        -8.2770   -3.8840    1.1170 o         1 PYW     -0.492000
     26 OG1        -6.2950   -2.8730    0.9950 os        1 PYW     -0.502900
     27 CB         -6.5800   -2.5850   -0.3720 c3        1 PYW      0.138100
     28 CG2        -6.0780   -3.7050   -1.2580 c3        1 PYW     -0.155100
     29 CA         -5.8860   -1.2030   -0.5960 c3        1 PYW      0.026500
     30 N          -5.5530   -0.9550   -2.0250 n4        1 PYW     -0.680800
     31 CBB        -4.6090    0.2390   -2.2260 c         1 PYW      0.506600
     32 OAF        -3.4730    0.0100   -1.8220 o         1 PYW     -0.488100
     33 CBH        -5.1590    1.4270   -2.8530 ca        1 PYW      0.217800
     34 NAU        -6.4810    1.4380   -3.2440 nb        1 PYW     -0.660000
     35 CAN        -6.9540    2.5230   -3.8280 ca        1 PYW      0.412200
     36 CAL        -6.1640    3.6960   -4.0790 ca        1 PYW     -0.097300
     37 CAP        -4.8450    3.7050   -3.6900 ca        1 PYW     -0.182000
     38 CBG        -4.3080    2.5490   -3.0550 ca        1 PYW      0.170800
     39 OAI        -3.0310    2.4540   -2.6230 oh        1 PYW     -0.457100
     40 HAO        -1.4940    1.0080   -1.0040 ha        1 PYW      0.130000
     41 HAK         0.7720    1.6100   -1.9190 ha        1 PYW      0.154000
     42 HAM         2.8310    1.0440   -0.5580 h4        1 PYW      0.050100
     43 HAQ         0.5400   -0.6420    2.4790 h4        1 PYW      0.045100
     44 HAS1       -2.7410    0.4680    1.0330 hc        1 PYW      0.088700
     45 HAS2       -1.9050   -0.0950    2.5360 hc        1 PYW      0.088700
     46 HBL        -1.4860   -2.1150    0.4640 hx        1 PYW      0.119700
     47 HAV        -3.9390   -2.9010    0.5630 hn        1 PYW      0.482300
     48 HBK        -2.1020   -3.6930    2.0130 h1        1 PYW      0.070700
     49 HA         -6.6400   -0.4000   -0.2900 hx        1 PYW      0.170700
     50 HAJ        -0.6820   -2.9570    3.5490 ho        1 PYW      0.446000
     51 HBJ        -2.9450   -3.3150    4.3020 hc        1 PYW      0.122700
     52 HAD1       -2.7550   -0.8790    4.5110 hc        1 PYW      0.069700
     53 HAD2       -4.4480   -1.4480    4.8570 hc        1 PYW      0.069700
     54 HAD3       -4.0750   -0.6150    3.2930 hc        1 PYW      0.069700
     55 HAB1       -8.7400   -5.7960    2.6340 hc        1 PYW      0.088367
     56 HAB2       -9.2400   -5.8830    4.3840 hc        1 PYW      0.088367
     57 HAB3       -9.6030   -4.4020    3.3900 hc        1 PYW      0.088367
     58 HAR1       -7.0550   -5.9940    5.5080 hc        1 PYW      0.075700
     59 HAR2       -6.0130   -4.5100    5.4840 hc        1 PYW      0.075700
     60 HAA1       -7.5840   -4.5110    7.4170 hc        1 PYW      0.056367
     61 HAA2       -9.0080   -4.5870    6.2980 hc        1 PYW      0.056367
     62 HAA3       -7.9360   -3.1240    6.3040 hc        1 PYW      0.056367
     63 HB         -7.6940   -2.4530   -0.5190 h1        1 PYW      0.133700
     64 HG21       -4.9660   -3.7850   -1.2630 hc        1 PYW      0.076033
     65 HG22       -6.4610   -3.6000   -2.3020 hc        1 PYW      0.076033
     66 HG23       -6.4810   -4.6750   -0.8530 hc        1 PYW      0.076033
     67 H          -6.4420   -0.7970   -2.5300 hn        1 PYW      0.481300
     68 HAN        -8.0220    2.4980   -4.1320 h4        1 PYW      0.074100
     69 HAL        -6.6280    4.5660   -4.5770 ha        1 PYW      0.200000
     70 HAP        -4.1970    4.5830   -3.8600 ha        1 PYW      0.192000
     71 HAI        -2.5510    3.2800   -2.8320 ho        1 PYW      0.477000
     72 HAV2       -3.2610   -1.9520   -0.6580 hn        1 PYW      0.482300
     73 H2         -5.1070   -1.7890   -2.4330 hn        1 PYW      0.481300
@<TRIPOS>BOND
     1    1    2 ar  
     2    1    6 ar  
     3    1   40 1   
     4    2    3 ar  
     5    2   41 1   
     6    3    4 ar  
     7    3   42 1   
     8    4    5 ar  
     9    5    6 ar  
    10    5   43 1   
    11    6    7 1   
    12    7    8 1   
    13    7   44 1   
    14    7   45 1   
    15    8    9 1   
    16    8   12 1   
    17    8   46 1   
    18    9   10 1   
    19    9   47 1   
    20    9   72 1   
    21   10   11 2   
    22   10   29 1   
    23   12   13 1   
    24   12   14 1   
    25   12   48 1   
    26   13   50 1   
    27   14   15 1   
    28   14   16 1   
    29   14   51 1   
    30   15   52 1   
    31   15   53 1   
    32   15   54 1   
    33   16   17 2   
    34   16   18 1   
    35   18   19 1   
    36   19   20 2   
    37   19   24 1   
    38   20   21 1   
    39   20   22 1   
    40   21   55 1   
    41   21   56 1   
    42   21   57 1   
    43   22   23 1   
    44   22   58 1   
    45   22   59 1   
    46   23   60 1   
    47   23   61 1   
    48   23   62 1   
    49   24   25 2   
    50   24   26 1   
    51   26   27 1   
    52   27   28 1   
    53   27   29 1   
    54   27   63 1   
    55   28   64 1   
    56   28   65 1   
    57   28   66 1   
    58   29   30 1   
    59   29   49 1   
    60   30   31 1   
    61   30   67 1   
    62   30   73 1   
    63   31   32 2   
    64   31   33 1   
    65   33   34 ar  
    66   33   38 ar  
    67   34   35 ar  
    68   35   36 ar  
    69   35   68 1   
    70   36   37 ar  
    71   36   69 1   
    72   37   38 ar  
    73   37   70 1   
    74   38   39 1   
    75   39   71 1   
@<TRIPOS>SUBSTRUCTURE
     1 PYW         1 TEMP              0 ****  ****    0 ROOT
