@<TRIPOS>MOLECULE
PYW
   73    75     1     0     0
SMALL
bcc


@<TRIPOS>ATOM
      1 CAO        -0.5810    0.7770   -0.4250 ca        1 PYW     -0.094000
      2 CAK         0.6710    1.1240   -0.9290 ca        1 PYW     -0.247300
      3 CAM         1.8150    0.8200   -0.1640 ca        1 PYW      0.433200
      4 NAT         1.7590    0.2090    1.0340 nb        1 PYW     -0.640000
      5 CAQ         0.5450   -0.1190    1.5110 ca        1 PYW      0.432200
      6 CBF        -0.6600    0.1340    0.8180 ca        1 PYW     -0.265600
      7 CAS        -1.9660   -0.2270    1.4290 c3        1 PYW     -0.023100
      8 CBL        -2.3060   -1.7020    1.1560 c3        1 PYW      0.145500
      9 NAV        -3.5580   -1.9520    0.3300 n4        1 PYW     -0.667800
     10 C          -4.7170   -1.0220    0.4030 c         1 PYW      0.537100
     11 O          -4.8130   -0.1740    1.2750 o         1 PYW     -0.355100
     12 CBK        -2.2110   -2.6220    2.4150 c3        1 PYW      0.138100
     13 OAJ        -1.0160   -2.1930    3.0440 oh        1 PYW     -0.578800
     14 CBJ        -3.3360   -2.6560    3.4630 c3        1 PYW     -0.152700
     15 CAD        -3.6870   -1.3170    4.0600 c3        1 PYW     -0.101100
     16 CBD        -4.5100   -3.4180    2.9160 c         1 PYW      0.631100
     17 OAH        -4.4860   -4.2060    1.9590 o         1 PYW     -0.579000
     18 OAX        -5.6950   -3.1720    3.5460 os        1 PYW     -0.301200
     19 CBE        -6.8360   -3.8520    3.0950 ce        1 PYW     -0.085100
     20 CAZ        -7.5430   -4.6230    3.9670 c2        1 PYW      0.101600
     21 CAB        -8.8320   -5.2310    3.5720 c3        1 PYW     -0.109900
     22 CAR        -7.0620   -4.8870    5.3510 c3        1 PYW     -0.076200
     23 CAA        -7.9560   -4.2450    6.3880 c3        1 PYW     -0.095100
     24 CBA        -7.2440   -3.6010    1.7200 c         1 PYW      0.681300
     25 OAE        -8.2580   -3.9110    1.1040 o         1 PYW     -0.492000
     26 OG1        -6.2820   -2.8880    0.9900 os        1 PYW     -0.502900
     27 CB         -6.5620   -2.6050   -0.3790 c3        1 PYW      0.138100
     28 CG2        -6.0500   -3.7240   -1.2600 c3        1 PYW     -0.155100
     29 CA         -5.8750   -1.2200   -0.6040 c3        1 PYW      0.026500
     30 N          -5.5360   -0.9730   -2.0310 n4        1 PYW     -0.680800
     31 CBB        -4.5990    0.2260   -2.2300 c         1 PYW      0.506600
     32 OAF        -3.4630    0.0050   -1.8210 o         1 PYW     -0.488100
     33 CBH        -5.1520    1.4090   -2.8630 ca        1 PYW      0.217800
     34 NAU        -6.4730    1.4120   -3.2600 nb        1 PYW     -0.660000
     35 CAN        -6.9490    2.4930   -3.8490 ca        1 PYW      0.412200
     36 CAL        -6.1650    3.6700   -4.0980 ca        1 PYW     -0.097300
     37 CAP        -4.8470    3.6870   -3.7040 ca        1 PYW     -0.182000
     38 CBG        -4.3070    2.5350   -3.0640 ca        1 PYW      0.170800
     39 OAI        -3.0310    2.4500   -2.6260 oh        1 PYW     -0.457100
     40 HAO        -1.4930    1.0160   -0.9950 ha        1 PYW      0.130000
     41 HAK         0.7740    1.6300   -1.8990 ha        1 PYW      0.154000
     42 HAM         2.8290    1.0810   -0.5250 h4        1 PYW      0.050100
     43 HAQ         0.5320   -0.6110    2.5040 h4        1 PYW      0.045100
     44 HAS1       -2.7480    0.4740    1.0370 hc        1 PYW      0.088700
     45 HAS2       -1.9170   -0.0810    2.5460 hc        1 PYW      0.088700
     46 HBL        -1.4750   -2.1030    0.4800 hx        1 PYW      0.119700
     47 HAV        -3.2460   -1.9520   -0.6510 hn        1 PYW      0.482300
     48 HBK        -2.0880   -3.6810    2.0290 h1        1 PYW      0.070700
     49 HA         -6.6350   -0.4200   -0.3030 hx        1 PYW      0.170700
     50 HAJ        -0.6800   -2.9330    3.5700 ho        1 PYW      0.446000
     51 HBJ        -2.9440   -3.3040    4.3130 hc        1 PYW      0.122700
     52 HAD1       -4.0860   -0.6120    3.2940 hc        1 PYW      0.069700
     53 HAD2       -4.4610   -1.4450    4.8570 hc        1 PYW      0.069700
     54 HAD3       -2.7690   -0.8660    4.5180 hc        1 PYW      0.069700
     55 HAB1       -8.7170   -5.8240    2.6270 hc        1 PYW      0.088367
     56 HAB2       -9.2280   -5.9030    4.3740 hc        1 PYW      0.088367
     57 HAB3       -9.5910   -4.4300    3.3680 hc        1 PYW      0.088367
     58 HAR1       -7.0470   -6.0020    5.5080 hc        1 PYW      0.075700
     59 HAR2       -6.0110   -4.5130    5.4840 hc        1 PYW      0.075700
     60 HAA1       -9.0090   -4.6010    6.2840 hc        1 PYW      0.056367
     61 HAA2       -7.9440   -3.1330    6.2900 hc        1 PYW      0.056367
     62 HAA3       -7.5910   -4.5140    7.4100 hc        1 PYW      0.056367
     63 HB         -7.6760   -2.4800   -0.5320 h1        1 PYW      0.133700
     64 HG21       -6.4280   -3.6230   -2.3060 hc        1 PYW      0.076033
     65 HG22       -4.9370   -3.7970   -1.2600 hc        1 PYW      0.076033
     66 HG23       -6.4490   -4.6950   -0.8550 hc        1 PYW      0.076033
     67 H          -5.0840   -1.8050   -2.4340 hn        1 PYW      0.481300
     68 HAN        -8.0150    2.4610   -4.1580 h4        1 PYW      0.074100
     69 HAL        -6.6320    4.5360   -4.6010 ha        1 PYW      0.200000
     70 HAP        -4.2040    4.5680   -3.8730 ha        1 PYW      0.192000
     71 HAI        -2.5560    3.2780   -2.8340 ho        1 PYW      0.477000
     72 HAV2       -3.9230   -2.9040    0.5680 hn        1 PYW      0.482300
     73 H2         -6.4230   -0.8210   -2.5410 hn        1 PYW      0.481300
@<TRIPOS>BOND
     1    1    2 ar  
     2    1    6 ar  
     3    1   40 1   
     4    2    3 ar  
     5    2   41 1   
     6    3    4 ar  
     7    3   42 1   
     8    4    5 ar  
     9    5    6 ar  
    10    5   43 1   
    11    6    7 1   
    12    7    8 1   
    13    7   44 1   
    14    7   45 1   
    15    8    9 1   
    16    8   12 1   
    17    8   46 1   
    18    9   10 1   
    19    9   47 1   
    20    9   72 1   
    21   10   11 2   
    22   10   29 1   
    23   12   13 1   
    24   12   14 1   
    25   12   48 1   
    26   13   50 1   
    27   14   15 1   
    28   14   16 1   
    29   14   51 1   
    30   15   52 1   
    31   15   53 1   
    32   15   54 1   
    33   16   17 2   
    34   16   18 1   
    35   18   19 1   
    36   19   20 2   
    37   19   24 1   
    38   20   21 1   
    39   20   22 1   
    40   21   55 1   
    41   21   56 1   
    42   21   57 1   
    43   22   23 1   
    44   22   58 1   
    45   22   59 1   
    46   23   60 1   
    47   23   61 1   
    48   23   62 1   
    49   24   25 2   
    50   24   26 1   
    51   26   27 1   
    52   27   28 1   
    53   27   29 1   
    54   27   63 1   
    55   28   64 1   
    56   28   65 1   
    57   28   66 1   
    58   29   30 1   
    59   29   49 1   
    60   30   31 1   
    61   30   67 1   
    62   30   73 1   
    63   31   32 2   
    64   31   33 1   
    65   33   34 ar  
    66   33   38 ar  
    67   34   35 ar  
    68   35   36 ar  
    69   35   68 1   
    70   36   37 ar  
    71   36   69 1   
    72   37   38 ar  
    73   37   70 1   
    74   38   39 1   
    75   39   71 1   
@<TRIPOS>SUBSTRUCTURE
     1 PYW         1 TEMP              0 ****  ****    0 ROOT
