@<TRIPOS>MOLECULE
PYX
   35    35     1     0     0
SMALL
bcc


@<TRIPOS>ATOM
      1 N          -0.5700   -1.7290   -3.5780 n3        1 PYX     -0.898800
      2 CA         -0.9050   -0.6340   -2.6940 c3        1 PYX      0.022500
      3 C          -2.4220   -0.2120   -2.7690 c         1 PYX      0.921600
      4 O          -2.9980   -0.2710   -3.8850 o         1 PYX     -0.830300
      5 OXT        -2.9410    0.1810   -1.6880 o         1 PYX     -0.830300
      6 CB         -0.1110    0.6510   -2.8900 c3        1 PYX     -0.006300
      7 SG          1.6450    0.4930   -2.6620 ss        1 PYX     -0.234100
      8 SD          2.0000    0.7720   -0.6050 ss        1 PYX     -0.200100
      9 CE          1.6650   -0.8000    0.1650 c3        1 PYX      0.036000
     10 C1          1.3220   -0.5680    1.5830 ca        1 PYX     -0.149600
     11 C2          2.3090   -0.8010    2.5680 ca        1 PYX      0.364200
     12 C6          0.0460   -0.1660    2.0070 ca        1 PYX     -0.089300
     13 N3          2.1080   -0.6860    3.8890 nb        1 PYX     -0.659000
     14 C5         -0.1830   -0.0810    3.3950 ca        1 PYX      0.026800
     15 CM6        -1.0430    0.2140    1.0430 c3        1 PYX      0.180100
     16 C4          0.8740   -0.3370    4.3160 ca        1 PYX      0.372600
     17 O5         -1.3880    0.2720    3.9480 oh        1 PYX     -0.510100
     18 N6         -2.1170   -0.7540    0.9770 n3        1 PYX     -0.929800
     19 CM4         0.5880   -0.2010    5.7740 c3        1 PYX     -0.131400
     20 H           0.3170   -1.5640   -4.0160 hn        1 PYX      0.342800
     21 H2         -1.2710   -1.8010   -4.2960 hn        1 PYX      0.342800
     22 HA         -0.7280   -1.0060   -1.6420 h1        1 PYX      0.037700
     23 HB2        -0.5270    1.4350   -2.2120 h1        1 PYX      0.090700
     24 HB3        -0.1990    1.0110   -3.9480 h1        1 PYX      0.090700
     25 HE2         2.5750   -1.4450    0.0780 h1        1 PYX      0.084200
     26 HE3         0.8280   -1.3230   -0.3640 h1        1 PYX      0.084200
     27 HC2         3.3290   -1.1030    2.2710 h4        1 PYX      0.016100
     28 HM61       -1.4900    1.1930    1.3920 h1        1 PYX      0.053700
     29 HM62       -0.5800    0.4280    0.0310 h1        1 PYX      0.053700
     30 HO5        -2.0770    0.1890    3.2700 ho        1 PYX      0.452000
     31 HN61       -2.8220   -0.4130    0.3390 hn        1 PYX      0.377300
     32 HN62       -1.7700   -1.6210    0.6110 hn        1 PYX      0.377300
     33 HM41        0.4250    0.8790    6.0150 hc        1 PYX      0.048033
     34 HM42       -0.3520   -0.7570    6.0160 hc        1 PYX      0.048033
     35 HM43        1.4190   -0.5920    6.4080 hc        1 PYX      0.048033
@<TRIPOS>BOND
     1    1    2 1   
     2    1   20 1   
     3    1   21 1   
     4    2    3 1   
     5    2    6 1   
     6    2   22 1   
     7    3    4 1   
     8    3    5 1   
     9    6    7 1   
    10    6   23 1   
    11    6   24 1   
    12    7    8 1   
    13    8    9 1   
    14    9   10 1   
    15    9   25 1   
    16    9   26 1   
    17   10   11 ar  
    18   10   12 ar  
    19   11   13 ar  
    20   11   27 1   
    21   12   14 ar  
    22   12   15 1   
    23   13   16 ar  
    24   14   16 ar  
    25   14   17 1   
    26   15   18 1   
    27   15   28 1   
    28   15   29 1   
    29   16   19 1   
    30   17   30 1   
    31   18   31 1   
    32   18   32 1   
    33   19   33 1   
    34   19   34 1   
    35   19   35 1   
@<TRIPOS>SUBSTRUCTURE
     1 PYX         1 TEMP              0 ****  ****    0 ROOT
