@<TRIPOS>MOLECULE
PYY
   32    33     1     0     0
SMALL
bcc


@<TRIPOS>ATOM
      1 P           0.2890   -1.0530   -3.2920 p5        1 PYY      1.333900
      2 O1P        -0.8880   -1.9200   -2.9490 o         1 PYY     -0.931833
      3 O2P         0.4920   -0.6740   -4.7270 o         1 PYY     -0.931833
      4 O5'        -0.1440    0.4520   -2.5300 os        1 PYY     -0.560200
      5 C5'        -0.4460    0.3340   -1.2010 c3        1 PYY      0.228400
      6 C4'         0.7210    0.8530   -0.3250 c3        1 PYY      0.059100
      7 O4'         0.1840    1.4940    0.8560 os        1 PYY     -0.441600
      8 C1'         0.7410    0.9410    2.0440 c3        1 PYY      0.152400
      9 C1         -0.3300    0.2900    2.8710 ca        1 PYY     -0.070300
     10 C6         -0.1970    0.2330    4.2630 ca        1 PYY     -0.115000
     11 C2         -1.4650   -0.2640    2.2650 ca        1 PYY     -0.115000
     12 C3         -2.4500   -0.8660    3.0460 ca        1 PYY     -0.147000
     13 C4         -2.3130   -0.9200    4.4340 ca        1 PYY     -0.158000
     14 C5         -1.1850   -0.3700    5.0400 ca        1 PYY     -0.147000
     15 C2'         1.8530   -0.0640    1.6530 c3        1 PYY      0.111100
     16 O2'         3.1110    0.4390    2.0600 oh        1 PYY     -0.631800
     17 C3'         1.6900   -0.2550    0.1270 c3        1 PYY      0.132100
     18 O3'         2.9470   -0.1170   -0.4920 oh        1 PYY     -0.687800
     19 O3P         1.5370   -1.3530   -2.4830 o         1 PYY     -0.931833
     20 H5'1       -0.6810   -0.7350   -0.9300 h1        1 PYY     -0.002800
     21 H5'2       -1.3450    0.9760   -0.9570 h1        1 PYY     -0.002800
     22 H4'         1.2780    1.6520   -0.8840 h1        1 PYY      0.066700
     23 H1'         1.1830    1.8040    2.6190 h1        1 PYY      0.045700
     24 H6          0.6950    0.6630    4.7410 ha        1 PYY      0.154500
     25 H2         -1.5590   -0.2140    1.1630 ha        1 PYY      0.154500
     26 H3         -3.3340   -1.3050    2.5620 ha        1 PYY      0.113500
     27 H4         -3.0900   -1.3970    5.0460 ha        1 PYY      0.103000
     28 H5         -1.0710   -0.4140    6.1320 ha        1 PYY      0.113500
     29 H2'         1.7310   -1.0350    2.2010 h1        1 PYY      0.055700
     30 HO'2        3.5400    0.8220    1.2830 ho        1 PYY      0.427000
     31 H3'         1.2670   -1.2740   -0.0990 h1        1 PYY      0.106700
     32 H3T         2.8280   -0.4840   -1.4030 ho        1 PYY      0.514000
@<TRIPOS>BOND
     1    1    2 1   
     2    1    3 1   
     3    1    4 1   
     4    1   19 1   
     5    4    5 1   
     6    5    6 1   
     7    5   20 1   
     8    5   21 1   
     9    6    7 1   
    10    6   17 1   
    11    6   22 1   
    12    7    8 1   
    13    8    9 1   
    14    8   15 1   
    15    8   23 1   
    16    9   10 ar  
    17    9   11 ar  
    18   10   14 ar  
    19   10   24 1   
    20   11   12 ar  
    21   11   25 1   
    22   12   13 ar  
    23   12   26 1   
    24   13   14 ar  
    25   13   27 1   
    26   14   28 1   
    27   15   16 1   
    28   15   17 1   
    29   15   29 1   
    30   16   30 1   
    31   17   18 1   
    32   17   31 1   
    33   18   32 1   
@<TRIPOS>SUBSTRUCTURE
     1 PYY         1 TEMP              0 ****  ****    0 ROOT
