@<TRIPOS>MOLECULE
PYZ
    9     5     1     0     0
SMALL
bcc


@<TRIPOS>ATOM
      1 N1         -0.5500    0.0080   -1.2530 ne        1 PYZ     -0.341900
      2 N2          0.8220    0.0080   -1.2530 ne        1 PYZ     -0.341900
      3 C3          1.2400    0.0080    0.0300 c1        1 PYZ      0.116400
      4 C4          0.1360    0.0080    0.8330 c1        1 PYZ     -0.395000
      5 I4          0.1360   -0.0650    2.9390 i         1 PYZ      0.195000
      6 C5         -0.9680    0.0080    0.0300 c1        1 PYZ      0.116400
      7 HN1        -1.0860    0.0080   -1.9910 DU        1 PYZ      0.216667
      8 H3          2.1680    0.0080    0.3310 DU        1 PYZ      0.216667
      9 H5         -1.8970    0.0080    0.3320 DU        1 PYZ      0.216667
@<TRIPOS>BOND
     1    1    2 1   
     2    1    6 2   
     3    2    3 2   
     4    3    4 2   
     5    4    6 2   
@<TRIPOS>SUBSTRUCTURE
     1 PYZ         1 TEMP              0 ****  ****    0 ROOT
