@<TRIPOS>MOLECULE
PYZ
    9     9     1     0     0
SMALL
bcc


@<TRIPOS>ATOM
      1 N1          0.6340    0.0000    3.0030 na        1 PYZ     -0.017600
      2 N2         -0.7010    0.0000    3.0430 nc        1 PYZ     -0.513800
      3 C3         -1.1290    0.0010    1.7560 cd        1 PYZ      0.332200
      4 C4          0.0050    0.0010    0.8530 cd        1 PYZ     -0.174400
      5 I4         -0.0340    0.0010   -1.1250 i         1 PYZ     -0.090900
      6 C5          1.1270    0.0010    1.7010 cc        1 PYZ     -0.099300
      7 HN1         1.1610    0.0000    3.8450 hn        1 PYZ      0.324700
      8 H3         -2.1880    0.0010    1.4940 h4        1 PYZ      0.053100
      9 H5          2.1950    0.0010    1.4780 h4        1 PYZ      0.185000
@<TRIPOS>BOND
     1    1    2 1   
     2    1    6 1   
     3    1    7 1   
     4    2    3 2   
     5    3    4 1   
     6    3    8 1   
     7    4    5 1   
     8    4    6 2   
     9    6    9 1   
@<TRIPOS>SUBSTRUCTURE
     1 PYZ         1 TEMP              0 ****  ****    0 ROOT
