@<TRIPOS>MOLECULE
PZ1
   84    83     1     0     0
SMALL
bcc


@<TRIPOS>ATOM
      1 C1          3.0800   -1.4960    4.5590 c3        1 PZ1      0.000000
      2 O1          3.6560   -2.7720    4.7120 oh        1 PZ1     -0.311000
      3 C2          3.6430   -1.2810    2.1320 c2        1 PZ1     -0.039000
      4 C3          3.5080   -1.9740    0.9740 c2        1 PZ1     -0.172000
      5 C4          4.5650   -2.0010   -0.0810 c3        1 PZ1      0.034000
      6 O2          5.6400   -1.1420    0.3070 os        1 PZ1     -0.297000
      7 C5          2.5570   -1.2230    3.1440 c3        1 PZ1     -0.150000
      8 C6          1.3850   -2.0790    2.8200 c2        1 PZ1     -0.101000
      9 C7          1.3000   -2.7630    1.6580 c2        1 PZ1     -0.199000
     10 C8          2.3500   -2.7690    0.6800 c1        1 PZ1     -0.057000
     11 C20        15.8570    1.0820   -3.8710 c2        1 PZ1     -0.039000
     12 C21        17.1530    1.0930   -4.6470 c3        1 PZ1     -0.070000
     13 N2         17.4830   -0.1410   -5.3260 n3        1 PZ1     -0.188000
     14 C22        16.3520   -0.8570   -5.7730 c2        1 PZ1     -0.368000
     15 C23        15.0560   -0.7280   -5.3140 c2        1 PZ1      0.246000
     16 N3         14.8770    0.2640   -4.1730 n         1 PZ1     -0.018000
     17 C24        11.9900   -3.6380   -4.4680 c3        1 PZ1     -0.095000
     18 O6         11.4910   -4.7240   -5.2470 os        1 PZ1     -0.216000
     19 C25        12.5940    0.7270   -9.4740 c1        1 PZ1     -0.229500
     20 C26        13.6550    0.2280   -3.4620 c2        1 PZ1     -0.128000
     21 C27        13.4630    0.6870   -2.2020 c2        1 PZ1      0.011000
     22 C28        12.2260    0.5860   -1.5700 c1        1 PZ1     -0.205000
     23 C29        11.1660    0.4920   -1.0200 c1        1 PZ1      0.033000
     24 C30        12.9590    0.1280   -8.5050 c1        1 PZ1     -0.229500
     25 O7         10.0380    0.4420   -0.3390 os        1 PZ1     -0.113000
     26 C31         9.0080   -0.3570   -1.0020 c3        1 PZ1     -0.027000
     27 C32         7.8150   -0.3080   -0.0690 c3        1 PZ1     -0.171000
     28 C33         6.7070   -1.1770   -0.6380 c3        1 PZ1     -0.020000
     29 C34        10.1520   -0.7610   -6.5840 c3        1 PZ1      0.002000
     30 C9         10.1180   -6.6310   -5.5530 c3        1 PZ1     -0.205000
     31 C10         8.7310   -7.1280   -5.4760 c1        1 PZ1      0.013000
     32 C11         8.0170   -6.5660   -4.3450 c3        1 PZ1     -0.253000
     33 C12         9.4740   -5.2750   -2.2440 c2        1 PZ1      0.024000
     34 C13        10.1050   -5.3280   -3.3970 c1        1 PZ1     -0.367000
     35 C14        10.5590   -5.5250   -4.6190 c2        1 PZ1      0.108000
     36 C15         6.6320   -6.7410   -3.8820 c2        1 PZ1     -0.070000
     37 C16         6.2650   -6.0110   -2.8120 c2        1 PZ1     -0.229000
     38 C17         7.0440   -4.9530   -2.1470 c2        1 PZ1      0.021000
     39 N1          8.2670   -4.6340   -1.9380 n2        1 PZ1     -0.199000
     40 C18         8.8190   -2.3610   -7.9350 c2        1 PZ1     -0.223000
     41 C19         9.7580   -2.1300   -7.0230 c2        1 PZ1     -0.198000
     42 O3         11.0400   -0.7910   -5.4820 oh        1 PZ1     -0.358000
     43 H1C1        2.9940   -3.4250    4.4510 ho        1 PZ1      0.205000
     44 H1C2        2.2360   -1.3610    5.2900 h1        1 PZ1      0.093500
     45 H1C3        3.9120   -0.7810    4.8050 h1        1 PZ1      0.093500
     46 H4C1        4.9470   -3.0510   -0.2080 h1        1 PZ1      0.088000
     47 H4C2        4.1380   -1.6450   -1.0580 h1        1 PZ1      0.088000
     48 H5          4.5610   -0.7180    2.3730 ha        1 PZ1      0.156000
     49 H6          2.1790   -0.1500    3.1380 hc        1 PZ1      0.150000
     50 H7          0.5870   -2.1010    3.5800 ha        1 PZ1      0.130000
     51 H8          0.4070   -3.3660    1.4200 ha        1 PZ1      0.149000
     52 H20        12.4320   -4.0170   -3.5140 h1        1 PZ1      0.098667
     53 H211       15.7650    1.7970   -3.0300 h4        1 PZ1      0.155000
     54 H212       17.0430    1.8960   -5.4380 h1        1 PZ1      0.121000
     55 H2         17.9840    1.4000   -3.9530 h1        1 PZ1      0.121000
     56 H221       18.0480   -0.7330   -4.7350 hn        1 PZ1      0.145000
     57 H222       16.5550   -1.5910   -6.5650 h4        1 PZ1      0.184000
     58 H241       12.7740   -3.1740   -5.1220 h1        1 PZ1      0.098667
     59 H242       11.1690   -2.9100   -4.2530 h1        1 PZ1      0.098667
     60 H25        12.2700    1.2550  -10.3340 ha        1 PZ1      0.228500
     61 H27        12.8380   -0.2530   -4.0480 h4        1 PZ1      0.224000
     62 H28        14.2660    1.1500   -1.5970 ha        1 PZ1      0.136000
     63 H30        13.2920   -0.4070   -7.6430 ha        1 PZ1      0.228500
     64 H311        8.7830    0.1050   -1.9960 h1        1 PZ1      0.105000
     65 H312        9.3920   -1.4000   -1.1350 h1        1 PZ1      0.105000
     66 H321        7.4570    0.7470    0.0490 hc        1 PZ1      0.110000
     67 H322        8.1060   -0.6780    0.9490 hc        1 PZ1      0.110000
     68 H331        7.0600   -2.2350   -0.7780 h1        1 PZ1      0.078000
     69 H332        6.3470   -0.7750   -1.6230 h1        1 PZ1      0.078000
     70 H341       10.6270   -0.2030   -7.4400 h1        1 PZ1      0.091500
     71 H342        9.2610   -0.1840   -6.2140 h1        1 PZ1      0.091500
     72 H9         10.2880   -6.2810   -6.6140 hc        1 PZ1      0.159000
     73 H10        10.7910   -7.5260   -5.4080 hc        1 PZ1      0.159000
     74 H112        8.6220   -7.0010   -3.4740 hc        1 PZ1      0.140500
     75 H13         9.9590   -5.6780   -1.3270 h4        1 PZ1      0.151000
     76 H15         8.1370   -5.4350   -4.4350 hc        1 PZ1      0.140500
     77 H16         5.9680   -7.4570   -4.3830 ha        1 PZ1      0.151000
     78 H17         5.2540   -6.1310   -2.3850 ha        1 PZ1      0.142000
     79 H181        6.3460   -4.2080   -1.6780 h4        1 PZ1      0.131000
     80 H182        8.5470   -3.3760   -8.2530 ha        1 PZ1      0.109500
     81 H191        8.2600   -1.5560   -8.4300 ha        1 PZ1      0.109500
     82 H192       10.3100   -2.9540   -6.5330 ha        1 PZ1      0.141000
     83 H3         11.8600   -1.2080   -5.7870 ho        1 PZ1      0.228000
     84 O5         13.9920   -1.2740   -5.7040 o         1 PZ1     -0.470000
@<TRIPOS>BOND
     1    1    2 1   
     2    1    7 1   
     3    1   44 1   
     4    1   45 1   
     5    2   43 1   
     6    3    4 1   
     7    3    7 1   
     8    3   48 1   
     9    4    5 1   
    10    4   10 1   
    11    5    6 1   
    12    5   46 1   
    13    5   47 1   
    14    6   28 1   
    15    7    8 1   
    16    7   49 1   
    17    8    9 1   
    18    8   50 1   
    19    9   10 1   
    20    9   51 1   
    21   11   12 1   
    22   11   16 1   
    23   11   53 1   
    24   12   13 1   
    25   12   54 1   
    26   12   55 1   
    27   13   14 1   
    28   13   56 1   
    29   14   15 1   
    30   14   57 1   
    31   15   16 1   
    32   15   84 1   
    33   16   20 1   
    34   17   18 1   
    35   17   52 1   
    36   17   58 1   
    37   17   59 1   
    38   18   35 1   
    39   19   24 1   
    40   19   60 1   
    41   20   21 1   
    42   20   61 1   
    43   21   22 1   
    44   21   62 1   
    45   22   23 1   
    46   23   25 1   
    47   24   63 1   
    48   25   26 1   
    49   26   27 1   
    50   26   64 1   
    51   26   65 1   
    52   27   28 1   
    53   27   66 1   
    54   27   67 1   
    55   28   68 1   
    56   28   69 1   
    57   29   41 1   
    58   29   42 1   
    59   29   70 1   
    60   29   71 1   
    61   30   31 1   
    62   30   35 1   
    63   30   72 1   
    64   30   73 1   
    65   31   32 1   
    66   32   36 1   
    67   32   74 1   
    68   32   76 1   
    69   33   34 1   
    70   33   39 1   
    71   33   75 1   
    72   34   35 1   
    73   36   37 1   
    74   36   77 1   
    75   37   38 1   
    76   37   78 1   
    77   38   39 1   
    78   38   79 1   
    79   40   41 1   
    80   40   80 1   
    81   40   81 1   
    82   41   82 1   
    83   42   83 1   
@<TRIPOS>SUBSTRUCTURE
     1 PZ1         1 TEMP              0 ****  ****    0 ROOT
