@<TRIPOS>MOLECULE
PZ1
   84    88     1     0     0
SMALL
bcc


@<TRIPOS>ATOM
      1 C1        -11.2460    1.5200   -2.5060 c3        1 PZ1      0.114700
      2 O1        -10.0000    1.4500   -1.8230 os        1 PZ1     -0.334900
      3 C2        -10.0500    1.0480   -0.5000 ca        1 PZ1      0.121100
      4 C3         -8.7990    0.9940    0.1580 ca        1 PZ1     -0.111300
      5 C4         -7.5770    1.3680   -0.6090 c3        1 PZ1      0.185700
      6 O2         -6.4310    1.2120    0.2310 os        1 PZ1     -0.424600
      7 C5        -11.2280    0.7090    0.1740 ca        1 PZ1     -0.203000
      8 C6        -11.1610    0.3150    1.5100 ca        1 PZ1     -0.096000
      9 C7         -9.9360    0.2590    2.1680 ca        1 PZ1     -0.164000
     10 C8         -8.7620    0.5970    1.4930 ca        1 PZ1     -0.076000
     11 C20         4.5880    1.9290    0.4840 c3        1 PZ1      0.112700
     12 C21         6.0330    2.1920   -0.0100 c3        1 PZ1      0.151800
     13 N2          6.2930    3.6020   -0.1890 n3        1 PZ1     -0.820200
     14 C22         5.3920    4.2150   -1.1350 c3        1 PZ1      0.092800
     15 C23         3.9230    3.8120   -0.9870 c         1 PZ1      0.707500
     16 N3          3.5800    2.6780   -0.2520 n         1 PZ1     -0.379000
     17 C24         4.3490    0.4020    0.4070 c3        1 PZ1      0.108400
     18 O6          5.2810   -0.1620    1.3350 os        1 PZ1     -0.335900
     19 C25         1.2670    2.3910   -1.0250 ca        1 PZ1     -0.104500
     20 C26         2.2140    2.3890    0.0190 ca        1 PZ1      0.012600
     21 C27         1.7740    2.0980    1.3310 ca        1 PZ1     -0.104500
     22 C28         0.4440    1.8000    1.5840 ca        1 PZ1     -0.170000
     23 C29        -0.4850    1.8000    0.5270 ca        1 PZ1      0.117100
     24 C30        -0.0710    2.1010   -0.7740 ca        1 PZ1     -0.170000
     25 O7         -1.7760    1.4700    0.8880 os        1 PZ1     -0.327900
     26 C31        -2.7720    1.6550   -0.1250 c3        1 PZ1      0.130400
     27 C32        -4.1010    1.3640    0.5480 c3        1 PZ1     -0.091400
     28 C33        -5.2270    1.5500   -0.4530 c3        1 PZ1      0.135400
     29 C34         1.9350   -3.1350   -2.8340 c3        1 PZ1      0.133400
     30 C9          6.2350   -2.0280    2.4060 ce        1 PZ1     -0.155000
     31 C10         6.4680   -3.3530    2.4700 cf        1 PZ1     -0.073000
     32 C11         5.7600   -4.2870    1.6190 cf        1 PZ1     -0.171200
     33 C12         4.4020   -3.8420    1.1140 c3        1 PZ1      0.346900
     34 C13         4.4020   -2.3680    0.8010 c2        1 PZ1     -0.303200
     35 C14         5.2400   -1.5390    1.4610 ce        1 PZ1      0.136100
     36 C15         6.3000   -5.4790    1.2620 ce        1 PZ1     -0.042000
     37 C16         5.6680   -6.2890    0.2660 ce        1 PZ1     -0.283000
     38 C17         4.5300   -5.8340   -0.3380 c2        1 PZ1      0.114000
     39 N1          3.8500   -4.7070    0.0670 nh        1 PZ1     -0.658400
     40 C18         2.7700   -4.2230   -0.7570 c3        1 PZ1      0.211800
     41 C19         3.1750   -3.6120   -2.0990 c3        1 PZ1     -0.118400
     42 O3          2.3720   -2.5970   -4.0720 oh        1 PZ1     -0.598800
     43 H1C1      -11.7300    0.5140   -2.5480 h1        1 PZ1      0.044367
     44 H1C2      -11.9240    2.2610   -2.0170 h1        1 PZ1      0.044367
     45 H1C3      -10.9610    1.8640   -3.5330 h1        1 PZ1      0.044367
     46 H4C1       -7.4740    0.7070   -1.5130 h1        1 PZ1      0.044200
     47 H4C2       -7.6500    2.4380   -0.9500 h1        1 PZ1      0.044200
     48 H5        -12.2010    0.7500   -0.3340 ha        1 PZ1      0.136000
     49 H6        -12.0860    0.0490    2.0420 ha        1 PZ1      0.131000
     50 H7         -9.8880   -0.0520    3.2220 ha        1 PZ1      0.134000
     51 H8         -7.7900    0.5530    2.0120 ha        1 PZ1      0.155000
     52 H20         4.5380    2.2300    1.5750 h1        1 PZ1      0.071700
     53 H211        6.7290    1.7940    0.7810 h1        1 PZ1      0.053200
     54 H212        6.2050    1.5970   -0.9550 h1        1 PZ1      0.053200
     55 H2          7.2470    3.7590   -0.4580 hn        1 PZ1      0.378800
     56 H221        5.4400    5.3320   -0.9840 h1        1 PZ1      0.068700
     57 H222        5.6600    3.9960   -2.2120 h1        1 PZ1      0.068700
     58 H241        3.3030    0.1410    0.7190 h1        1 PZ1      0.055700
     59 H242        4.5510    0.0070   -0.6220 h1        1 PZ1      0.055700
     60 H25         1.5760    2.6540   -2.0500 ha        1 PZ1      0.149000
     61 H27         2.4820    2.1070    2.1740 ha        1 PZ1      0.149000
     62 H28         0.1020    1.5690    2.6030 ha        1 PZ1      0.145500
     63 H30        -0.7870    2.1200   -1.6080 ha        1 PZ1      0.145500
     64 H311       -2.5800    0.9400   -0.9680 h1        1 PZ1      0.039700
     65 H312       -2.7320    2.7080   -0.5080 h1        1 PZ1      0.039700
     66 H321       -4.2480    2.0500    1.4210 hc        1 PZ1      0.071700
     67 H322       -4.1090    0.3160    0.9440 hc        1 PZ1      0.071700
     68 H331       -5.0950    0.8740   -1.3400 h1        1 PZ1      0.028200
     69 H332       -5.2790    2.6130   -0.8090 h1        1 PZ1      0.028200
     70 H341        1.2280   -3.9890   -3.0170 h1        1 PZ1      0.022200
     71 H342        1.4010   -2.3450   -2.2390 h1        1 PZ1      0.022200
     72 H9          6.7700   -1.2880    3.0160 ha        1 PZ1      0.149000
     73 H10         7.2390   -3.7680    3.1380 ha        1 PZ1      0.134000
     74 H112        3.6760   -3.9660    1.9900 h1        1 PZ1      0.046700
     75 H13         3.6680   -1.9950    0.0770 ha        1 PZ1      0.138000
     76 H15         7.2530   -5.8270    1.6900 ha        1 PZ1      0.130000
     77 H16         6.1170   -7.2440   -0.0260 ha        1 PZ1      0.143000
     78 H17         4.0650   -6.3910   -1.1750 h4        1 PZ1      0.140000
     79 H181        2.0820   -5.0960   -0.9610 h1        1 PZ1      0.053700
     80 H182        2.1820   -3.4670   -0.1630 h1        1 PZ1      0.053700
     81 H191        3.8760   -2.7500   -1.9530 hc        1 PZ1      0.064700
     82 H192        3.7120   -4.3700   -2.7270 hc        1 PZ1      0.064700
     83 H3          1.5830   -2.2840   -4.5290 ho        1 PZ1      0.402000
     84 O5          3.0620    4.4920   -1.5750 o         1 PZ1     -0.631500
@<TRIPOS>BOND
     1    1    2 1   
     2    1   43 1   
     3    1   44 1   
     4    1   45 1   
     5    2    3 1   
     6    3    4 ar  
     7    3    7 ar  
     8    4    5 1   
     9    4   10 ar  
    10    5    6 1   
    11    5   46 1   
    12    5   47 1   
    13    6   28 1   
    14    7    8 ar  
    15    7   48 1   
    16    8    9 ar  
    17    8   49 1   
    18    9   10 ar  
    19    9   50 1   
    20   10   51 1   
    21   11   12 1   
    22   11   16 1   
    23   11   17 1   
    24   11   52 1   
    25   12   13 1   
    26   12   53 1   
    27   12   54 1   
    28   13   14 1   
    29   13   55 1   
    30   14   15 1   
    31   14   56 1   
    32   14   57 1   
    33   15   16 1   
    34   15   84 2   
    35   16   20 1   
    36   17   18 1   
    37   17   58 1   
    38   17   59 1   
    39   18   35 1   
    40   19   20 ar  
    41   19   24 ar  
    42   19   60 1   
    43   20   21 ar  
    44   21   22 ar  
    45   21   61 1   
    46   22   23 ar  
    47   22   62 1   
    48   23   24 ar  
    49   23   25 1   
    50   24   63 1   
    51   25   26 1   
    52   26   27 1   
    53   26   64 1   
    54   26   65 1   
    55   27   28 1   
    56   27   66 1   
    57   27   67 1   
    58   28   68 1   
    59   28   69 1   
    60   29   41 1   
    61   29   42 1   
    62   29   70 1   
    63   29   71 1   
    64   30   31 2   
    65   30   35 1   
    66   30   72 1   
    67   31   32 1   
    68   31   73 1   
    69   32   33 1   
    70   32   36 2   
    71   33   34 1   
    72   33   39 1   
    73   33   74 1   
    74   34   35 2   
    75   34   75 1   
    76   36   37 1   
    77   36   76 1   
    78   37   38 2   
    79   37   77 1   
    80   38   39 1   
    81   38   78 1   
    82   39   40 1   
    83   40   41 1   
    84   40   79 1   
    85   40   80 1   
    86   41   81 1   
    87   41   82 1   
    88   42   83 1   
@<TRIPOS>SUBSTRUCTURE
     1 PZ1         1 TEMP              0 ****  ****    0 ROOT
