@<TRIPOS>MOLECULE
PZ1
   84    83     1     0     0
SMALL
bcc


@<TRIPOS>ATOM
      1 C1          1.4620   -2.4250   -1.2810 c3        1 PZ1     -0.010000
      2 O1          1.6590   -2.9510    0.0140 oh        1 PZ1     -0.324000
      3 C2          3.3080   -0.7560   -1.1240 c2        1 PZ1     -0.125000
      4 C3          4.5980   -0.7430   -0.7800 c2        1 PZ1     -0.115000
      5 C4          5.4210    0.2540   -0.0200 c3        1 PZ1      0.007000
      6 O2          6.7750   -0.3000    0.0120 os        1 PZ1     -0.236000
      7 C5          2.7400   -1.8790   -1.9290 c3        1 PZ1     -0.086000
      8 C6          3.7040   -2.9860   -2.2040 c2        1 PZ1     -0.185000
      9 C7          5.0030   -2.9650   -1.8550 c2        1 PZ1     -0.097000
     10 C8          5.5250   -1.8370   -1.1340 c2        1 PZ1     -0.148000
     11 C20        13.2940   -0.9530   -2.8720 c2        1 PZ1     -0.082000
     12 C21        13.8560   -2.1530   -3.0620 c2        1 PZ1     -0.213000
     13 N2         13.1760    0.6520   -7.0050 n2        1 PZ1     -0.198000
     14 C22        12.1750    0.3150   -6.2920 c2        1 PZ1     -0.067000
     15 C23        12.3590   -0.6420   -5.1380 c2        1 PZ1      0.349000
     16 N3         12.7690   -0.1050   -3.8860 n         1 PZ1     -0.217000
     17 C24        12.0980   -4.9450   -5.8590 c3        1 PZ1     -0.079000
     18 O6         11.9980   -6.3200   -5.4900 os        1 PZ1     -0.212000
     19 C25        12.0970    2.1590   -4.4190 c1        1 PZ1     -0.672000
     20 C26        12.6320    1.2350   -3.6040 c2        1 PZ1      0.302000
     21 C27        14.6480    3.3180   -0.9790 c2        1 PZ1     -0.117000
     22 C28        13.6710    2.6670   -0.4310 c1        1 PZ1     -0.250000
     23 C29        12.6940    2.0370    0.1720 c2        1 PZ1      0.017000
     24 C30        11.6100    3.1030   -5.1000 c1        1 PZ1      0.152000
     25 O7         12.1610    0.8960   -0.4150 os        1 PZ1     -0.254000
     26 C31        10.9210    0.4660    0.1610 c3        1 PZ1     -0.018000
     27 C32         9.7880    1.4050   -0.1670 c3        1 PZ1     -0.258000
     28 C33         6.7560   -1.5260   -0.6500 c2        1 PZ1     -0.007000
     29 C34         8.7550   -1.5480   -5.2170 c3        1 PZ1     -0.016000
     30 C9         11.0620   -8.0870   -4.2230 c3        1 PZ1     -0.206000
     31 C10         9.8610   -8.6320   -3.5650 c1        1 PZ1      0.017000
     32 C11         9.0190   -7.5850   -3.0210 c3        1 PZ1     -0.245000
     33 C12        10.0650   -4.9000   -2.7440 c2        1 PZ1     -0.030000
     34 C13        10.6990   -5.6620   -3.6020 c1        1 PZ1     -0.315000
     35 C14        11.2190   -6.5900   -4.3850 c2        1 PZ1      0.110000
     36 C15         7.7570   -7.6380   -2.2630 c2        1 PZ1     -0.115000
     37 C16         7.2430   -6.4390   -1.9120 c2        1 PZ1     -0.169000
     38 C17         7.5870   -5.1460   -2.4440 c1        1 PZ1     -0.177000
     39 N1          8.6730   -4.5160   -2.8040 n3        1 PZ1     -0.079000
     40 C18         8.4980   -3.1550   -3.3320 c3        1 PZ1     -0.027000
     41 C19         8.9440   -2.9900   -4.7790 c3        1 PZ1     -0.224000
     42 O3          9.3210   -1.3070   -6.4910 oh        1 PZ1     -0.335000
     43 H1C1        2.4380   -3.5210   -0.0220 ho        1 PZ1      0.205000
     44 H1C2        1.0240   -3.2190   -1.9450 h1        1 PZ1      0.082500
     45 H1C3        0.7130   -1.5990   -1.1400 h1        1 PZ1      0.082500
     46 H4C1        5.4970    1.2450   -0.5310 h1        1 PZ1      0.109500
     47 H4C2        5.1000    0.3700    1.0450 h1        1 PZ1      0.109500
     48 H5          2.6060    0.0430   -0.8450 ha        1 PZ1      0.134000
     49 H6          2.4340   -1.4460   -2.9310 hc        1 PZ1      0.110000
     50 H7          3.2810   -3.8440   -2.7500 ha        1 PZ1      0.129000
     51 H8          5.6960   -3.7950   -2.0990 ha        1 PZ1      0.179000
     52 H20        12.4390   -4.3190   -4.9980 h1        1 PZ1      0.092000
     53 H211       13.2060   -0.5110   -1.8550 h4        1 PZ1      0.173000
     54 H212       14.2370   -2.7190   -2.2010 ha        1 PZ1      0.138500
     55 H2         13.9600   -2.6460   -4.0380 ha        1 PZ1      0.138500
     56 H221       12.9800    1.2580   -7.7750 hn        1 PZ1      0.172000
     57 H222       11.1060    0.6010   -6.4170 h4        1 PZ1      0.160000
     58 H241       12.8570   -4.9470   -6.6810 h1        1 PZ1      0.092000
     59 H242       11.1100   -4.5780   -6.2300 h1        1 PZ1      0.092000
     60 H25        12.9890    1.5330   -2.5830 h4        1 PZ1      0.182000
     61 H27        15.7030    3.0680   -0.7900 ha        1 PZ1      0.131500
     62 H28        14.4790    4.1660   -1.6630 ha        1 PZ1      0.131500
     63 H30        12.2670    2.3450    1.1380 h4        1 PZ1      0.153000
     64 H311       11.0410    0.3440    1.2690 h1        1 PZ1      0.091000
     65 H312       10.7680   -0.5420   -0.3130 h1        1 PZ1      0.091000
     66 H321        9.9200    2.3800    0.3600 hc        1 PZ1      0.095333
     67 H322        9.7500    1.6040   -1.2650 hc        1 PZ1      0.095333
     68 H331        8.8160    0.9490    0.1480 hc        1 PZ1      0.095333
     69 H332        7.7210   -2.0300   -0.6740 h4        1 PZ1      0.177000
     70 H341        7.6670   -1.2940   -5.3350 h1        1 PZ1      0.084000
     71 H342        9.2180   -0.8500   -4.4670 h1        1 PZ1      0.084000
     72 H9         11.1180   -8.5550   -5.2500 hc        1 PZ1      0.161000
     73 H10        11.9520   -8.4820   -3.6510 hc        1 PZ1      0.161000
     74 H112        9.7310   -7.1250   -2.2480 hc        1 PZ1      0.134000
     75 H13        10.5900   -4.4630   -1.8700 h4        1 PZ1      0.145000
     76 H15         8.8110   -6.8800   -3.8900 hc        1 PZ1      0.134000
     77 H16         7.3120   -8.6030   -1.9930 ha        1 PZ1      0.149000
     78 H17         6.3540   -6.3810   -1.2580 ha        1 PZ1      0.149000
     79 H181        7.4080   -2.8770   -3.2370 h1        1 PZ1      0.106000
     80 H182        9.1000   -2.4610   -2.6770 h1        1 PZ1      0.106000
     81 H191        8.3560   -3.6660   -5.4520 hc        1 PZ1      0.105500
     82 H192       10.0300   -3.2690   -4.8830 hc        1 PZ1      0.105500
     83 H3         10.2100   -1.6900   -6.4920 ho        1 PZ1      0.206000
     84 O5         12.1120   -1.8490   -5.2700 o         1 PZ1     -0.321000
@<TRIPOS>BOND
     1    1    2 1   
     2    1    7 1   
     3    1   44 1   
     4    1   45 1   
     5    2   43 1   
     6    3    4 1   
     7    3    7 1   
     8    3   48 1   
     9    4    5 1   
    10    4   10 1   
    11    5    6 1   
    12    5   46 1   
    13    5   47 1   
    14    6   28 1   
    15    7    8 1   
    16    7   49 1   
    17    8    9 1   
    18    8   50 1   
    19    9   10 1   
    20    9   51 1   
    21   10   28 1   
    22   11   12 1   
    23   11   16 1   
    24   11   53 1   
    25   12   54 1   
    26   12   55 1   
    27   13   14 1   
    28   13   56 1   
    29   14   15 1   
    30   14   57 1   
    31   15   16 1   
    32   15   84 1   
    33   16   20 1   
    34   17   18 1   
    35   17   52 1   
    36   17   58 1   
    37   17   59 1   
    38   18   35 1   
    39   19   20 1   
    40   19   24 1   
    41   20   60 1   
    42   21   22 1   
    43   21   61 1   
    44   21   62 1   
    45   22   23 1   
    46   23   25 1   
    47   23   63 1   
    48   25   26 1   
    49   26   27 1   
    50   26   64 1   
    51   26   65 1   
    52   27   66 1   
    53   27   67 1   
    54   27   68 1   
    55   28   69 1   
    56   29   41 1   
    57   29   42 1   
    58   29   70 1   
    59   29   71 1   
    60   30   31 1   
    61   30   35 1   
    62   30   72 1   
    63   30   73 1   
    64   31   32 1   
    65   32   36 1   
    66   32   74 1   
    67   32   76 1   
    68   33   34 1   
    69   33   39 1   
    70   33   75 1   
    71   34   35 1   
    72   36   37 1   
    73   36   77 1   
    74   37   38 1   
    75   37   78 1   
    76   38   39 1   
    77   39   40 1   
    78   40   41 1   
    79   40   79 1   
    80   40   80 1   
    81   41   81 1   
    82   41   82 1   
    83   42   83 1   
@<TRIPOS>SUBSTRUCTURE
     1 PZ1         1 TEMP              0 ****  ****    0 ROOT
