@<TRIPOS>MOLECULE
PZ1
   84    79     1     0     0
SMALL
bcc


@<TRIPOS>ATOM
      1 C1         -3.6190   -0.7010    0.9100 c3        1 PZ1     -0.088000
      2 O1         -3.1050    0.3710    1.7160 os        1 PZ1     -0.223000
      3 C2         -3.7230    0.4790    2.9630 c2        1 PZ1      0.080000
      4 C3         -3.0670    1.1290    4.0200 c1        1 PZ1     -0.105000
      5 C4         -1.6890    1.7510    3.7980 c2        1 PZ1      0.026000
      6 O2         -1.7950    3.1320    3.8000 os        1 PZ1     -0.282000
      7 C5         -4.9420   -0.1500    3.1850 c2        1 PZ1     -0.203000
      8 C6         -5.5130   -0.1400    4.4480 c1        1 PZ1     -0.095000
      9 C7         -4.8610    0.5070    5.5060 c1        1 PZ1     -0.166000
     10 C8         -3.6360    1.1420    5.2880 c2        1 PZ1     -0.075000
     11 C20         2.4820    1.0870   -3.8170 c3        1 PZ1     -0.030000
     12 C21         2.8820    0.6080   -5.1290 c3        1 PZ1     -0.095000
     13 N2          4.0710    1.2450   -5.6150 n3        1 PZ1     -0.275000
     14 C22         3.9900    2.6650   -5.6200 c3        1 PZ1     -0.100000
     15 C23         3.5140    3.1710   -4.1720 c2        1 PZ1      0.275000
     16 N3          2.3950    2.5370   -3.7200 n         1 PZ1     -0.288000
     17 O5          3.7440    4.2950   -3.8280 o         1 PZ1     -0.350000
     18 C24         1.0940    0.4840   -3.4780 c3        1 PZ1     -0.032000
     19 O6          1.1320   -0.1090   -2.1730 os        1 PZ1     -0.220000
     20 C25         0.8410    4.2880   -2.9770 c1        1 PZ1     -0.124167
     21 C26         1.5840    3.1490   -2.6850 c1        1 PZ1      0.023000
     22 C27         1.6970    2.7210   -1.3910 c1        1 PZ1     -0.107000
     23 C28         1.0680    3.4290   -0.3660 c1        1 PZ1     -0.187000
     24 C29         0.3280    4.5630   -0.6600 c1        1 PZ1      0.071000
     25 C30         0.2160    4.9890   -1.9590 c1        1 PZ1     -0.124167
     26 O7         -0.4360    5.2430    0.4060 os        1 PZ1     -0.219000
     27 C31         0.1960    5.2290    1.6530 c3        1 PZ1     -0.020000
     28 C32        -0.8510    5.0590    2.7590 c3        1 PZ1     -0.189000
     29 C33        -0.5670    3.8080    3.5220 c3        1 PZ1     -0.022000
     30 C34         0.7640   -4.5000    3.6640 c3        1 PZ1     -0.021000
     31 C9         -0.0450   -2.0660   -3.2960 c1        1 PZ1     -0.124167
     32 C10        -0.3060   -3.5820   -3.3540 c1        1 PZ1     -0.124167
     33 C11         0.4650   -4.5520   -2.3840 c1        1 PZ1     -0.161000
     34 C12         1.2530   -3.9950   -1.2240 c3        1 PZ1      0.083000
     35 C13         1.2780   -2.3990   -1.0310 c2        1 PZ1     -0.201000
     36 C14         0.7780   -1.4840   -2.1600 c1        1 PZ1      0.054000
     37 C15         0.0620   -6.0290   -2.2930 c1        1 PZ1     -0.066000
     38 C16         0.3870   -6.7880   -0.9190 c1        1 PZ1     -0.124167
     39 C17         0.9040   -5.9190    0.2950 c1        1 PZ1     -0.124167
     40 N1          0.9010   -4.5550    0.1360 n2        1 PZ1     -0.222000
     41 C18         0.9270   -3.6830    1.3160 c3        1 PZ1     -0.055000
     42 C19        -0.0180   -4.2190    2.3720 c3        1 PZ1     -0.181000
     43 O3         -0.0890   -5.1630    4.6080 oh        1 PZ1     -0.340000
     44 H1C1       -3.1480   -0.7350    0.0890 h1        1 PZ1      0.091000
     45 H1C2       -3.5060   -1.5520    1.3900 h1        1 PZ1      0.091000
     46 H1C3       -4.5830   -0.5480    0.7310 h1        1 PZ1      0.091000
     47 H4C1       -1.3460    1.4660    2.9670 h4        1 PZ1      0.082000
     48 H4C2       -1.1000    1.4750    4.4980 h4        1 PZ1      0.082000
     49 H5         -5.4000   -0.6060    2.4440 ha        1 PZ1      0.137000
     50 H6         -6.3820   -0.5900    4.6020 ha        1 PZ1      0.131000
     51 H7         -5.2800    0.5160    6.4300 ha        1 PZ1      0.134000
     52 H8         -3.1800    1.5930    6.0260 ha        1 PZ1      0.152000
     53 H20         3.1180    0.7760   -3.1720 h1        1 PZ1      0.096000
     54 H211        2.1200    0.7830   -5.7920 h1        1 PZ1      0.108500
     55 H212        3.0390   -0.3490   -5.0790 h1        1 PZ1      0.108500
     56 H2          4.7720    0.9860   -5.1160 hn        1 PZ1      0.160000
     57 H221        3.5020    3.0470   -6.3410 h1        1 PZ1      0.128500
     58 H222        4.8950    3.0250   -5.8070 h1        1 PZ1      0.128500
     59 H241        0.8710   -0.1830   -4.1230 h1        1 PZ1      0.111000
     60 H242        0.4090    1.2020   -3.4980 h1        1 PZ1      0.111000
     61 H25         0.7590    4.5960   -3.9040 ha        1 PZ1      0.146000
     62 H27         2.1960    1.9580   -1.1940 ha        1 PZ1      0.136000
     63 H28         1.1490    3.1250    0.5590 ha        1 PZ1      0.136000
     64 H30        -0.2950    5.7730   -2.1630 ha        1 PZ1      0.146000
     65 H311        0.6570    6.0360    1.7790 h1        1 PZ1      0.093500
     66 H312        0.8050    4.5110    1.6860 h1        1 PZ1      0.093500
     67 H321       -1.7230    5.0030    2.3700 hc        1 PZ1      0.110000
     68 H322       -0.8120    5.8550    3.3880 hc        1 PZ1      0.110000
     69 H331       -0.1270    4.0250    4.3450 h1        1 PZ1      0.068500
     70 H332        0.0140    3.2210    2.9840 h1        1 PZ1      0.068500
     71 H341        1.0830   -3.6450    4.0510 h1        1 PZ1      0.067500
     72 H342        1.5110   -5.0560    3.4680 h1        1 PZ1      0.067500
     73 H9         -0.3770   -1.4890   -4.0010 ha        1 PZ1      0.146000
     74 H10        -0.9220   -3.9460   -4.0180 ha        1 PZ1      0.146000
     75 H112        2.1930   -4.2610   -1.3930 h1        1 PZ1      0.106000
     76 H13         1.7170   -2.0090   -0.2420 ha        1 PZ1      0.143000
     77 H15        -0.0750   -6.5370   -3.1000 ha        1 PZ1      0.134000
     78 H16         0.0940   -7.7340   -0.7790 ha        1 PZ1      0.146000
     79 H17         0.9460   -6.2890    1.1490 ha        1 PZ1      0.146000
     80 H181        1.8190   -3.6510    1.6710 h1        1 PZ1      0.089000
     81 H182        0.6530   -2.8010    1.0650 h1        1 PZ1      0.089000
     82 H191       -0.7140   -3.5550    2.5500 hc        1 PZ1      0.109500
     83 H192       -0.4370   -5.0570    2.0500 hc        1 PZ1      0.109500
     84 H3          0.3950   -5.4230    5.3170 ho        1 PZ1      0.203000
@<TRIPOS>BOND
     1    1    2 1   
     2    1   44 1   
     3    1   45 1   
     4    1   46 1   
     5    2    3 1   
     6    3    4 1   
     7    3    7 1   
     8    4   10 1   
     9    5    6 1   
    10    5   47 1   
    11    5   48 1   
    12    6   29 1   
    13    7    8 1   
    14    7   49 1   
    15    8   50 1   
    16    9   10 1   
    17    9   51 1   
    18   10   52 1   
    19   11   12 1   
    20   11   16 1   
    21   11   18 1   
    22   11   53 1   
    23   12   13 1   
    24   12   54 1   
    25   12   55 1   
    26   13   14 1   
    27   13   56 1   
    28   14   15 1   
    29   14   57 1   
    30   14   58 1   
    31   15   16 1   
    32   15   17 1   
    33   16   21 1   
    34   18   19 1   
    35   18   59 1   
    36   18   60 1   
    37   19   36 1   
    38   20   25 1   
    39   20   61 1   
    40   21   22 1   
    41   22   62 1   
    42   23   24 1   
    43   23   63 1   
    44   24   26 1   
    45   25   64 1   
    46   26   27 1   
    47   27   28 1   
    48   27   65 1   
    49   27   66 1   
    50   28   29 1   
    51   28   67 1   
    52   28   68 1   
    53   29   69 1   
    54   29   70 1   
    55   30   42 1   
    56   30   43 1   
    57   30   71 1   
    58   30   72 1   
    59   31   32 1   
    60   31   73 1   
    61   32   74 1   
    62   33   34 1   
    63   33   37 1   
    64   34   35 1   
    65   34   40 1   
    66   34   75 1   
    67   35   36 1   
    68   35   76 1   
    69   37   77 1   
    70   38   39 1   
    71   38   78 1   
    72   39   79 1   
    73   40   41 1   
    74   41   42 1   
    75   41   80 1   
    76   41   81 1   
    77   42   82 1   
    78   42   83 1   
    79   43   84 1   
@<TRIPOS>SUBSTRUCTURE
     1 PZ1         1 TEMP              0 ****  ****    0 ROOT
