@<TRIPOS>MOLECULE
PZ2
   41    44     1     0     0
SMALL
bcc


@<TRIPOS>ATOM
      1 C1         -0.2960    0.1970    0.5430 ca        1 PZ2     -0.286200
      2 C2          0.4180    1.3740    0.7760 ca        1 PZ2     -0.125300
      3 C3          0.7680    1.6250    2.1060 ca        1 PZ2      0.286200
      4 N4          0.4410    0.7800    3.1490 nb        1 PZ2     -0.284000
      5 N5         -0.2000   -0.2910    2.9960 nb        1 PZ2     -0.281000
      6 C6         -0.5940   -0.6310    1.7070 ca        1 PZ2      0.338800
      7 C7         -0.8870   -0.5310   -0.5670 cc        1 PZ2      0.348900
      8 N8         -1.3150   -1.7300    1.2190 na        1 PZ2     -0.089800
      9 N9         -1.4730   -1.6670   -0.1030 nd        1 PZ2     -0.487100
     10 C10         0.6860   -3.0580   -4.6500 ca        1 PZ2      0.108100
     11 C11        -0.6390   -3.1670   -4.1970 ca        1 PZ2     -0.037900
     12 C12        -1.1290   -2.1930   -3.3200 ca        1 PZ2     -0.080000
     13 C13        -0.3220   -1.1290   -2.9040 ca        1 PZ2     -0.081300
     14 C14         0.9950   -1.0340   -3.3690 ca        1 PZ2     -0.102000
     15 C15         1.5030   -1.9960   -4.2350 ca        1 PZ2     -0.130000
     16 C16         2.1600   -7.4050   -5.9420 ca        1 PZ2     -0.054300
     17 C17         2.4170   -7.7590   -4.6100 ca        1 PZ2     -0.119000
     18 C18         2.2500   -6.8180   -3.5880 ca        1 PZ2      0.016000
     19 C19         1.8280   -5.5130   -3.8810 ca        1 PZ2     -0.151000
     20 C20         1.5740   -5.1790   -5.2130 ca        1 PZ2      0.117100
     21 C21         1.7330   -6.1130   -6.2500 ca        1 PZ2     -0.124000
     22 C23         2.5100   -7.1830   -2.2390 cg        1 PZ2      0.234800
     23 N24         2.7220   -7.4830   -1.1350 n1        1 PZ2     -0.361800
     24 BR26       -1.7810   -4.5530   -4.7250 br        1 PZ2     -0.059100
     25 C27        -0.8720   -0.0920   -1.9840 c3        1 PZ2     -0.039400
     26 H2          0.6880    2.0630   -0.0340 ha        1 PZ2      0.152000
     27 H3          1.3320    2.5250    2.4000 h4        1 PZ2      0.038100
     28 HN8        -1.6390   -2.5150    1.7380 hn        1 PZ2      0.344700
     29 H12        -2.1630   -2.2620   -2.9420 ha        1 PZ2      0.160000
     30 H14         1.6350   -0.1990   -3.0470 ha        1 PZ2      0.141000
     31 H15         2.5340   -1.9310   -4.6120 ha        1 PZ2      0.157000
     32 H17         2.7480   -8.7800   -4.3710 ha        1 PZ2      0.147000
     33 H19         1.6940   -4.7720   -3.0790 ha        1 PZ2      0.158000
     34 H21         1.5220   -5.8140   -7.2870 ha        1 PZ2      0.157000
     35 H22         3.4430   -8.5400   -7.2250 hc        1 PZ2      0.050700
     36 H22A        1.8500   -8.0850   -7.9630 hc        1 PZ2      0.050700
     37 H22B        1.9300   -9.3970   -6.7120 hc        1 PZ2      0.050700
     38 H27        -1.9210    0.1670   -2.2990 hc        1 PZ2      0.068700
     39 H27A       -0.2570    0.8470   -2.0530 hc        1 PZ2      0.068700
     40 O25         1.2100   -3.9010   -5.6300 os        1 PZ2     -0.246200
     41 C22         2.3510   -8.4070   -7.0170 c3        1 PZ2     -0.057800
@<TRIPOS>BOND
     1    1    2 ar  
     2    1    6 ar  
     3    1    7 1   
     4    2    3 ar  
     5    2   26 1   
     6    3    4 ar  
     7    3   27 1   
     8    4    5 ar  
     9    5    6 ar  
    10    6    8 1   
    11    7    9 2   
    12    7   25 1   
    13    8    9 1   
    14    8   28 1   
    15   10   11 ar  
    16   10   15 ar  
    17   10   40 1   
    18   11   12 ar  
    19   11   24 1   
    20   12   13 ar  
    21   12   29 1   
    22   13   14 ar  
    23   13   25 1   
    24   14   15 ar  
    25   14   30 1   
    26   15   31 1   
    27   16   17 ar  
    28   16   21 ar  
    29   16   41 1   
    30   17   18 ar  
    31   17   32 1   
    32   18   19 ar  
    33   18   22 1   
    34   19   20 ar  
    35   19   33 1   
    36   20   21 ar  
    37   20   40 1   
    38   21   34 1   
    39   22   23 3   
    40   25   38 1   
    41   25   39 1   
    42   35   41 1   
    43   36   41 1   
    44   37   41 1   
@<TRIPOS>SUBSTRUCTURE
     1 PZ2         1 TEMP              0 ****  ****    0 ROOT
