@<TRIPOS>MOLECULE
PZ2
   41    44     1     0     0
SMALL
bcc


@<TRIPOS>ATOM
      1 C1         -4.6780   -0.9400    0.0960 ca        1 PZ2     -0.286200
      2 C2         -5.5770   -1.5370    0.9840 ca        1 PZ2     -0.125300
      3 C3         -6.4970   -2.4240    0.4190 ca        1 PZ2      0.286200
      4 N4         -6.5420   -2.7140   -0.9320 nb        1 PZ2     -0.284000
      5 N5         -5.7590   -2.2050   -1.7740 nb        1 PZ2     -0.281000
      6 C6         -4.8030   -1.3080   -1.3100 ca        1 PZ2      0.338800
      7 C7         -3.5730    0.0040    0.1160 cc        1 PZ2      0.348900
      8 N8         -3.8140   -0.5790   -1.9850 na        1 PZ2     -0.089800
      9 N9         -3.0990    0.1730   -1.1470 nd        1 PZ2     -0.487100
     10 C10         1.1610    0.1900    1.8710 ca        1 PZ2      0.108100
     11 C11         0.6940    1.1380    0.9460 ca        1 PZ2     -0.037900
     12 C12        -0.6870    1.2820    0.7740 ca        1 PZ2     -0.080000
     13 C13        -1.5870    0.5050    1.5100 ca        1 PZ2     -0.081300
     14 C14        -1.1050   -0.4310    2.4310 ca        1 PZ2     -0.102000
     15 C15         0.2650   -0.5950    2.6110 ca        1 PZ2     -0.130000
     16 C16         5.5980   -1.0360    0.6230 ca        1 PZ2     -0.054300
     17 C17         5.1220   -1.9130   -0.3610 ca        1 PZ2     -0.120000
     18 C18         3.7470   -2.1190   -0.5140 ca        1 PZ2      0.016000
     19 C19         2.8290   -1.4580    0.3140 ca        1 PZ2     -0.152000
     20 C20         3.3200   -0.5860    1.2880 ca        1 PZ2      0.118100
     21 C21         4.6980   -0.3650    1.4520 ca        1 PZ2     -0.125000
     22 C23         3.2700   -3.0090   -1.5160 cg        1 PZ2      0.234800
     23 N24         2.8810   -3.7370   -2.3360 n1        1 PZ2     -0.361800
     24 BR26        1.8400    2.2230   -0.0610 br        1 PZ2     -0.059100
     25 C27        -3.0550    0.6900    1.3250 c3        1 PZ2     -0.039400
     26 H2         -5.5630   -1.3230    2.0600 ha        1 PZ2      0.152000
     27 H3         -7.2490   -2.9500    1.0290 h4        1 PZ2      0.038100
     28 HN8        -3.5890   -0.6230   -2.9530 hn        1 PZ2      0.344700
     29 H12        -1.0780    2.0120    0.0460 ha        1 PZ2      0.160000
     30 H14        -1.8080   -1.0450    3.0150 ha        1 PZ2      0.141000
     31 H15         0.6580   -1.3240    3.3350 ha        1 PZ2      0.157000
     32 H17         5.8340   -2.4380   -1.0150 ha        1 PZ2      0.147000
     33 H19         1.7470   -1.6170    0.1960 ha        1 PZ2      0.158000
     34 H21         5.0480    0.3290    2.2300 ha        1 PZ2      0.157000
     35 H22         7.4250   -0.1580   -0.0610 hc        1 PZ2      0.051033
     36 H22A        7.2970   -0.3230    1.7400 hc        1 PZ2      0.051033
     37 H22B        7.6080   -1.7860    0.7140 hc        1 PZ2      0.051033
     38 H27        -3.2860    1.7900    1.2490 hc        1 PZ2      0.068700
     39 H27A       -3.6080    0.2900    2.2190 hc        1 PZ2      0.068700
     40 O25         2.5110    0.0780    2.2070 os        1 PZ2     -0.246200
     41 C22         7.0560   -0.8150    0.7670 c3        1 PZ2     -0.057800
@<TRIPOS>BOND
     1    1    2 ar  
     2    1    6 ar  
     3    1    7 1   
     4    2    3 ar  
     5    2   26 1   
     6    3    4 ar  
     7    3   27 1   
     8    4    5 ar  
     9    5    6 ar  
    10    6    8 1   
    11    7    9 2   
    12    7   25 1   
    13    8    9 1   
    14    8   28 1   
    15   10   11 ar  
    16   10   15 ar  
    17   10   40 1   
    18   11   12 ar  
    19   11   24 1   
    20   12   13 ar  
    21   12   29 1   
    22   13   14 ar  
    23   13   25 1   
    24   14   15 ar  
    25   14   30 1   
    26   15   31 1   
    27   16   17 ar  
    28   16   21 ar  
    29   16   41 1   
    30   17   18 ar  
    31   17   32 1   
    32   18   19 ar  
    33   18   22 1   
    34   19   20 ar  
    35   19   33 1   
    36   20   21 ar  
    37   20   40 1   
    38   21   34 1   
    39   22   23 3   
    40   25   38 1   
    41   25   39 1   
    42   35   41 1   
    43   36   41 1   
    44   37   41 1   
@<TRIPOS>SUBSTRUCTURE
     1 PZ2         1 TEMP              0 ****  ****    0 ROOT
