@<TRIPOS>MOLECULE
PZ2
   41    44     1     0     0
SMALL
bcc


@<TRIPOS>ATOM
      1 C1          0.0000    0.0000    0.0000 ca        1 PZ2     -0.376200
      2 C2          1.4010    0.0000    0.0000 ca        1 PZ2     -0.104300
      3 C3          2.0340    0.0000    1.2160 ca        1 PZ2      0.330200
      4 N4          1.3310    0.0000    2.3370 nb        1 PZ2     -0.244000
      5 N5          0.0460    0.0000    2.3600 nb        1 PZ2     -0.287000
      6 C6         -0.6690   -0.0000    1.2430 ca        1 PZ2      0.221800
      7 C7         -1.0330    0.0060   -1.0260 cc        1 PZ2      0.381900
      8 N8         -2.0080    0.0000    0.9640 na        1 PZ2      0.326200
      9 N9         -2.1880    0.0030   -0.4230 nd        1 PZ2     -0.600100
     10 C10        -0.5910   -4.0070   -3.9480 ca        1 PZ2      0.154100
     11 C11        -1.8140   -3.3520   -3.8940 ca        1 PZ2     -0.014900
     12 C12        -1.8810   -2.0510   -3.4320 ca        1 PZ2     -0.033000
     13 C13        -0.7310   -1.4030   -3.0210 ca        1 PZ2     -0.105300
     14 C14         0.4890   -2.0530   -3.0720 ca        1 PZ2     -0.040000
     15 C15         0.5610   -3.3530   -3.5350 ca        1 PZ2     -0.192000
     16 C16         2.7360   -6.4160   -5.5690 ca        1 PZ2     -0.080300
     17 C17         3.1800   -7.1250   -4.4730 ca        1 PZ2     -0.092000
     18 C18         2.3800   -7.2220   -3.3330 ca        1 PZ2      0.060000
     19 C19         1.1300   -6.6030   -3.3100 ca        1 PZ2     -0.100000
     20 C20         0.6940   -5.8930   -4.4160 ca        1 PZ2      0.117100
     21 C21         1.4970   -5.8010   -5.5450 ca        1 PZ2     -0.107000
     22 C23         2.8380   -7.9570   -2.1930 cg        1 PZ2      0.223800
     23 N24         3.2120   -8.5240   -1.2820 n1        1 PZ2     -0.367800
     24 Br26       -3.3870   -4.2390   -4.4580 br        1 PZ2     -0.097100
     25 C27        -0.8070    0.0140   -2.5150 c3        1 PZ2      0.037600
     26 H2          1.6580   -0.1250   -1.0450 ha        1 PZ2      0.127000
     27 H3          3.0020    0.4810    1.2910 h4        1 PZ2     -0.003900
     28 HN8        -2.6470    0.2970    1.6750 hn        1 PZ2      0.160700
     29 H12        -2.8900   -1.6840   -3.2870 ha        1 PZ2      0.130000
     30 H14         1.3750   -1.4480   -2.9280 ha        1 PZ2      0.105000
     31 H15         1.4680   -3.9020   -3.7540 ha        1 PZ2      0.129000
     32 H17         4.0840   -7.6340   -4.7850 ha        1 PZ2      0.126000
     33 H19         0.5830   -6.8540   -2.4090 ha        1 PZ2      0.133000
     34 H21         1.2320   -5.1050   -6.3310 ha        1 PZ2      0.122000
     35 H22         4.1980   -5.4100   -6.6600 hc        1 PZ2      0.019367
     36 H22A        3.1550   -5.7760   -7.6260 hc        1 PZ2      0.019367
     37 H22B        4.3700   -7.0720   -6.7710 hc        1 PZ2      0.019367
     38 H27        -1.6890    0.5880   -2.7720 hc        1 PZ2      0.034200
     39 H27A        0.0540    0.6620   -2.6260 hc        1 PZ2      0.034200
     40 O25        -0.5230   -5.2870   -4.3980 os        1 PZ2     -0.204200
     41 C22         3.6050   -6.3060   -6.7960 c3        1 PZ2      0.039200
@<TRIPOS>BOND
     1    1    2 ar  
     2    1    6 ar  
     3    1    7 1   
     4    2    3 ar  
     5    2   26 1   
     6    3    4 ar  
     7    3   27 1   
     8    4    5 ar  
     9    5    6 ar  
    10    6    8 1   
    11    7    9 2   
    12    7   25 1   
    13    8    9 1   
    14    8   28 1   
    15   10   11 ar  
    16   10   15 ar  
    17   10   40 1   
    18   11   12 ar  
    19   11   24 1   
    20   12   13 ar  
    21   12   29 1   
    22   13   14 ar  
    23   13   25 1   
    24   14   15 ar  
    25   14   30 1   
    26   15   31 1   
    27   16   17 ar  
    28   16   21 ar  
    29   16   41 1   
    30   17   18 ar  
    31   17   32 1   
    32   18   19 ar  
    33   18   22 1   
    34   19   20 ar  
    35   19   33 1   
    36   20   21 ar  
    37   20   40 1   
    38   21   34 1   
    39   22   23 3   
    40   25   38 1   
    41   25   39 1   
    42   35   41 1   
    43   36   41 1   
    44   37   41 1   
@<TRIPOS>SUBSTRUCTURE
     1 PZ2         1 TEMP              0 ****  ****    0 ROOT
