@<TRIPOS>MOLECULE
PZ2
   41    44     1     0     0
SMALL
bcc


@<TRIPOS>ATOM
      1 C1         -0.1290    0.1860    0.4720 ca        1 PZ2     -0.285200
      2 C2          1.0010    0.9640    0.7330 ca        1 PZ2     -0.125300
      3 C3          1.3430    1.1140    2.0800 ca        1 PZ2      0.286200
      4 N4          0.6270    0.5410    3.1140 nb        1 PZ2     -0.284000
      5 N5         -0.3970   -0.1660    2.9360 nb        1 PZ2     -0.281000
      6 C6         -0.8200   -0.3770    1.6280 ca        1 PZ2      0.338800
      7 C7         -0.9060   -0.2830   -0.6640 cc        1 PZ2      0.350900
      8 N8         -1.9070   -1.0950    1.1100 na        1 PZ2     -0.089800
      9 N9         -1.9440   -1.0400   -0.2210 nd        1 PZ2     -0.488100
     10 C10        -0.0330   -3.4480   -4.5100 ca        1 PZ2      0.120100
     11 C11        -1.3380   -3.0810   -4.1370 ca        1 PZ2     -0.032900
     12 C12        -1.5080   -1.9410   -3.3430 ca        1 PZ2     -0.075000
     13 C13        -0.4110   -1.1880   -2.9160 ca        1 PZ2     -0.092300
     14 C14         0.8810   -1.5750   -3.2880 ca        1 PZ2     -0.092000
     15 C15         1.0730   -2.7000   -4.0820 ca        1 PZ2     -0.161000
     16 C16         2.5010   -7.2130   -5.9450 ca        1 PZ2     -0.054300
     17 C17         2.9120   -7.5050   -4.6370 ca        1 PZ2     -0.117000
     18 C18         2.4050   -6.7690   -3.5600 ca        1 PZ2      0.014000
     19 C19         1.4840   -5.7350   -3.7720 ca        1 PZ2     -0.150000
     20 C20         1.0900   -5.4520   -5.0830 ca        1 PZ2      0.111100
     21 C21         1.5910   -6.1800   -6.1740 ca        1 PZ2     -0.125000
     22 C23         2.8260   -7.0720   -2.2360 cg        1 PZ2      0.231800
     23 N24         3.1720   -7.3200   -1.1530 n1        1 PZ2     -0.356800
     24 BR26       -2.8590   -4.0400   -4.6600 br        1 PZ2     -0.057100
     25 C27        -0.6210    0.0320   -2.0850 c3        1 PZ2     -0.037400
     26 H2          1.5860    1.4310   -0.0690 ha        1 PZ2      0.152000
     27 H3          2.2170    1.7060    2.3970 h4        1 PZ2      0.038100
     28 HN8        -2.5670   -1.6370    1.6210 hn        1 PZ2      0.344700
     29 H12        -2.5230   -1.6330   -3.0360 ha        1 PZ2      0.161000
     30 H14         1.7510   -0.9890   -2.9550 ha        1 PZ2      0.140000
     31 H15         2.0850   -3.0130   -4.3820 ha        1 PZ2      0.153000
     32 H17         3.6340   -8.3160   -4.4590 ha        1 PZ2      0.148000
     33 H19         1.0780   -5.1580   -2.9280 ha        1 PZ2      0.161000
     34 H21         1.2530   -5.9340   -7.1920 ha        1 PZ2      0.158000
     35 H22         2.4630   -8.9720   -7.1600 hc        1 PZ2      0.051700
     36 H22A        2.9220   -7.4560   -8.0430 hc        1 PZ2      0.051700
     37 H22B        4.1090   -8.2500   -6.9240 hc        1 PZ2      0.051700
     38 H27        -1.4770    0.6290   -2.5100 hc        1 PZ2      0.068200
     39 H27A        0.2950    0.6840   -2.1220 hc        1 PZ2      0.068200
     40 O25         0.1290   -4.4990   -5.4080 os        1 PZ2     -0.237200
     41 C22         3.0280   -8.0090   -7.0780 c3        1 PZ2     -0.058800
@<TRIPOS>BOND
     1    1    2 ar  
     2    1    6 ar  
     3    1    7 1   
     4    2    3 ar  
     5    2   26 1   
     6    3    4 ar  
     7    3   27 1   
     8    4    5 ar  
     9    5    6 ar  
    10    6    8 1   
    11    7    9 2   
    12    7   25 1   
    13    8    9 1   
    14    8   28 1   
    15   10   11 ar  
    16   10   15 ar  
    17   10   40 1   
    18   11   12 ar  
    19   11   24 1   
    20   12   13 ar  
    21   12   29 1   
    22   13   14 ar  
    23   13   25 1   
    24   14   15 ar  
    25   14   30 1   
    26   15   31 1   
    27   16   17 ar  
    28   16   21 ar  
    29   16   41 1   
    30   17   18 ar  
    31   17   32 1   
    32   18   19 ar  
    33   18   22 1   
    34   19   20 ar  
    35   19   33 1   
    36   20   21 ar  
    37   20   40 1   
    38   21   34 1   
    39   22   23 3   
    40   25   38 1   
    41   25   39 1   
    42   35   41 1   
    43   36   41 1   
    44   37   41 1   
@<TRIPOS>SUBSTRUCTURE
     1 PZ2         1 TEMP              0 ****  ****    0 ROOT
