@<TRIPOS>MOLECULE
PZ3
   94   100     1     0     0
SMALL
bcc


@<TRIPOS>ATOM
      1 CAA        -0.0510   -1.3840   -0.4470 c3        1 PZ3      0.109700
      2 CAB         5.8290   -1.6490   12.1910 c3        1 PZ3      0.017600
      3 OAC        12.2210    3.0930    4.1640 o         1 PZ3     -0.498100
      4 OAD        -2.9750    0.0490    9.3240 o         1 PZ3     -0.410000
      5 OAE         6.2720   -0.2910    3.3860 o         1 PZ3     -0.497200
      6 OAF         4.4580    0.0380    4.9710 os        1 PZ3     -0.241100
      7 CAH        -6.6370    0.2210   15.3780 ca        1 PZ3     -0.073000
      8 CAI        -5.4160    0.8820   15.5320 ca        1 PZ3     -0.120000
      9 CAJ        -7.0610   -0.1820   14.1100 ca        1 PZ3     -0.120000
     10 CAK        -4.6160    1.1380   14.4200 ca        1 PZ3     -0.095500
     11 CAL        -6.2660    0.0720   12.9940 ca        1 PZ3     -0.095500
     12 CAM         1.5690    2.0070    8.8780 ca        1 PZ3     -0.111500
     13 CAN         0.9390   -0.0530    7.7660 ca        1 PZ3     -0.111500
     14 CAO        13.2080    0.7040    6.8080 cc        1 PZ3     -0.192300
     15 CAP         0.5160    1.8600    9.7800 ca        1 PZ3     -0.103000
     16 CAQ        -0.1110   -0.2330    8.6620 ca        1 PZ3     -0.103000
     17 CAR         3.0460    0.2230    0.6180 ca        1 PZ3     -0.208000
     18 CAS         1.8330   -1.6450    1.6240 ca        1 PZ3     -0.208000
     19 CAT         9.4000   -0.5130    8.7870 ca        1 PZ3     -0.090000
     20 CAU         4.0140    0.1060    1.6030 ca        1 PZ3      0.000000
     21 CAV         2.8190   -1.7370    2.5990 ca        1 PZ3      0.000000
     22 CAW        12.2230    0.0520    7.6260 cc        1 PZ3     -0.267300
     23 CAX         8.1060   -0.7820    9.2000 ca        1 PZ3     -0.158000
     24 CAY         2.9930   -2.6290   10.1350 cc        1 PZ3      0.284200
     25 CAZ         3.4050   -2.3610   12.2660 cd        1 PZ3      0.384400
     26 CBA         8.5340    0.6230    6.8410 ca        1 PZ3     -0.069000
     27 CBB        -4.2110    1.0440   11.9550 c3        1 PZ3      0.185100
     28 CBC         2.9620    1.1790    6.9610 c3        1 PZ3     -0.069100
     29 CBE         6.1380    0.8570    6.3310 c3        1 PZ3      0.149100
     30 CBF         4.6290    0.2930    8.6070 c3        1 PZ3      0.186800
     31 NBG         2.4250   -2.7130   11.4020 nc        1 PZ3     -0.689000
     32 NBH        -3.2330   -0.0740   11.6880 n4        1 PZ3     -0.646800
     33 OBI         1.0390   -0.4680   -0.3820 os        1 PZ3     -0.315900
     34 OBK        11.1390    1.3970    6.1310 os        1 PZ3     -0.321800
     35 CBL        -2.4660    0.1730   10.4270 c         1 PZ3      0.612100
     36 CBM        -5.0400    0.7330   13.1480 ca        1 PZ3     -0.198300
     37 CBN         1.8020    1.0470    7.8830 ca        1 PZ3     -0.030300
     38 CBO        12.5180    1.5120    5.9150 cd        1 PZ3      0.144200
     39 CBP         1.9480   -0.6610    0.6290 ca        1 PZ3      0.184100
     40 CBQ        -0.2850    0.7190    9.6690 ca        1 PZ3      0.046100
     41 CBR         9.6290    0.2050    7.6030 ca        1 PZ3     -0.150500
     42 CBS         3.9210   -0.8750    2.6030 ca        1 PZ3     -0.223500
     43 CBT         7.2200    0.3520    7.2400 ca        1 PZ3     -0.108300
     44 CBU         4.3400   -2.2140   10.2300 cd        1 PZ3     -0.214900
     45 CBV        10.9790    0.4950    7.1870 cd        1 PZ3      0.336200
     46 CBW         6.9860   -0.3480    8.4470 ca        1 PZ3      0.145600
     47 CBX         3.9910    0.0630    7.2150 c3        1 PZ3      0.128500
     48 NBY         5.7000   -0.5840    9.0030 nh        1 PZ3     -0.647000
     49 NBZ         5.0270   -0.1140    6.1680 n3        1 PZ3     -0.447100
     50 NCA         4.5940   -2.0430   11.5970 na        1 PZ3     -0.177900
     51 SCB         5.1200   -1.0940    3.7700 sx        1 PZ3      0.635500
     52 HAA        -0.6150   -1.0480   -1.3550 h1        1 PZ3      0.050700
     53 HAAA        0.3210   -2.4290   -0.5770 h1        1 PZ3      0.050700
     54 HAAB       -0.6870   -1.3010    0.4670 h1        1 PZ3      0.050700
     55 HAB         6.6370   -2.3790   11.9120 h1        1 PZ3      0.062033
     56 HABA        5.7200   -1.6280   13.3070 h1        1 PZ3      0.062033
     57 HABB        6.1260   -0.6290   11.8240 h1        1 PZ3      0.062033
     58 HAG        14.0760    2.4160    4.7340 h4        1 PZ3      0.016200
     59 HAJ        -8.0280   -0.6950   13.9890 ha        1 PZ3      0.161000
     60 HAK        -3.6630    1.6740   14.5440 ha        1 PZ3      0.141500
     61 HAL        -6.6120   -0.2320   11.9940 ha        1 PZ3      0.141500
     62 HAM         2.2270    2.8870    8.9570 ha        1 PZ3      0.159000
     63 HAN         1.0990   -0.7890    6.9610 ha        1 PZ3      0.159000
     64 HAO        14.2860    0.5790    6.8860 ha        1 PZ3      0.168000
     65 HAP         0.3380    2.6010   10.5720 ha        1 PZ3      0.154000
     66 HAQ        -0.7840   -1.0980    8.5780 ha        1 PZ3      0.154000
     67 HAR         3.1190    0.9870   -0.1700 ha        1 PZ3      0.153000
     68 HAS         0.9810   -2.3380    1.6360 ha        1 PZ3      0.153000
     69 HAT        10.2530   -0.8570    9.3930 ha        1 PZ3      0.140000
     70 HAU         4.8860    0.7870    1.6050 ha        1 PZ3      0.147500
     71 HAV         2.7290   -2.5110    3.3790 ha        1 PZ3      0.147500
     72 HAW        12.4240   -0.6540    8.4270 ha        1 PZ3      0.165000
     73 HAX         7.9510   -1.3330   10.1430 ha        1 PZ3      0.132000
     74 HAY         2.4340   -2.8790    9.2360 h4        1 PZ3      0.034100
     75 HAZ         3.3170   -2.3270   13.3570 h5        1 PZ3      0.060100
     76 HBA         8.7160    1.1710    5.8990 ha        1 PZ3      0.167000
     77 HBB        -3.6080    1.9850   12.1070 hx        1 PZ3      0.115700
     78 HBBA       -4.8480    1.1570   11.0290 hx        1 PZ3      0.115700
     79 HBC         2.6010    1.1100    5.8970 hc        1 PZ3      0.080700
     80 HBCA        3.4530    2.1800    7.0810 hc        1 PZ3      0.080700
     81 HBE         5.7760    1.8550    6.7110 h1        1 PZ3      0.075700
     82 HBEA        6.5770    1.0410    5.3030 h1        1 PZ3      0.075700
     83 HBF         5.0070    1.3520    8.6750 h1        1 PZ3      0.064200
     84 HBFA        3.8010    0.1660    9.3640 h1        1 PZ3      0.064200
     85 HNBH       -2.5820   -0.1600   12.4800 hn        1 PZ3      0.472800
     86 HBX         3.4330   -0.9200    7.2240 h1        1 PZ3      0.058700
     87 OBJ        -1.1940    0.5140   10.7330 os        1 PZ3     -0.309200
     88 HAH        -7.2710    0.0230   16.2590 ha        1 PZ3      0.162000
     89 HBH2       -3.7490   -0.9580   11.5870 hn        1 PZ3      0.472800
     90 CBD         5.3270   -1.9880    9.1370 c3        1 PZ3      0.264100
     91 CAG        12.9690    2.4070    4.8580 c         1 PZ3      0.489400
     92 HAI        -5.0870    1.2060   16.5320 ha        1 PZ3      0.161000
     93 HBD         6.2590   -2.5890    9.3470 h1        1 PZ3      0.061700
     94 HBDA        4.8690   -2.3850    8.1830 h1        1 PZ3      0.061700
@<TRIPOS>BOND
     1    1   33 1   
     2    1   52 1   
     3    1   53 1   
     4    1   54 1   
     5    2   50 1   
     6    2   55 1   
     7    2   56 1   
     8    2   57 1   
     9    3   91 2   
    10    4   35 2   
    11    5   51 2   
    12    6   49 1   
    13    6   51 1   
    14    7    8 ar  
    15    7    9 ar  
    16    7   88 1   
    17    8   10 ar  
    18    8   92 1   
    19    9   11 ar  
    20    9   59 1   
    21   10   36 ar  
    22   10   60 1   
    23   11   36 ar  
    24   11   61 1   
    25   12   15 ar  
    26   12   37 ar  
    27   12   62 1   
    28   13   16 ar  
    29   13   37 ar  
    30   13   63 1   
    31   14   22 1   
    32   14   38 2   
    33   14   64 1   
    34   15   40 ar  
    35   15   65 1   
    36   16   40 ar  
    37   16   66 1   
    38   17   20 ar  
    39   17   39 ar  
    40   17   67 1   
    41   18   21 ar  
    42   18   39 ar  
    43   18   68 1   
    44   19   23 ar  
    45   19   41 ar  
    46   19   69 1   
    47   20   42 ar  
    48   20   70 1   
    49   21   42 ar  
    50   21   71 1   
    51   22   45 2   
    52   22   72 1   
    53   23   46 ar  
    54   23   73 1   
    55   24   31 1   
    56   24   44 2   
    57   24   74 1   
    58   25   31 2   
    59   25   50 1   
    60   25   75 1   
    61   26   41 ar  
    62   26   43 ar  
    63   26   76 1   
    64   27   32 1   
    65   27   36 1   
    66   27   77 1   
    67   27   78 1   
    68   28   37 1   
    69   28   47 1   
    70   28   79 1   
    71   28   80 1   
    72   29   43 1   
    73   29   49 1   
    74   29   81 1   
    75   29   82 1   
    76   30   47 1   
    77   30   48 1   
    78   30   83 1   
    79   30   84 1   
    80   32   35 1   
    81   32   85 1   
    82   32   89 1   
    83   33   39 1   
    84   34   38 1   
    85   34   45 1   
    86   35   87 1   
    87   38   91 1   
    88   40   87 1   
    89   41   45 1   
    90   42   51 1   
    91   43   46 ar  
    92   44   50 1   
    93   44   90 1   
    94   46   48 1   
    95   47   49 1   
    96   47   86 1   
    97   48   90 1   
    98   58   91 1   
    99   90   93 1   
   100   90   94 1   
@<TRIPOS>SUBSTRUCTURE
     1 PZ3         1 TEMP              0 ****  ****    0 ROOT
