@<TRIPOS>MOLECULE
PZ3
   93    99     1     0     0
SMALL
bcc


@<TRIPOS>ATOM
      1 CAA        -0.0050    7.7570    0.4180 c3        1 PZ3      0.109700
      2 CAB         0.6340   -4.3050    1.3500 c3        1 PZ3      0.030600
      3 OAC        -8.8970   -1.0440   -3.9330 o         1 PZ3     -0.505100
      4 OAD         6.1950    1.3320   -2.0480 o         1 PZ3     -0.563000
      5 OAE        -2.2560    1.4580    2.6930 o         1 PZ3     -0.653800
      6 OAF        -4.2470    1.7410    1.3680 o         1 PZ3     -0.653800
      7 CAH        10.6190   -3.0100   -2.0420 ca        1 PZ3     -0.120000
      8 CAI         9.9860   -2.3090   -3.0690 ca        1 PZ3     -0.129500
      9 CAJ        10.7060   -2.4490   -0.7670 ca        1 PZ3     -0.129500
     10 CAK         9.4390   -1.0500   -2.8240 ca        1 PZ3     -0.114000
     11 CAL        10.1630   -1.1900   -0.5210 ca        1 PZ3     -0.114000
     12 CAM         2.2650    0.5590   -1.6050 ca        1 PZ3     -0.118000
     13 CAN         2.1510    1.4630    0.6350 ca        1 PZ3     -0.118000
     14 CAO        -8.5290   -4.0830   -1.8570 cc        1 PZ3     -0.188300
     15 CAP         3.6420    0.3820   -1.4760 ca        1 PZ3     -0.124000
     16 CAQ         3.5240    1.2990    0.7850 ca        1 PZ3     -0.124000
     17 CAR        -2.7630    5.4310   -0.1330 ca        1 PZ3     -0.210500
     18 CAS        -0.7060    5.1380    1.1530 ca        1 PZ3     -0.210500
     19 CAT        -4.5000   -3.7730    0.0280 ca        1 PZ3     -0.087000
     20 CAU        -3.1420    4.1440    0.2080 ca        1 PZ3      0.018500
     21 CAV        -1.1150    3.8500    1.4760 ca        1 PZ3      0.018500
     22 CAW        -7.3560   -4.3020   -1.0570 cc        1 PZ3     -0.276300
     23 CAX        -3.2500   -3.4410    0.5240 ca        1 PZ3     -0.152000
     24 CAY         0.8830   -1.5280    3.6890 cc        1 PZ3      0.300200
     25 CAZ         2.1060   -3.2430    3.1020 cd        1 PZ3      0.383400
     26 CBA        -4.6950   -1.5690   -0.9340 ca        1 PZ3     -0.065000
     27 CBB         8.9650    0.8820   -1.2850 c3        1 PZ3      0.119300
     28 CBC         0.0470    1.3080   -0.7210 c3        1 PZ3     -0.053100
     29 CBE        -2.9850    0.1930   -0.7220 c3        1 PZ3      0.275100
     30 CBF        -0.5340   -1.0180    0.0280 c3        1 PZ3      0.182800
     31 NBG         2.0920   -2.1710    3.9250 nc        1 PZ3     -0.669000
     32 NBH         7.8310    0.9100   -0.3900 n         1 PZ3     -0.501900
     33 OBI        -1.2380    7.2140   -0.0500 os        1 PZ3     -0.317900
     34 OBK        -7.1280   -2.3000   -2.1320 os        1 PZ3     -0.322800
     35 CBL         6.5530    0.9330   -0.9320 c         1 PZ3      0.728100
     36 CBM         9.5280   -0.4850   -1.5490 ca        1 PZ3     -0.134300
     37 CBN         1.5100    1.0930   -0.5550 ca        1 PZ3     -0.091300
     38 CBO        -8.3580   -2.8620   -2.4960 cd        1 PZ3      0.135200
     39 CBP        -1.5320    5.9310    0.3420 ca        1 PZ3      0.192100
     40 CBQ         4.2600    0.7500   -0.2770 ca        1 PZ3      0.115100
     41 CBR        -5.2340   -2.8410   -0.7220 ca        1 PZ3     -0.162500
     42 CBS        -2.3280    3.3280    1.0110 ca        1 PZ3     -0.427500
     43 CBT        -3.4400   -1.2140   -0.4290 ca        1 PZ3     -0.145300
     44 CBU         0.1440   -2.2240    2.7060 cd        1 PZ3     -0.226900
     45 CBV        -6.5280   -3.1990   -1.2480 cd        1 PZ3      0.352200
     46 CBW        -2.6790   -2.1630    0.2940 ca        1 PZ3      0.159600
     47 CBX        -0.7790    0.4920    0.2950 c3        1 PZ3      0.201500
     48 NBY        -1.3530   -1.9540    0.7580 nh        1 PZ3     -0.652000
     49 NBZ        -2.1860    0.8260    0.2900 n3        1 PZ3     -0.805500
     50 NCA         0.9310   -3.3250    2.3400 na        1 PZ3     -0.188900
     51 SCB        -2.8380    1.7880    1.4460 sy        1 PZ3      1.511200
     52 HAA         0.0040    7.8050    1.5330 h1        1 PZ3      0.052033
     53 HAAA        0.8570    7.1560    0.0400 h1        1 PZ3      0.052033
     54 HAAB        0.0050    8.7860   -0.0240 h1        1 PZ3      0.052033
     55 HAB        -0.4410   -4.6210    1.4380 h1        1 PZ3      0.053700
     56 HABA        0.7980   -3.8820    0.3210 h1        1 PZ3      0.053700
     57 HABB        1.2990   -5.1970    1.4930 h1        1 PZ3      0.053700
     58 HAG       -10.1660   -2.6320   -3.6400 h4        1 PZ3      0.011200
     59 HAI         9.9170   -2.7500   -4.0740 ha        1 PZ3      0.135500
     60 HAJ        11.2040   -3.0000    0.0440 ha        1 PZ3      0.135500
     61 HAK         8.9360   -0.5020   -3.6350 ha        1 PZ3      0.136000
     62 HAL        10.2380   -0.7450    0.4830 ha        1 PZ3      0.136000
     63 HAM         1.7720    0.2760   -2.5480 ha        1 PZ3      0.135000
     64 HAN         1.5650    1.8920    1.4620 ha        1 PZ3      0.135000
     65 HAO        -9.3800   -4.7540   -1.9370 ha        1 PZ3      0.164000
     66 HAP         4.2410   -0.0150   -2.3080 ha        1 PZ3      0.157000
     67 HAQ         4.0310    1.5750    1.7200 ha        1 PZ3      0.157000
     68 HAR        -3.4010    6.0710   -0.7590 ha        1 PZ3      0.154000
     69 HAS         0.2500    5.5220    1.5350 ha        1 PZ3      0.154000
     70 HAT        -4.9170   -4.7740    0.2170 ha        1 PZ3      0.138000
     71 HAU        -4.1150    3.7510   -0.1420 ha        1 PZ3      0.154000
     72 HAV        -0.4760    3.2250    2.1260 ha        1 PZ3      0.154000
     73 HAW        -7.1660   -5.1640   -0.4240 ha        1 PZ3      0.165000
     74 HAX        -2.6880   -4.1930    1.1010 ha        1 PZ3      0.139000
     75 HAY         0.5950   -0.6230    4.2230 h4        1 PZ3      0.048100
     76 HAZ         2.9130   -3.9770    3.0190 h5        1 PZ3      0.058100
     77 HBA        -5.2840   -0.8280   -1.5020 ha        1 PZ3      0.157000
     78 HBB         8.6710    1.3740   -2.2570 h1        1 PZ3      0.078700
     79 HBBA        9.7660    1.5140   -0.7980 h1        1 PZ3      0.078700
     80 HBC        -0.1730    2.4020   -0.5760 hc        1 PZ3      0.058200
     81 HBCA       -0.2700    1.0390   -1.7630 hc        1 PZ3      0.058200
     82 HBE        -2.4090    0.1730   -1.6950 h1        1 PZ3      0.065200
     83 HBEA       -3.9040    0.8340   -0.8860 h1        1 PZ3      0.065200
     84 HBF        -0.6670   -1.2230   -1.0710 h1        1 PZ3      0.070200
     85 HBFA        0.5400   -1.2280    0.3030 h1        1 PZ3      0.070200
     86 HNBH        7.9290    0.3850    0.4540 hn        1 PZ3      0.313500
     87 HBX        -0.3820    0.7290    1.3320 h1        1 PZ3      0.072700
     88 CBD        -1.2220   -1.9110    2.2120 c3        1 PZ3      0.254100
     89 CAG        -9.1990   -2.1230   -3.4240 c         1 PZ3      0.491400
     90 OBJ         5.6040    0.4930   -0.0150 os        1 PZ3     -0.371200
     91 HAH        11.0490   -4.0030   -2.2360 ha        1 PZ3      0.134000
     92 HBD        -1.9430   -2.6640    2.6480 h1        1 PZ3      0.070200
     93 HBDA       -1.4980   -0.8900    2.6210 h1        1 PZ3      0.070200
@<TRIPOS>BOND
     1    1   33 1   
     2    1   52 1   
     3    1   53 1   
     4    1   54 1   
     5    2   50 1   
     6    2   55 1   
     7    2   56 1   
     8    2   57 1   
     9    3   89 2   
    10    4   35 2   
    11    5   51 2   
    12    6   51 2   
    13    7    8 ar  
    14    7    9 ar  
    15    7   91 1   
    16    8   10 ar  
    17    8   59 1   
    18    9   11 ar  
    19    9   60 1   
    20   10   36 ar  
    21   10   61 1   
    22   11   36 ar  
    23   11   62 1   
    24   12   15 ar  
    25   12   37 ar  
    26   12   63 1   
    27   13   16 ar  
    28   13   37 ar  
    29   13   64 1   
    30   14   22 1   
    31   14   38 2   
    32   14   65 1   
    33   15   40 ar  
    34   15   66 1   
    35   16   40 ar  
    36   16   67 1   
    37   17   20 ar  
    38   17   39 ar  
    39   17   68 1   
    40   18   21 ar  
    41   18   39 ar  
    42   18   69 1   
    43   19   23 ar  
    44   19   41 ar  
    45   19   70 1   
    46   20   42 ar  
    47   20   71 1   
    48   21   42 ar  
    49   21   72 1   
    50   22   45 2   
    51   22   73 1   
    52   23   46 ar  
    53   23   74 1   
    54   24   31 1   
    55   24   44 2   
    56   24   75 1   
    57   25   31 2   
    58   25   50 1   
    59   25   76 1   
    60   26   41 ar  
    61   26   43 ar  
    62   26   77 1   
    63   27   32 1   
    64   27   36 1   
    65   27   78 1   
    66   27   79 1   
    67   28   37 1   
    68   28   47 1   
    69   28   80 1   
    70   28   81 1   
    71   29   43 1   
    72   29   49 1   
    73   29   82 1   
    74   29   83 1   
    75   30   47 1   
    76   30   48 1   
    77   30   84 1   
    78   30   85 1   
    79   32   35 1   
    80   32   86 1   
    81   33   39 1   
    82   34   38 1   
    83   34   45 1   
    84   35   90 1   
    85   38   89 1   
    86   40   90 1   
    87   41   45 1   
    88   42   51 1   
    89   43   46 ar  
    90   44   50 1   
    91   44   88 1   
    92   46   48 1   
    93   47   49 1   
    94   47   87 1   
    95   48   88 1   
    96   49   51 1   
    97   58   89 1   
    98   88   92 1   
    99   88   93 1   
@<TRIPOS>SUBSTRUCTURE
     1 PZ3         1 TEMP              0 ****  ****    0 ROOT
