@<TRIPOS>MOLECULE
PZA
   14    14     1     0     0
SMALL
bcc


@<TRIPOS>ATOM
      1 C          -0.0620   -0.0010    1.6710 c         1 PZA      0.574600
      2 N1          1.0740   -0.0010    2.4310 n         1 PZA     -0.651000
      3 O          -1.1890   -0.0000    2.2110 o         1 PZA     -0.615100
      4 C1          1.2240   -0.0010   -1.8000 ca        1 PZA      0.274900
      5 C2          0.0050   -0.0000   -2.5310 ca        1 PZA      0.303900
      6 N2         -1.1920    0.0000   -1.9150 nb        1 PZA     -0.633000
      7 C3         -1.1740    0.0000   -0.5660 ca        1 PZA      0.339900
      8 C4          0.0450   -0.0000    0.1710 ca        1 PZA      0.236500
      9 N3          1.2490   -0.0010   -0.4560 nb        1 PZA     -0.622000
     10 H1          0.9910   -0.0010    3.4170 hn        1 PZA      0.323500
     11 H2          1.9750   -0.0010    2.0260 hn        1 PZA      0.323500
     12 H5         -0.0010   -0.0000   -3.6340 h4        1 PZA      0.039100
     13 H4         -2.1470    0.0010   -0.0380 h4        1 PZA      0.066100
     14 H3          2.2010   -0.0010   -2.3120 h4        1 PZA      0.038100
@<TRIPOS>BOND
     1    1    2 1   
     2    1    3 2   
     3    1    8 1   
     4    2   10 1   
     5    2   11 1   
     6    4    5 ar  
     7    4    9 ar  
     8    4   14 1   
     9    5    6 ar  
    10    5   12 1   
    11    6    7 ar  
    12    7    8 ar  
    13    7   13 1   
    14    8    9 ar  
@<TRIPOS>SUBSTRUCTURE
     1 PZA         1 TEMP              0 ****  ****    0 ROOT
