@<TRIPOS>MOLECULE
PZA
   15    15     1     0     0
SMALL
bcc


@<TRIPOS>ATOM
      1 C          -0.0980   -0.0110    0.0290 c         1 PZA      0.477600
      2 N1          1.4160    0.0020    0.0040 n4        1 PZA     -0.745400
      3 O          -0.5980   -0.0200    1.1430 o         1 PZA     -0.401100
      4 C1         -0.7180    0.0020   -3.5720 ca        1 PZA      0.309900
      5 C2         -2.1580   -0.0100   -3.5920 ca        1 PZA      0.380900
      6 N2         -2.8780   -0.0210   -2.4640 nb        1 PZA     -0.607000
      7 C3         -2.1930   -0.0210   -1.2930 ca        1 PZA      0.413900
      8 C4         -0.7750   -0.0100   -1.2740 ca        1 PZA      0.152500
      9 N3         -0.0340    0.0020   -2.4300 nb        1 PZA     -0.638000
     10 H1          1.7850   -0.0000    0.9630 hn        1 PZA      0.475800
     11 H2          1.7600   -0.8260   -0.4970 hn        1 PZA      0.475800
     12 H4         -2.7940   -0.0300   -0.3610 h4        1 PZA      0.078100
     13 H3         -0.1340    0.0110   -4.5130 h4        1 PZA      0.073100
     14 H13         1.7470    0.8390   -0.4890 hn        1 PZA      0.475800
     15 H5         -2.7150   -0.0100   -4.5510 h4        1 PZA      0.079100
@<TRIPOS>BOND
     1    1    2 1   
     2    1    3 2   
     3    1    8 1   
     4    2   10 1   
     5    2   11 1   
     6    2   14 1   
     7    4    5 ar  
     8    4    9 ar  
     9    4   13 1   
    10    5    6 ar  
    11    5   15 1   
    12    6    7 ar  
    13    7    8 ar  
    14    7   12 1   
    15    8    9 ar  
@<TRIPOS>SUBSTRUCTURE
     1 PZA         1 TEMP              0 ****  ****    0 ROOT
