@<TRIPOS>MOLECULE
PZB
   32    34     1     0     0
SMALL
bcc


@<TRIPOS>ATOM
      1 CAF        -0.2280    0.2110   -0.3790 ca        1 PZB     -0.170500
      2 CAD         0.8660   -0.6340   -0.2230 ca        1 PZB     -0.102000
      3 CAC         1.2430   -1.0810    1.0460 ca        1 PZB     -0.160000
      4 CAE         0.5210   -0.6820    2.1690 ca        1 PZB     -0.102000
      5 CAG        -0.5810    0.1630    2.0380 ca        1 PZB     -0.170500
      6 CAQ        -0.9460    0.6050    0.7630 ca        1 PZB      0.108100
      7 OAN        -2.0380    1.4350    0.5030 os        1 PZB     -0.206200
      8 CAR        -2.6580    1.9770    1.5990 cc        1 PZB     -0.088200
      9 CAJ        -2.2920    3.1540    2.2780 cd        1 PZB     -0.152300
     10 NAM        -3.3130    3.3820    3.1960 na        1 PZB     -0.013600
     11 NAL        -4.2820    2.4690    3.1420 nd        1 PZB     -0.485800
     12 CAT        -3.9350    1.5680    2.1710 cc        1 PZB      0.385800
     13 CAS        -4.7170    0.4060    1.7940 ca        1 PZB     -0.178500
     14 CAI        -4.0690   -0.8230    1.5960 ca        1 PZB     -0.043000
     15 CAH        -4.7690   -1.9700    1.2520 ca        1 PZB     -0.194000
     16 CAO        -6.1630   -1.8960    1.0950 ca        1 PZB      0.171100
     17 OAA        -6.8070   -3.0630    0.7610 oh        1 PZB     -0.493100
     18 CAK        -6.8450   -0.6880    1.2700 ca        1 PZB     -0.312000
     19 CAP        -6.1150    0.4610    1.6160 ca        1 PZB      0.193100
     20 OAB        -6.7370    1.6750    1.7700 oh        1 PZB     -0.475100
     21 H1         -0.5390    0.5700   -1.3690 ha        1 PZB      0.149500
     22 H2          1.4370   -0.9520   -1.1080 ha        1 PZB      0.133500
     23 H3          2.1100   -1.7480    1.1570 ha        1 PZB      0.133000
     24 H4          0.8170   -1.0360    3.1680 ha        1 PZB      0.133500
     25 H5         -1.1540    0.4800    2.9210 ha        1 PZB      0.149500
     26 H6         -1.4240    3.8020    2.1730 h4        1 PZB      0.187000
     27 H7         -3.3890    4.1490    3.8220 hn        1 PZB      0.326700
     28 H8         -2.9710   -0.8640    1.7100 ha        1 PZB      0.149000
     29 H9         -4.2540   -2.9290    1.0990 ha        1 PZB      0.155000
     30 H10        -7.7530   -2.8720    0.6770 ho        1 PZB      0.420000
     31 H11        -7.9340   -0.6340    1.1370 ha        1 PZB      0.135000
     32 H12        -7.6890    1.5430    1.6410 ho        1 PZB      0.417000
@<TRIPOS>BOND
     1    1    2 ar  
     2    1    6 ar  
     3    1   21 1   
     4    2    3 ar  
     5    2   22 1   
     6    3    4 ar  
     7    3   23 1   
     8    4    5 ar  
     9    4   24 1   
    10    5    6 ar  
    11    5   25 1   
    12    6    7 1   
    13    7    8 1   
    14    8    9 2   
    15    8   12 1   
    16    9   10 1   
    17    9   26 1   
    18   10   11 1   
    19   10   27 1   
    20   11   12 2   
    21   12   13 1   
    22   13   14 ar  
    23   13   19 ar  
    24   14   15 ar  
    25   14   28 1   
    26   15   16 ar  
    27   15   29 1   
    28   16   17 1   
    29   16   18 ar  
    30   17   30 1   
    31   18   19 ar  
    32   18   31 1   
    33   19   20 1   
    34   20   32 1   
@<TRIPOS>SUBSTRUCTURE
     1 PZB         1 TEMP              0 ****  ****    0 ROOT
