@<TRIPOS>MOLECULE
PZB
   32    34     1     0     0
SMALL
bcc


@<TRIPOS>ATOM
      1 CAF        -0.2260    0.1570   -0.3750 ca        1 PZB     -0.170500
      2 CAD         0.8730   -0.6750   -0.1850 ca        1 PZB     -0.102000
      3 CAC         1.2510   -1.0690    1.1000 ca        1 PZB     -0.160000
      4 CAE         0.5260   -0.6320    2.2070 ca        1 PZB     -0.102000
      5 CAG        -0.5810    0.2010    2.0420 ca        1 PZB     -0.170500
      6 CAQ        -0.9480    0.5910    0.7500 ca        1 PZB      0.108100
      7 OAN        -2.0440    1.4040    0.4570 os        1 PZB     -0.206200
      8 CAR        -2.6690    1.9840    1.5300 cc        1 PZB     -0.088200
      9 CAJ        -2.3110    3.1880    2.1630 cd        1 PZB     -0.152300
     10 NAM        -3.3350    3.4450    3.0710 na        1 PZB     -0.013600
     11 NAL        -4.2980    2.5240    3.0510 nd        1 PZB     -0.485800
     12 CAT        -3.9450    1.5890    2.1160 cc        1 PZB      0.385800
     13 CAS        -4.7190    0.4080    1.7840 ca        1 PZB     -0.178500
     14 CAI        -4.0620   -0.8230    1.6340 ca        1 PZB     -0.043000
     15 CAH        -4.7550   -1.9880    1.3340 ca        1 PZB     -0.194000
     16 CAO        -6.1490   -1.9280    1.1720 ca        1 PZB      0.171100
     17 OAA        -6.7850   -3.1110    0.8830 oh        1 PZB     -0.493100
     18 CAK        -6.8390   -0.7180    1.2990 ca        1 PZB     -0.312000
     19 CAP        -6.1170    0.4480    1.6010 ca        1 PZB      0.193100
     20 OAB        -6.7470    1.6630    1.7070 oh        1 PZB     -0.475100
     21 H1         -0.5390    0.4750   -1.3790 ha        1 PZB      0.149500
     22 H2          1.4460   -1.0230   -1.0570 ha        1 PZB      0.133500
     23 H3          2.1220   -1.7260    1.2380 ha        1 PZB      0.133000
     24 H4          0.8230   -0.9440    3.2190 ha        1 PZB      0.133500
     25 H5         -1.1580    0.5490    2.9110 ha        1 PZB      0.149500
     26 H6         -1.4470    3.8380    2.0350 h4        1 PZB      0.187000
     27 H7         -3.4170    4.2360    3.6660 hn        1 PZB      0.326700
     28 H8         -2.9650   -0.8530    1.7520 ha        1 PZB      0.149000
     29 H9         -4.2340   -2.9480    1.2200 ha        1 PZB      0.155000
     30 H10        -7.7320   -2.9290    0.7910 ho        1 PZB      0.420000
     31 H11        -7.9280   -0.6760    1.1630 ha        1 PZB      0.135000
     32 H12        -7.6970    1.5200    1.5820 ho        1 PZB      0.417000
@<TRIPOS>BOND
     1    1    2 ar  
     2    1    6 ar  
     3    1   21 1   
     4    2    3 ar  
     5    2   22 1   
     6    3    4 ar  
     7    3   23 1   
     8    4    5 ar  
     9    4   24 1   
    10    5    6 ar  
    11    5   25 1   
    12    6    7 1   
    13    7    8 1   
    14    8    9 2   
    15    8   12 1   
    16    9   10 1   
    17    9   26 1   
    18   10   11 1   
    19   10   27 1   
    20   11   12 2   
    21   12   13 1   
    22   13   14 ar  
    23   13   19 ar  
    24   14   15 ar  
    25   14   28 1   
    26   15   16 ar  
    27   15   29 1   
    28   16   17 1   
    29   16   18 ar  
    30   17   30 1   
    31   18   19 ar  
    32   18   31 1   
    33   19   20 1   
    34   20   32 1   
@<TRIPOS>SUBSTRUCTURE
     1 PZB         1 TEMP              0 ****  ****    0 ROOT
