@<TRIPOS>MOLECULE
PZB
   32    34     1     0     0
SMALL
bcc


@<TRIPOS>ATOM
      1 CAF        -3.0960   -1.0900    1.5280 ca        1 PZB     -0.168500
      2 CAD        -4.1000   -1.9110    1.0240 ca        1 PZB     -0.101500
      3 CAC        -4.4160   -1.8930   -0.3360 ca        1 PZB     -0.157000
      4 CAE        -3.7230   -1.0510   -1.2040 ca        1 PZB     -0.101500
      5 CAG        -2.7110   -0.2200   -0.7230 ca        1 PZB     -0.168500
      6 CAQ        -2.4060   -0.2460    0.6410 ca        1 PZB      0.105100
      7 OAN        -1.3990    0.5190    1.2340 os        1 PZB     -0.206200
      8 CAR        -0.8540    1.5060    0.4550 cc        1 PZB     -0.082200
      9 CAJ        -1.3770    2.7950    0.2380 cd        1 PZB     -0.147300
     10 NAM        -0.3830    3.4860   -0.4490 na        1 PZB     -0.008600
     11 NAL         0.7000    2.7470   -0.6820 nd        1 PZB     -0.526800
     12 CAT         0.4760    1.5080   -0.1410 cc        1 PZB      0.379800
     13 CAS         1.4000    0.3910   -0.2000 ca        1 PZB     -0.237500
     14 CAI         0.8850   -0.8880   -0.4790 ca        1 PZB     -0.039000
     15 CAH         1.7070   -1.9980   -0.5780 ca        1 PZB     -0.195000
     16 CAO         3.0930   -1.8380   -0.3880 ca        1 PZB      0.167100
     17 OAA         3.8620   -2.9710   -0.5050 oh        1 PZB     -0.494100
     18 CAK         3.6410   -0.5900   -0.0930 ca        1 PZB     -0.259000
     19 CAP         2.7870    0.5250    0.0030 ca        1 PZB      0.202100
     20 OAB         3.4260    1.6990    0.3080 oh        1 PZB     -0.496100
     21 H1         -2.8320   -1.0930    2.5940 ha        1 PZB      0.149500
     22 H2         -4.6470   -2.5790    1.7060 ha        1 PZB      0.135000
     23 H3         -5.2120   -2.5460   -0.7220 ha        1 PZB      0.134000
     24 H4         -3.9710   -1.0390   -2.2760 ha        1 PZB      0.135000
     25 H5         -2.1590    0.4440   -1.4030 ha        1 PZB      0.149500
     26 H6         -2.3320    3.2380    0.5150 h4        1 PZB      0.191000
     27 H7         -0.4250    4.4220   -0.7780 hn        1 PZB      0.329700
     28 H8         -0.2050   -1.0000   -0.6150 ha        1 PZB      0.146000
     29 H9          1.3000   -2.9940   -0.7990 ha        1 PZB      0.154000
     30 H10         4.7860   -2.7240   -0.3490 ho        1 PZB      0.422000
     31 H11         4.7200   -0.4560    0.0660 ha        1 PZB      0.153000
     32 H12         2.7680    2.3920    0.4590 ho        1 PZB      0.437000
@<TRIPOS>BOND
     1    1    2 ar  
     2    1    6 ar  
     3    1   21 1   
     4    2    3 ar  
     5    2   22 1   
     6    3    4 ar  
     7    3   23 1   
     8    4    5 ar  
     9    4   24 1   
    10    5    6 ar  
    11    5   25 1   
    12    6    7 1   
    13    7    8 1   
    14    8    9 2   
    15    8   12 1   
    16    9   10 1   
    17    9   26 1   
    18   10   11 1   
    19   10   27 1   
    20   11   12 2   
    21   12   13 1   
    22   13   14 ar  
    23   13   19 ar  
    24   14   15 ar  
    25   14   28 1   
    26   15   16 ar  
    27   15   29 1   
    28   16   17 1   
    29   16   18 ar  
    30   17   30 1   
    31   18   19 ar  
    32   18   31 1   
    33   19   20 1   
    34   20   32 1   
@<TRIPOS>SUBSTRUCTURE
     1 PZB         1 TEMP              0 ****  ****    0 ROOT
