@<TRIPOS>MOLECULE
PZD
   51    55     1     0     0
SMALL
bcc


@<TRIPOS>ATOM
      1 C1A        -5.3550    0.4020    0.2850 ca        1 PZD      0.127100
      2 C2A        -4.9900   -0.7890   -0.4010 ca        1 PZD      0.093100
      3 C3A        -3.6820   -0.9510   -0.8460 ca        1 PZD     -0.129000
      4 C4A        -2.7290    0.0490   -0.6100 ca        1 PZD     -0.170600
      5 C5A        -3.0830    1.2420    0.0510 ca        1 PZD      0.114600
      6 C6A        -4.4100    1.4030    0.5010 ca        1 PZD     -0.171000
      7 C7A        -1.3510   -0.2060   -1.1140 c         1 PZD      0.722100
      8 N1A        -0.2810    0.2050   -0.3250 n         1 PZD     -0.396000
      9 C8A        -0.4050    0.6800    1.0600 c3        1 PZD      0.058700
     10 C10         1.0720   -0.0530   -0.6140 c2        1 PZD      0.006600
     11 C11         1.8860    0.2400    0.4450 ce        1 PZD     -0.158400
     12 C12         1.0540    0.7280    1.6050 c3        1 PZD     -0.036200
     13 O1A        -1.1380   -0.7660   -2.2060 o         1 PZD     -0.621500
     14 C13         5.4710   -0.3930   -0.5280 ca        1 PZD     -0.030000
     15 C14         6.1400   -0.0720    0.6810 ca        1 PZD     -0.041000
     16 C15         7.5550   -0.1810    0.7430 ca        1 PZD     -0.116000
     17 C16         8.2700   -0.5940   -0.3550 ca        1 PZD     -0.129000
     18 C17         7.6040   -0.9150   -1.5630 ca        1 PZD     -0.126000
     19 C18         6.2370   -0.8170   -1.6490 ca        1 PZD     -0.118000
     20 C19         4.0580   -0.2840   -0.5930 ca        1 PZD     -0.120000
     21 C20         3.3210    0.1290    0.5030 ca        1 PZD     -0.007800
     22 C21         4.0050    0.4490    1.7130 ca        1 PZD     -0.125000
     23 C22         5.3690    0.3520    1.7980 ca        1 PZD     -0.114000
     24 O2A        -6.0000   -1.7140   -0.5640 os        1 PZD     -0.301900
     25 C23        -5.6730   -2.8600   -1.3440 c3        1 PZD      0.107700
     26 O3A        -6.6690    0.4640    0.6940 os        1 PZD     -0.299900
     27 C24        -7.0680    1.6640    1.3490 c3        1 PZD      0.107700
     28 C9A        -1.1010    2.0550    1.1830 c3        1 PZD      0.157800
     29 N2A        -2.1710    2.3260    0.2480 nh        1 PZD     -0.698600
     30 H8A        -1.0070   -0.0730    1.6440 h1        1 PZD      0.064700
     31 H24        -8.1520    1.4880    1.5650 h1        1 PZD      0.048033
     32 H24A       -6.4940    1.8050    2.2970 h1        1 PZD      0.048033
     33 H24B       -6.9370    2.5460    0.6750 h1        1 PZD      0.048033
     34 H23        -4.8800   -3.4640   -0.8400 h1        1 PZD      0.048033
     35 H23A       -6.6380   -3.4270   -1.3830 h1        1 PZD      0.048033
     36 H23B       -5.3470   -2.5620   -2.3700 h1        1 PZD      0.048033
     37 H3A        -3.3750   -1.8540   -1.3970 ha        1 PZD      0.163000
     38 H6A        -4.6930    2.3330    1.0180 ha        1 PZD      0.159000
     39 H22         5.8920    0.6000    2.7340 ha        1 PZD      0.132000
     40 H15         8.0630    0.0700    1.6850 ha        1 PZD      0.132000
     41 H17         8.1980   -1.2430   -2.4290 ha        1 PZD      0.132000
     42 H18         5.7110   -1.0650   -2.5830 ha        1 PZD      0.133000
     43 H21         3.4180    0.7770    2.5840 ha        1 PZD      0.130000
     44 H19         3.5590   -0.5380   -1.5400 ha        1 PZD      0.133000
     45 H10         1.3260   -0.4420   -1.6090 h4        1 PZD      0.185000
     46 H12         1.3430    1.7650    1.9040 hc        1 PZD      0.061700
     47 H12A        1.1600    0.0570    2.4910 hc        1 PZD      0.061700
     48 H9A        -1.5270    2.1150    2.2240 h1        1 PZD      0.064200
     49 HN2A       -1.7970    2.6010   -0.6450 hn        1 PZD      0.379800
     50 H9AA       -0.3400    2.8780    1.0670 h1        1 PZD      0.064200
     51 H16         9.3660   -0.6800   -0.3110 ha        1 PZD      0.132000
@<TRIPOS>BOND
     1    1    2 ar  
     2    1    6 ar  
     3    1   26 1   
     4    2    3 ar  
     5    2   24 1   
     6    3    4 ar  
     7    3   37 1   
     8    4    5 ar  
     9    4    7 1   
    10    5    6 ar  
    11    5   29 1   
    12    6   38 1   
    13    7    8 1   
    14    7   13 2   
    15    8    9 1   
    16    8   10 1   
    17    9   12 1   
    18    9   28 1   
    19    9   30 1   
    20   10   11 2   
    21   10   45 1   
    22   11   12 1   
    23   11   21 1   
    24   12   46 1   
    25   12   47 1   
    26   14   15 ar  
    27   14   19 ar  
    28   14   20 ar  
    29   15   16 ar  
    30   15   23 ar  
    31   16   17 ar  
    32   16   40 1   
    33   17   18 ar  
    34   17   51 1   
    35   18   19 ar  
    36   18   41 1   
    37   19   42 1   
    38   20   21 ar  
    39   20   44 1   
    40   21   22 ar  
    41   22   23 ar  
    42   22   43 1   
    43   23   39 1   
    44   24   25 1   
    45   25   34 1   
    46   25   35 1   
    47   25   36 1   
    48   26   27 1   
    49   27   31 1   
    50   27   32 1   
    51   27   33 1   
    52   28   29 1   
    53   28   48 1   
    54   28   50 1   
    55   29   49 1   
@<TRIPOS>SUBSTRUCTURE
     1 PZD         1 TEMP              0 ****  ****    0 ROOT
