@<TRIPOS>MOLECULE
PZD
   51    55     1     0     0
SMALL
bcc


@<TRIPOS>ATOM
      1 C1A         0.2880   -0.1110   -0.2650 ca        1 PZD      0.155100
      2 C2A         1.5330    0.4200    0.1750 ca        1 PZD      0.071100
      3 C3A         1.8170    0.4500    1.5330 ca        1 PZD     -0.112000
      4 C4A         0.8950   -0.0430    2.4710 ca        1 PZD     -0.164600
      5 C5A        -0.3420   -0.5710    2.0520 ca        1 PZD      0.167600
      6 C6A        -0.6260   -0.6000    0.6610 ca        1 PZD     -0.252000
      7 C7A         1.2950    0.0820    3.8970 c         1 PZD      0.746100
      8 N1A         1.0390   -0.9900    4.7420 n         1 PZD     -0.390000
      9 C8A         0.3560   -2.2210    4.3420 c3        1 PZD      0.092700
     10 C10         1.4190   -1.0740    6.0930 c2        1 PZD      0.020600
     11 C11         1.0890   -2.2850    6.6400 ce        1 PZD     -0.172400
     12 C12         0.4130   -3.1430    5.6000 c3        1 PZD     -0.036200
     13 O1A         1.8900    1.0850    4.3350 o         1 PZD     -0.628500
     14 C13         2.0930   -2.3280   10.2720 ca        1 PZD     -0.029000
     15 C14         1.7570   -3.6580   10.6290 ca        1 PZD     -0.042000
     16 C15         1.9860   -4.0990   11.9600 ca        1 PZD     -0.116000
     17 C16         2.5270   -3.2480   12.8930 ca        1 PZD     -0.130000
     18 C17         2.8620   -1.9190   12.5370 ca        1 PZD     -0.127000
     19 C18         2.6510   -1.4670   11.2580 ca        1 PZD     -0.118000
     20 C19         1.8650   -1.8840    8.9430 ca        1 PZD     -0.123000
     21 C20         1.3220   -2.7280    7.9900 ca        1 PZD     -0.002800
     22 C21         0.9880   -4.0640    8.3620 ca        1 PZD     -0.126000
     23 C22         1.2000   -4.5130    9.6390 ca        1 PZD     -0.114000
     24 O2A         2.3810    0.8560   -0.8240 os        1 PZD     -0.304900
     25 C23         3.5270    1.5800   -0.3850 c3        1 PZD      0.108700
     26 O3A         0.0970   -0.1020   -1.6280 os        1 PZD     -0.297900
     27 C24        -1.1580   -0.5890   -2.0940 c3        1 PZD      0.108700
     28 C9A        -1.1080   -2.0080    3.9170 c3        1 PZD      0.173800
     29 N2A        -1.3450   -0.9420    2.9710 nh        1 PZD     -0.721600
     30 H8A         0.9210   -2.6870    3.4850 h1        1 PZD      0.066700
     31 H24        -1.2860   -1.6670   -1.8290 h1        1 PZD      0.046367
     32 H24A       -1.9980    0.0210   -1.6810 h1        1 PZD      0.046367
     33 H24B       -1.0850   -0.4610   -3.2040 h1        1 PZD      0.046367
     34 H23         4.2180    0.9100    0.1820 h1        1 PZD      0.046700
     35 H23A        4.0010    1.9150   -1.3430 h1        1 PZD      0.046700
     36 H23B        3.2320    2.4580    0.2390 h1        1 PZD      0.046700
     37 H3A         2.7610    0.8790    1.9050 ha        1 PZD      0.163000
     38 H6A        -1.5890   -1.0020    0.3140 ha        1 PZD      0.140000
     39 H22         0.9410   -5.5450    9.9210 ha        1 PZD      0.131000
     40 H15         1.7220   -5.1340   12.2260 ha        1 PZD      0.131000
     41 H17         3.2940   -1.2550   13.3010 ha        1 PZD      0.132000
     42 H18         2.9090   -0.4360   10.9730 ha        1 PZD      0.133000
     43 H21         0.5570   -4.7340    7.6030 ha        1 PZD      0.129000
     44 H19         2.1310   -0.8470    8.6870 ha        1 PZD      0.133000
     45 H10         1.9230   -0.2110    6.5470 h4        1 PZD      0.186000
     46 H12        -0.6090   -3.4520    5.9270 hc        1 PZD      0.060700
     47 H12A        1.0120   -4.0600    5.3790 hc        1 PZD      0.060700
     48 H9A        -1.7280   -1.7550    4.8270 h1        1 PZD      0.047200
     49 HN2A       -2.2320   -1.0650    2.5190 hn        1 PZD      0.391800
     50 H9AA       -1.4710   -3.0020    3.5190 h1        1 PZD      0.047200
     51 H16         2.7060   -3.5860   13.9240 ha        1 PZD      0.131000
@<TRIPOS>BOND
     1    1    2 ar  
     2    1    6 ar  
     3    1   26 1   
     4    2    3 ar  
     5    2   24 1   
     6    3    4 ar  
     7    3   37 1   
     8    4    5 ar  
     9    4    7 1   
    10    5    6 ar  
    11    5   29 1   
    12    6   38 1   
    13    7    8 1   
    14    7   13 2   
    15    8    9 1   
    16    8   10 1   
    17    9   12 1   
    18    9   28 1   
    19    9   30 1   
    20   10   11 2   
    21   10   45 1   
    22   11   12 1   
    23   11   21 1   
    24   12   46 1   
    25   12   47 1   
    26   14   15 ar  
    27   14   19 ar  
    28   14   20 ar  
    29   15   16 ar  
    30   15   23 ar  
    31   16   17 ar  
    32   16   40 1   
    33   17   18 ar  
    34   17   51 1   
    35   18   19 ar  
    36   18   41 1   
    37   19   42 1   
    38   20   21 ar  
    39   20   44 1   
    40   21   22 ar  
    41   22   23 ar  
    42   22   43 1   
    43   23   39 1   
    44   24   25 1   
    45   25   34 1   
    46   25   35 1   
    47   25   36 1   
    48   26   27 1   
    49   27   31 1   
    50   27   32 1   
    51   27   33 1   
    52   28   29 1   
    53   28   48 1   
    54   28   50 1   
    55   29   49 1   
@<TRIPOS>SUBSTRUCTURE
     1 PZD         1 TEMP              0 ****  ****    0 ROOT
