@<TRIPOS>MOLECULE
PZD
   51    55     1     0     0
SMALL
bcc


@<TRIPOS>ATOM
      1 C1A         0.2880   -0.1260   -0.2670 ca        1 PZD      0.155100
      2 C2A         1.5480    0.3740    0.1640 ca        1 PZD      0.071100
      3 C3A         1.8390    0.4040    1.5200 ca        1 PZD     -0.112000
      4 C4A         0.9090   -0.0570    2.4660 ca        1 PZD     -0.164600
      5 C5A        -0.3440   -0.5540    2.0560 ca        1 PZD      0.167600
      6 C6A        -0.6350   -0.5830    0.6660 ca        1 PZD     -0.252000
      7 C7A         1.3180    0.0670    3.8890 c         1 PZD      0.746100
      8 N1A         1.0380   -0.9930    4.7420 n         1 PZD     -0.390000
      9 C8A         0.3190   -2.2070    4.3530 c3        1 PZD      0.092700
     10 C10         1.4220   -1.0790    6.0910 c2        1 PZD      0.020600
     11 C11         1.0620   -2.2770    6.6480 ce        1 PZD     -0.172400
     12 C12         0.3580   -3.1230    5.6160 c3        1 PZD     -0.036200
     13 O1A         1.9430    1.0560    4.3180 o         1 PZD     -0.628500
     14 C13         2.0840   -2.3250   10.2740 ca        1 PZD     -0.029000
     15 C14         1.7140   -3.6440   10.6420 ca        1 PZD     -0.042000
     16 C15         1.9380   -4.0830   11.9740 ca        1 PZD     -0.116000
     17 C16         2.5070   -3.2420   12.8990 ca        1 PZD     -0.130000
     18 C17         2.8760   -1.9240   12.5330 ca        1 PZD     -0.127000
     19 C18         2.6710   -1.4750   11.2520 ca        1 PZD     -0.118000
     20 C19         1.8610   -1.8840    8.9450 ca        1 PZD     -0.123000
     21 C20         1.2900   -2.7180    7.9990 ca        1 PZD     -0.002800
     22 C21         0.9210   -4.0420    8.3820 ca        1 PZD     -0.126000
     23 C22         1.1270   -4.4890    9.6600 ca        1 PZD     -0.114000
     24 O2A         2.4040    0.7800   -0.8420 os        1 PZD     -0.304900
     25 C23         3.5710    1.4750   -0.4130 c3        1 PZD      0.108700
     26 O3A         0.0900   -0.1210   -1.6290 os        1 PZD     -0.297900
     27 C24        -1.1790   -0.5780   -2.0860 c3        1 PZD      0.108700
     28 C9A        -1.1410   -1.9570    3.9330 c3        1 PZD      0.173800
     29 N2A        -1.3520   -0.8910    2.9810 nh        1 PZD     -0.721600
     30 H8A         0.8670   -2.6940    3.4970 h1        1 PZD      0.066700
     31 H24        -1.3340   -1.6500   -1.8130 h1        1 PZD      0.046367
     32 H24A       -2.0010    0.0570   -1.6740 h1        1 PZD      0.046367
     33 H24B       -1.1070   -0.4600   -3.1980 h1        1 PZD      0.046367
     34 H23         4.0500    1.7900   -1.3740 h1        1 PZD      0.046700
     35 H23A        4.2460    0.7900    0.1560 h1        1 PZD      0.046700
     36 H23B        3.3020    2.3640    0.2070 h1        1 PZD      0.046700
     37 H3A         2.7960    0.8110    1.8860 ha        1 PZD      0.163000
     38 H6A        -1.6110   -0.9620    0.3260 ha        1 PZD      0.140000
     39 H22         0.8420   -5.5120    9.9500 ha        1 PZD      0.131000
     40 H15         1.6470   -5.1090   12.2480 ha        1 PZD      0.131000
     41 H17         3.3300   -1.2690   13.2910 ha        1 PZD      0.132000
     42 H18         2.9550   -0.4530   10.9600 ha        1 PZD      0.133000
     43 H21         0.4670   -4.7040    7.6290 ha        1 PZD      0.129000
     44 H19         2.1530   -0.8560    8.6810 ha        1 PZD      0.133000
     45 H10         1.9510   -0.2270    6.5380 h4        1 PZD      0.186000
     46 H12        -0.6710   -3.4010    5.9500 hc        1 PZD      0.060700
     47 H12A        0.9300   -4.0570    5.3990 hc        1 PZD      0.060700
     48 H9A        -1.7490   -1.6820    4.8440 h1        1 PZD      0.047200
     49 HN2A       -2.2450   -0.9930    2.5350 hn        1 PZD      0.391800
     50 H9AA       -1.5320   -2.9430    3.5430 h1        1 PZD      0.047200
     51 H16         2.6820   -3.5780   13.9310 ha        1 PZD      0.131000
@<TRIPOS>BOND
     1    1    2 ar  
     2    1    6 ar  
     3    1   26 1   
     4    2    3 ar  
     5    2   24 1   
     6    3    4 ar  
     7    3   37 1   
     8    4    5 ar  
     9    4    7 1   
    10    5    6 ar  
    11    5   29 1   
    12    6   38 1   
    13    7    8 1   
    14    7   13 2   
    15    8    9 1   
    16    8   10 1   
    17    9   12 1   
    18    9   28 1   
    19    9   30 1   
    20   10   11 2   
    21   10   45 1   
    22   11   12 1   
    23   11   21 1   
    24   12   46 1   
    25   12   47 1   
    26   14   15 ar  
    27   14   19 ar  
    28   14   20 ar  
    29   15   16 ar  
    30   15   23 ar  
    31   16   17 ar  
    32   16   40 1   
    33   17   18 ar  
    34   17   51 1   
    35   18   19 ar  
    36   18   41 1   
    37   19   42 1   
    38   20   21 ar  
    39   20   44 1   
    40   21   22 ar  
    41   22   23 ar  
    42   22   43 1   
    43   23   39 1   
    44   24   25 1   
    45   25   34 1   
    46   25   35 1   
    47   25   36 1   
    48   26   27 1   
    49   27   31 1   
    50   27   32 1   
    51   27   33 1   
    52   28   29 1   
    53   28   48 1   
    54   28   50 1   
    55   29   49 1   
@<TRIPOS>SUBSTRUCTURE
     1 PZD         1 TEMP              0 ****  ****    0 ROOT
