@<TRIPOS>MOLECULE
PZD
   51    55     1     0     0
SMALL
bcc


@<TRIPOS>ATOM
      1 C1A         0.2670   -0.1290   -0.2660 ca        1 PZD      0.155100
      2 C2A         1.4940    0.4370    0.1810 ca        1 PZD      0.071100
      3 C3A         1.7690    0.4730    1.5400 ca        1 PZD     -0.112000
      4 C4A         0.8570   -0.0450    2.4730 ca        1 PZD     -0.164600
      5 C5A        -0.3630   -0.6070    2.0480 ca        1 PZD      0.167600
      6 C6A        -0.6380   -0.6430    0.6550 ca        1 PZD     -0.252000
      7 C7A         1.2450    0.0900    3.9020 c         1 PZD      0.746100
      8 N1A         1.0150   -0.9890    4.7450 n         1 PZD     -0.390000
      9 C8A         0.3680   -2.2380    4.3400 c3        1 PZD      0.092700
     10 C10         1.3900   -1.0640    6.0970 c2        1 PZD      0.020600
     11 C11         1.0920   -2.2840    6.6420 ce        1 PZD     -0.172400
     12 C12         0.4450   -3.1600    5.5980 c3        1 PZD     -0.036200
     13 O1A         1.8100    1.1090    4.3430 o         1 PZD     -0.628500
     14 C13         2.0780   -2.3010   10.2780 ca        1 PZD     -0.029000
     15 C14         1.7790   -3.6420   10.6330 ca        1 PZD     -0.042000
     16 C15         2.0150   -4.0770   11.9650 ca        1 PZD     -0.116000
     17 C16         2.5260   -3.2120   12.9000 ca        1 PZD     -0.130000
     18 C17         2.8250   -1.8730   12.5480 ca        1 PZD     -0.127000
     19 C18         2.6070   -1.4270   11.2680 ca        1 PZD     -0.118000
     20 C19         1.8440   -1.8630    8.9500 ca        1 PZD     -0.123000
     21 C20         1.3300   -2.7210    7.9930 ca        1 PZD     -0.002800
     22 C21         1.0330   -4.0660    8.3620 ca        1 PZD     -0.126000
     23 C22         1.2510   -4.5110    9.6400 ca        1 PZD     -0.114000
     24 O2A         2.3350    0.8970   -0.8130 os        1 PZD     -0.304900
     25 C23         3.4580    1.6520   -0.3680 c3        1 PZD      0.108700
     26 O3A         0.0820   -0.1250   -1.6300 os        1 PZD     -0.297900
     27 C24        -1.1550   -0.6460   -2.1030 c3        1 PZD      0.108700
     28 C9A        -1.0990   -2.0660    3.9080 c3        1 PZD      0.173800
     29 N2A        -1.3600   -1.0070    2.9610 nu        1 PZD     -0.721600
     30 H8A         0.9510   -2.6880    3.4860 h1        1 PZD      0.066700
     31 H24        -2.0150   -0.0610   -1.6940 h1        1 PZD      0.046367
     32 H24A       -1.2540   -1.7270   -1.8390 h1        1 PZD      0.046367
     33 H24B       -1.0800   -0.5160   -3.2120 h1        1 PZD      0.046367
     34 H23         3.9280    2.0000   -1.3230 h1        1 PZD      0.046700
     35 H23A        3.1350    2.5210    0.2550 h1        1 PZD      0.046700
     36 H23B        4.1640    1.0010    0.2030 h1        1 PZD      0.046700
     37 H3A         2.6990    0.9290    1.9180 ha        1 PZD      0.163000
     38 H6A        -1.5880   -1.0720    0.3020 ha        1 PZD      0.140000
     39 H22         1.0200   -5.5500    9.9190 ha        1 PZD      0.131000
     40 H15         1.7790   -5.1190   12.2290 ha        1 PZD      0.131000
     41 H17         3.2340   -1.1990   13.3150 ha        1 PZD      0.132000
     42 H18         2.8370   -0.3880   10.9860 ha        1 PZD      0.133000
     43 H21         0.6240   -4.7470    7.6010 ha        1 PZD      0.129000
     44 H19         2.0810   -0.8190    8.6950 ha        1 PZD      0.133000
     45 H10         1.8670   -0.1870    6.5540 h4        1 PZD      0.186000
     46 H12        -0.5700   -3.4970    5.9200 hc        1 PZD      0.060700
     47 H12A        1.0710   -4.0590    5.3800 hc        1 PZD      0.060700
     48 H9A        -1.4320   -3.0700    3.5070 h1        1 PZD      0.047200
     49 HN2A       -2.2410   -1.1540    2.5050 hn        1 PZD      0.391800
     50 H9AA       -1.7300   -1.8310    4.8140 h1        1 PZD      0.047200
     51 H16         2.7100   -3.5460   13.9320 ha        1 PZD      0.131000
@<TRIPOS>BOND
     1    1    2 ar  
     2    1    6 ar  
     3    1   26 1   
     4    2    3 ar  
     5    2   24 1   
     6    3    4 ar  
     7    3   37 1   
     8    4    5 ar  
     9    4    7 1   
    10    5    6 ar  
    11    5   29 1   
    12    6   38 1   
    13    7    8 1   
    14    7   13 2   
    15    8    9 1   
    16    8   10 1   
    17    9   12 1   
    18    9   28 1   
    19    9   30 1   
    20   10   11 2   
    21   10   45 1   
    22   11   12 1   
    23   11   21 1   
    24   12   46 1   
    25   12   47 1   
    26   14   15 ar  
    27   14   19 ar  
    28   14   20 ar  
    29   15   16 ar  
    30   15   23 ar  
    31   16   17 ar  
    32   16   40 1   
    33   17   18 ar  
    34   17   51 1   
    35   18   19 ar  
    36   18   41 1   
    37   19   42 1   
    38   20   21 ar  
    39   20   44 1   
    40   21   22 ar  
    41   22   23 ar  
    42   22   43 1   
    43   23   39 1   
    44   24   25 1   
    45   25   34 1   
    46   25   35 1   
    47   25   36 1   
    48   26   27 1   
    49   27   31 1   
    50   27   32 1   
    51   27   33 1   
    52   28   29 1   
    53   28   48 1   
    54   28   50 1   
    55   29   49 1   
@<TRIPOS>SUBSTRUCTURE
     1 PZD         1 TEMP              0 ****  ****    0 ROOT
