@<TRIPOS>MOLECULE
PZE
   16    16     1     0     0
SMALL
bcc


@<TRIPOS>ATOM
      1 N7         -0.0000   -1.4730    0.1170 n3        1 PZE     -0.796200
      2 C8         -1.2070   -0.7400   -0.2190 c3        1 PZE      0.112800
      3 C9         -1.2060    0.7410    0.2190 c3        1 PZE      0.112800
      4 N10         0.0000    1.4730   -0.1170 n3        1 PZE     -0.796200
      5 C11         1.2070    0.7400    0.2190 c3        1 PZE      0.112800
      6 C12         1.2060   -0.7410   -0.2190 c3        1 PZE      0.112800
      7 HN7        -0.0000   -1.6860    1.1000 hn        1 PZE      0.349800
      8 H8         -1.3290   -0.7930   -1.3370 h1        1 PZE      0.055200
      9 H8A        -2.0870   -1.2580    0.2500 h1        1 PZE      0.055200
     10 H9         -2.0870    1.2580   -0.2500 h1        1 PZE      0.055200
     11 H9A        -1.3290    0.7930    1.3370 h1        1 PZE      0.055200
     12 HN10        0.0000    1.6860   -1.1000 hn        1 PZE      0.349800
     13 H11         2.0870    1.2580   -0.2500 h1        1 PZE      0.055200
     14 H11A        1.3290    0.7930    1.3370 h1        1 PZE      0.055200
     15 H12         2.0870   -1.2580    0.2500 h1        1 PZE      0.055200
     16 H12A        1.3290   -0.7930   -1.3370 h1        1 PZE      0.055200
@<TRIPOS>BOND
     1    1    2 1   
     2    1    6 1   
     3    1    7 1   
     4    2    3 1   
     5    2    8 1   
     6    2    9 1   
     7    3    4 1   
     8    3   10 1   
     9    3   11 1   
    10    4    5 1   
    11    4   12 1   
    12    5    6 1   
    13    5   13 1   
    14    5   14 1   
    15    6   15 1   
    16    6   16 1   
@<TRIPOS>SUBSTRUCTURE
     1 PZE         1 TEMP              0 ****  ****    0 ROOT
