@<TRIPOS>MOLECULE
PZE
   16    16     1     0     0
SMALL
bcc


@<TRIPOS>ATOM
      1 N7          0.0090   -0.0550   -0.0660 n7        1 PZE     -0.820200
      2 C8          1.4550    0.0260   -0.0000 c3        1 PZE      0.161800
      3 C9          1.9920   -0.0240    1.4450 c3        1 PZE      0.161800
      4 N10         1.4440   -1.1260    2.2100 n7        1 PZE     -0.820200
      5 C11        -0.0020   -1.2080    2.1450 c3        1 PZE      0.161800
      6 C12        -0.5390   -1.1580    0.7000 c3        1 PZE      0.161800
      7 HN7        -0.2860   -0.1230   -1.0220 hn        1 PZE      0.362800
      8 H8          1.7600    1.0110   -0.4530 h1        1 PZE      0.033700
      9 H8A         1.9560   -0.7950   -0.5920 h1        1 PZE      0.033700
     10 H9          3.1080   -0.1650    1.3980 h1        1 PZE      0.033700
     11 H9A         1.7910    0.9760    1.9310 h1        1 PZE      0.033700
     12 HN10        1.7400   -1.0580    3.1660 hn        1 PZE      0.362800
     13 H11        -0.3070   -2.1920    2.5970 h1        1 PZE      0.033700
     14 H11A       -0.5020   -0.3860    2.7360 h1        1 PZE      0.033700
     15 H12        -0.3370   -2.1570    0.2130 h1        1 PZE      0.033700
     16 H12A       -1.6550   -1.0170    0.7470 h1        1 PZE      0.033700
@<TRIPOS>BOND
     1    1    2 1   
     2    1    6 1   
     3    1    7 1   
     4    2    3 1   
     5    2    8 1   
     6    2    9 1   
     7    3    4 1   
     8    3   10 1   
     9    3   11 1   
    10    4    5 1   
    11    4   12 1   
    12    5    6 1   
    13    5   13 1   
    14    5   14 1   
    15    6   15 1   
    16    6   16 1   
@<TRIPOS>SUBSTRUCTURE
     1 PZE         1 TEMP              0 ****  ****    0 ROOT
