@<TRIPOS>MOLECULE
PZE
   16    16     1     0     0
SMALL
bcc


@<TRIPOS>ATOM
      1 N7          0.0110   -0.0570   -0.0680 n3        1 PZE     -0.820200
      2 C8          1.4570    0.0250   -0.0010 c3        1 PZE      0.161800
      3 C9          1.9920   -0.0230    1.4450 c3        1 PZE      0.161800
      4 N10         1.4430   -1.1240    2.2120 n3        1 PZE     -0.820200
      5 C11        -0.0030   -1.2060    2.1450 c3        1 PZE      0.161800
      6 C12        -0.5380   -1.1580    0.6990 c3        1 PZE      0.161800
      7 HN7        -0.2830   -0.1270   -1.0240 hn        1 PZE      0.362800
      8 H8          1.7620    1.0080   -0.4540 h1        1 PZE      0.033700
      9 H8A         1.9580   -0.7980   -0.5900 h1        1 PZE      0.033700
     10 H9          3.1080   -0.1650    1.4000 h1        1 PZE      0.033700
     11 H9A         1.7900    0.9770    1.9300 h1        1 PZE      0.033700
     12 HN10        1.7370   -1.0540    3.1680 hn        1 PZE      0.362800
     13 H11        -0.3090   -2.1890    2.5980 h1        1 PZE      0.033700
     14 H11A       -0.5040   -0.3830    2.7340 h1        1 PZE      0.033700
     15 H12        -0.3360   -2.1580    0.2150 h1        1 PZE      0.033700
     16 H12A       -1.6540   -1.0170    0.7440 h1        1 PZE      0.033700
@<TRIPOS>BOND
     1    1    2 1   
     2    1    6 1   
     3    1    7 1   
     4    2    3 1   
     5    2    8 1   
     6    2    9 1   
     7    3    4 1   
     8    3   10 1   
     9    3   11 1   
    10    4    5 1   
    11    4   12 1   
    12    5    6 1   
    13    5   13 1   
    14    5   14 1   
    15    6   15 1   
    16    6   16 1   
@<TRIPOS>SUBSTRUCTURE
     1 PZE         1 TEMP              0 ****  ****    0 ROOT
