@<TRIPOS>MOLECULE
PZF
   48    49     1     0     0
SMALL
bcc


@<TRIPOS>ATOM
      1 N3         -2.3420    0.5470    1.5360 n7        1 PZF     -0.095400
      2 C4         -2.5130   -0.9200    1.2090 c3        1 PZF      0.312900
      3 C6         -0.2430   -2.1350    0.6300 c1        1 PZF      0.018500
      4 C13        -4.8670   -1.2940    5.1940 c3        1 PZF      0.188800
      5 C21        -6.2040   -1.8760    5.5750 ca        1 PZF     -0.156300
      6 C8          1.0820    2.1560    6.1220 c1        1 PZF      0.620800
      7 C16        -2.0480   -1.4180    6.0400 c3        1 PZF      0.175800
      8 C19        -3.0880   -0.8970   -1.1360 c3        1 PZF      0.097700
      9 C26        -6.2780   -2.9860    6.4150 ca        1 PZF     -0.125000
     10 C24        -8.7160   -2.9560    6.2780 ca        1 PZF      0.142900
     11 C23        -8.6490   -1.8400    5.4330 ca        1 PZF     -0.178000
     12 C22        -7.3970   -1.3060    5.0830 ca        1 PZF      0.150900
     13 F27        -7.3560   -0.2280    4.2630 f         1 PZF     -0.132900
     14 C25        -7.5160   -3.5370    6.7750 ca        1 PZF      0.092900
     15 F28        -7.5720   -4.6130    7.5900 f         1 PZF     -0.107900
     16 C17        -2.8310   -2.6210    5.4660 c3        1 PZF      0.129800
     17 N20        -3.9240   -2.2350    4.5940 n7        1 PZF     -0.830200
     18 N15        -2.8700   -0.2490    6.3220 nh        1 PZF     -0.612400
     19 C14        -4.2830   -0.5630    6.4410 c3        1 PZF      0.177800
     20 C12        -2.5490    0.9590    5.7190 c2        1 PZF      0.124900
     21 N7          1.5430    2.1160    7.2610 n2        1 PZF     -0.681800
     22 C11        -1.4730    1.2380    5.0110 c1        1 PZF     -0.224800
     23 C10        -0.3820    1.5850    4.3540 ce        1 PZF      0.189500
     24 N9          0.8450    2.0270    4.8820 ne        1 PZF     -0.579000
     25 C1         -0.3730    1.5180    2.8820 ce        1 PZF      0.013900
     26 C5         -1.2580   -1.5500    0.8760 c1        1 PZF     -0.272100
     27 O18        -3.5120   -0.9940    0.2230 os        1 PZF     -0.383600
     28 C2         -1.3800    1.0330    2.1940 c1        1 PZF      0.056100
     29 H6          0.6590   -2.6590    0.4080 ha        1 PZF      0.196500
     30 H13        -4.3920   -1.2290    7.3450 h1        1 PZF      0.080700
     31 H8          1.6090    2.8840    7.8870 hn        1 PZF      0.502400
     32 H161       -1.5830   -1.7360    7.0170 h1        1 PZF      0.068700
     33 H162       -1.2150   -1.1510    5.3310 h1        1 PZF      0.068700
     34 H191       -2.3570   -1.7060   -1.3780 h1        1 PZF      0.064033
     35 H192       -2.6460    0.1080   -1.3360 h1        1 PZF      0.064033
     36 H193       -4.0400   -1.0370   -1.7120 h1        1 PZF      0.064033
     37 H26        -5.3600   -3.4460    6.8150 ha        1 PZF      0.158000
     38 H23        -9.5740   -1.3860    5.0450 ha        1 PZF      0.183000
     39 H17        -3.1790   -3.2550    6.3340 h1        1 PZF      0.051200
     40 H201       -2.1180   -3.2450    4.8580 h1        1 PZF      0.051200
     41 H202       -4.4070   -3.0550    4.2710 hn        1 PZF      0.383800
     42 H141       -5.0430   -0.5150    4.3890 h1        1 PZF      0.070700
     43 H142       -4.8800    0.3730    6.6170 h1        1 PZF      0.080700
     44 H11        -3.2770    1.7800    5.9240 h4        1 PZF      0.173000
     45 H5          0.5250    1.8930    2.3390 ha        1 PZF      0.228000
     46 H2         -3.1000    1.1350    1.2090 hn        1 PZF      0.331700
     47 F29        -9.9120   -3.4780    6.6190 f         1 PZF     -0.100900
     48 H203       -2.9900   -1.3910    2.1360 h2        1 PZF      0.164700
@<TRIPOS>BOND
     1    1    2 1   
     2    1   28 2   
     3    1   46 1   
     4    2   26 1   
     5    2   27 1   
     6    2   48 1   
     7    3   26 3   
     8    3   29 1   
     9    4    5 1   
    10    4   17 1   
    11    4   19 1   
    12    4   42 1   
    13    5    9 ar  
    14    5   12 ar  
    15    6   21 2   
    16    6   24 2   
    17    7   16 1   
    18    7   18 1   
    19    7   32 1   
    20    7   33 1   
    21    8   27 1   
    22    8   34 1   
    23    8   35 1   
    24    8   36 1   
    25    9   14 ar  
    26    9   37 1   
    27   10   11 ar  
    28   10   14 ar  
    29   10   47 1   
    30   11   12 ar  
    31   11   38 1   
    32   12   13 1   
    33   14   15 1   
    34   16   17 1   
    35   16   39 1   
    36   16   40 1   
    37   17   41 1   
    38   18   19 1   
    39   18   20 1   
    40   19   30 1   
    41   19   43 1   
    42   20   22 2   
    43   20   44 1   
    44   21   31 1   
    45   22   23 2   
    46   23   24 1   
    47   23   25 1   
    48   25   28 2   
    49   25   45 1   
@<TRIPOS>SUBSTRUCTURE
     1 PZF         1 TEMP              0 ****  ****    0 ROOT
