@<TRIPOS>MOLECULE
PZF
   48    50     1     0     0
SMALL
bcc


@<TRIPOS>ATOM
      1 N3         -1.3580   -0.9960    1.4620 n2        1 PZF     -0.374000
      2 C4         -0.7270   -1.2130    0.3580 c2        1 PZF      0.254000
      3 C6          1.7510   -0.6150   -0.2710 c1        1 PZF     -0.108000
      4 C13        -5.3740   -0.8590    4.7640 c3        1 PZF     -0.112000
      5 C21        -6.2620   -2.0120    5.2450 c3        1 PZF     -0.145000
      6 C8         -1.4850    2.3950    7.5990 c1        1 PZF      0.066000
      7 C16        -3.1280   -0.3390    3.9830 c3        1 PZF     -0.124000
      8 C19        -2.6860   -2.2580   -0.5770 c3        1 PZF     -0.062000
      9 C26        -5.5870   -2.9300    6.1760 c2        1 PZF     -0.029000
     10 C24        -7.4980   -2.9440    7.7060 c2        1 PZF      0.340000
     11 C23        -8.1850   -2.0260    6.8920 c2        1 PZF     -0.309000
     12 C22        -7.6020   -1.5460    5.7190 c2        1 PZF      0.310000
     13 F27        -8.2610   -0.6780    4.9600 f         1 PZF      0.003000
     14 C25        -6.1670   -3.3970    7.3280 c2        1 PZF     -0.001000
     15 F28        -5.5350   -4.2690    8.1420 f         1 PZF     -0.035000
     16 C17        -4.2930   -1.3470    3.7560 c3        1 PZF     -0.029000
     17 N20        -4.7960   -1.4840    2.4150 n3        1 PZF     -0.349000
     18 N15        -3.3710    0.3980    5.2240 n3        1 PZF     -0.245000
     19 C14        -4.5670   -0.1400    5.8660 c3        1 PZF     -0.079000
     20 C12        -2.1870    0.4730    6.1020 c3        1 PZF      0.062000
     21 N7         -2.3360    1.4200    7.2430 n3        1 PZF     -0.282000
     22 C11        -0.9680    0.8500    5.3270 c2        1 PZF     -0.050000
     23 C10        -0.0950    1.9590    5.8520 c2        1 PZF     -0.055000
     24 N9         -0.2810    2.6830    6.9020 n2        1 PZF     -0.146000
     25 C1          0.7170    1.6520    4.6490 c2        1 PZF      0.089000
     26 C5          0.6220   -0.8870    0.0160 c1        1 PZF     -0.192000
     27 O18        -1.3340   -1.8420   -0.7250 os        1 PZF     -0.208000
     28 C2         -0.1530    0.5910    4.1790 c1        1 PZF     -0.158000
     29 H6          2.7550   -0.3730   -0.5220 ha        1 PZF      0.236000
     30 H13        -4.3330   -0.8510    6.7090 h1        1 PZF      0.085500
     31 H8         -3.1860    1.3470    7.7550 hn        1 PZF      0.251000
     32 H161       -2.1530   -0.9020    3.9900 h1        1 PZF      0.136000
     33 H162       -3.0800    0.4250    3.1570 h1        1 PZF      0.136000
     34 H191       -3.3520   -1.3840   -0.3780 h1        1 PZF      0.082667
     35 H192       -2.7800   -3.0140    0.2400 h1        1 PZF      0.082667
     36 H193       -2.9210   -2.7170   -1.5710 h1        1 PZF      0.082667
     37 H26        -4.5680   -3.2660    5.8960 ha        1 PZF      0.211000
     38 H23        -9.1950   -1.6810    7.1940 ha        1 PZF      0.226000
     39 H17        -6.4750   -2.6260    4.2870 hc        1 PZF      0.249000
     40 H201       -3.9320   -2.3680    4.0750 h1        1 PZF      0.093000
     41 H202       -5.0470   -0.5940    2.0280 hn        1 PZF      0.177000
     42 H141       -6.0410   -0.1040    4.2590 hc        1 PZF      0.144000
     43 H142       -5.1510    0.7240    6.2860 h1        1 PZF      0.085500
     44 H11        -1.9720   -0.5540    6.5650 h2        1 PZF      0.103000
     45 H5          1.6300    2.1140    4.2780 ha        1 PZF      0.190000
     46 H2         -0.8330   -0.5360    2.1820 hn        1 PZF      0.203000
     47 F29        -8.0470   -3.3980    8.8230 f         1 PZF      0.018000
     48 H203       -4.0990   -1.9070    1.8260 hn        1 PZF      0.177000
@<TRIPOS>BOND
     1    1    2 1   
     2    1   46 1   
     3    2   26 1   
     4    2   27 1   
     5    3   26 1   
     6    3   29 1   
     7    4    5 1   
     8    4   16 1   
     9    4   19 1   
    10    4   42 1   
    11    5    9 1   
    12    5   12 1   
    13    5   39 1   
    14    6   21 1   
    15    6   24 1   
    16    7   16 1   
    17    7   18 1   
    18    7   32 1   
    19    7   33 1   
    20    8   27 1   
    21    8   34 1   
    22    8   35 1   
    23    8   36 1   
    24    9   14 1   
    25    9   37 1   
    26   10   11 1   
    27   10   14 1   
    28   10   47 1   
    29   11   12 1   
    30   11   38 1   
    31   12   13 1   
    32   14   15 1   
    33   16   17 1   
    34   16   40 1   
    35   17   41 1   
    36   17   48 1   
    37   18   19 1   
    38   18   20 1   
    39   19   30 1   
    40   19   43 1   
    41   20   21 1   
    42   20   22 1   
    43   20   44 1   
    44   21   31 1   
    45   22   23 1   
    46   22   28 1   
    47   23   24 1   
    48   23   25 1   
    49   25   28 1   
    50   25   45 1   
@<TRIPOS>SUBSTRUCTURE
     1 PZF         1 TEMP              0 ****  ****    0 ROOT
