@<TRIPOS>MOLECULE
PZF
   48    48     1     0     0
SMALL
bcc


@<TRIPOS>ATOM
      1 N3          0.1390    0.8380    1.3440 nh        1 PZF     -0.231400
      2 C4         -0.5570    0.5850    0.2350 ce        1 PZF      0.632500
      3 C6          0.0110    1.7280   -2.0540 c1        1 PZF      0.074500
      4 C13        -5.8400   -1.2540    4.2670 c3        1 PZF     -0.039100
      5 C21        -7.0890   -1.3560    5.0700 ca        1 PZF     -0.126300
      6 C8          1.3860   -0.3300    7.0930 c1        1 PZF      0.627800
      7 C16        -4.1140   -2.0230    5.9520 c3        1 PZF     -0.089700
      8 C19        -2.1120   -0.9860    1.2390 c3        1 PZF      0.130700
      9 C26        -8.0550   -2.3000    4.7170 ca        1 PZF     -0.119000
     10 C24        -9.5100   -1.5220    6.5200 ca        1 PZF      0.137900
     11 C23        -8.5460   -0.5710    6.8800 ca        1 PZF     -0.170000
     12 C22        -7.3430   -0.4960    6.1590 ca        1 PZF      0.118900
     13 F27        -6.4180    0.4270    6.5290 f         1 PZF     -0.158900
     14 C25        -9.2610   -2.4000    5.4270 ca        1 PZF      0.102900
     15 F28       -10.1840   -3.3200    5.0760 f         1 PZF     -0.103900
     16 C17        -4.8500   -2.3820    4.6210 c3        1 PZF      0.181500
     17 N20        -4.0060   -2.7360    3.5150 n3        1 PZF     -0.924800
     18 N15        -3.0250   -1.0530    5.8050 nh        1 PZF      0.002700
     19 C14        -3.2080    0.2150    6.0380 c2        1 PZF      0.310100
     20 C12        -1.7580   -1.5820    5.3580 c2        1 PZF     -0.166200
     21 N7          1.5340   -0.7180    8.2490 n2        1 PZF     -0.702800
     22 C11        -0.7080   -0.8390    5.1660 c1        1 PZF     -0.180800
     23 C10         0.4450   -0.2060    4.9050 ce        1 PZF      0.387500
     24 N9          1.4720   -0.0810    5.8540 ne        1 PZF     -0.569000
     25 C1          0.7210    0.3770    3.6090 ce        1 PZF     -0.369100
     26 C5         -0.2380    1.2160   -1.0000 cg        1 PZF     -0.286200
     27 O18        -1.6060   -0.2600    0.1090 os        1 PZF     -0.361400
     28 C2         -0.1720    0.2550    2.5850 c1        1 PZF     -0.184900
     29 H6          0.2410    2.1890   -2.9880 ha        1 PZF      0.201500
     30 H13        -4.1930    0.6040    6.3730 h4        1 PZF      0.067800
     31 H8          1.5500   -0.1620    9.0690 hn        1 PZF      0.506400
     32 H161       -4.8810   -1.6080    6.6690 h1        1 PZF      0.100700
     33 H162       -3.6770   -2.9610    6.4000 h1        1 PZF      0.100700
     34 H191       -2.4980   -0.2730    2.0050 h1        1 PZF      0.076033
     35 H192       -1.3140   -1.6370    1.6720 h1        1 PZF      0.076033
     36 H193       -2.9350   -1.5870    0.7680 h1        1 PZF      0.076033
     37 H26        -7.8800   -2.9770    3.8640 ha        1 PZF      0.171000
     38 H23        -8.7350    0.1160    7.7200 ha        1 PZF      0.182000
     39 H17        -6.1100   -1.3220    3.1760 hc        1 PZF      0.071200
     40 H201       -5.4590   -3.3060    4.8780 h1        1 PZF      0.098700
     41 H202       -3.4250   -1.9840    3.2040 hn        1 PZF      0.373300
     42 H141       -5.3570   -0.2540    4.4260 hc        1 PZF      0.071200
     43 H142       -2.3710    0.9320    5.9030 h4        1 PZF      0.067800
     44 H11        -1.7870   -2.6800    5.2190 h4        1 PZF      0.176000
     45 H5          1.6970    0.8900    3.5150 ha        1 PZF      0.128000
     46 H2          0.9040    1.4930    1.2460 hn        1 PZF      0.260700
     47 F29       -10.6680   -1.6060    7.2050 f         1 PZF     -0.098900
     48 H203       -3.4620   -3.5520    3.7030 hn        1 PZF      0.373300
@<TRIPOS>BOND
     1    1    2 2   
     2    1   28 2   
     3    1   46 1   
     4    2   26 1   
     5    2   27 1   
     6    3   26 3   
     7    3   29 1   
     8    4    5 1   
     9    4   16 1   
    10    4   39 1   
    11    4   42 1   
    12    5    9 ar  
    13    5   12 ar  
    14    6   21 2   
    15    6   24 2   
    16    7   16 1   
    17    7   18 1   
    18    7   32 1   
    19    7   33 1   
    20    8   27 1   
    21    8   34 1   
    22    8   35 1   
    23    8   36 1   
    24    9   14 ar  
    25    9   37 1   
    26   10   11 ar  
    27   10   14 ar  
    28   10   47 1   
    29   11   12 ar  
    30   11   38 1   
    31   12   13 1   
    32   14   15 1   
    33   16   17 1   
    34   16   40 1   
    35   17   41 1   
    36   17   48 1   
    37   18   19 2   
    38   18   20 1   
    39   19   30 1   
    40   19   43 1   
    41   20   22 2   
    42   20   44 1   
    43   21   31 1   
    44   22   23 2   
    45   23   24 1   
    46   23   25 1   
    47   25   28 2   
    48   25   45 1   
@<TRIPOS>SUBSTRUCTURE
     1 PZF         1 TEMP              0 ****  ****    0 ROOT
