@<TRIPOS>MOLECULE
PZF
   47    50     1     0     0
SMALL
bcc


@<TRIPOS>ATOM
      1 N3         -6.0340   -1.0340   -0.3710 nb        1 PZF     -0.734000
      2 C4         -6.8430    0.0050   -0.7120 ca        1 PZF      0.636600
      3 C6         -5.2310    1.6560   -0.0260 ca        1 PZF     -0.024000
      4 C13         2.6750   -1.2600    0.4870 c3        1 PZF     -0.044400
      5 C21         3.9220   -0.5570    0.0780 ca        1 PZF     -0.103300
      6 C8         -1.5780    2.0840    2.1590 ca        1 PZF      0.667900
      7 C16         0.3570   -1.4900   -0.3260 c3        1 PZF      0.194800
      8 C19        -8.5330   -1.5480   -1.4160 c3        1 PZF      0.124700
      9 C26         3.8660    0.6230   -0.6660 ca        1 PZF     -0.121000
     10 C24         6.3030    0.7640   -0.6920 ca        1 PZF      0.123900
     11 C23         6.3720   -0.4180    0.0550 ca        1 PZF     -0.184000
     12 C22         5.1890   -1.0740    0.4360 ca        1 PZF      0.142900
     13 F27         5.2880   -2.2170    1.1550 f         1 PZF     -0.126900
     14 C25         5.0350    1.2920   -1.0580 ca        1 PZF      0.083900
     15 F28         4.9590    2.4320   -1.7800 f         1 PZF     -0.118900
     16 C17         1.8430   -1.7410   -0.7370 c3        1 PZF      0.171500
     17 N20         2.0860   -3.1230   -1.0850 n3        1 PZF     -0.912800
     18 N15         0.3620   -0.6640    0.8700 nh        1 PZF     -0.752300
     19 C14         1.7190   -0.3510    1.2920 c3        1 PZF      0.211800
     20 C12        -0.6830    0.2340    1.0930 ca        1 PZF      0.680200
     21 N7         -0.4880    1.3200    1.9190 nb        1 PZF     -0.758000
     22 C11        -1.9780   -0.0220    0.5360 ca        1 PZF     -0.417600
     23 C10        -3.0310    0.8510    0.8700 cp        1 PZF      0.533800
     24 N9         -2.8390    1.9250    1.6880 nb        1 PZF     -0.729000
     25 C1         -4.3690    0.6010    0.3210 cp        1 PZF     -0.313800
     26 C5         -6.4830    1.3700   -0.5540 ca        1 PZF     -0.271300
     27 O18        -8.0970   -0.1990   -1.2460 os        1 PZF     -0.445100
     28 C2         -4.8290   -0.7190    0.1350 ca        1 PZF      0.452200
     29 H6         -4.9190    2.7030    0.1200 ha        1 PZF      0.160000
     30 H13         2.9400   -2.1440    1.1340 hc        1 PZF      0.099700
     31 H8         -1.4140    2.9550    2.8290 h5        1 PZF      0.053100
     32 H161       -0.1840   -0.9920   -1.1770 h1        1 PZF      0.060700
     33 H162       -0.1720   -2.4530   -0.0810 h1        1 PZF      0.060700
     34 H191       -7.8640   -2.0910   -2.1250 h1        1 PZF      0.051700
     35 H192       -8.5750   -2.0760   -0.4330 h1        1 PZF      0.051700
     36 H193       -9.5590   -1.4260   -1.8470 h1        1 PZF      0.051700
     37 H26         2.8910    1.0500   -0.9530 ha        1 PZF      0.164000
     38 H23         7.3500   -0.8310    0.3440 ha        1 PZF      0.173000
     39 H17         2.0680   -1.0480   -1.6050 h1        1 PZF      0.022700
     40 H201        1.6540   -3.3440   -1.9590 hn        1 PZF      0.362300
     41 H202        3.0670   -3.3100   -1.1300 hn        1 PZF      0.362300
     42 H141        1.8040   -0.5660    2.3930 h1        1 PZF      0.067200
     43 H142        1.9730    0.7330    1.1290 h1        1 PZF      0.067200
     44 H11        -2.1540   -0.8780   -0.1260 ha        1 PZF      0.153000
     45 H5         -7.1910    2.1570   -0.8430 ha        1 PZF      0.162000
     46 H2         -4.2010   -1.5850    0.4180 h4        1 PZF      0.028100
     47 F29         7.4350    1.4010   -1.0630 f         1 PZF     -0.115900
@<TRIPOS>BOND
     1    1    2 ar  
     2    1   28 ar  
     3    2   26 ar  
     4    2   27 1   
     5    3   25 ar  
     6    3   26 ar  
     7    3   29 1   
     8    4    5 1   
     9    4   16 1   
    10    4   19 1   
    11    4   30 1   
    12    5    9 ar  
    13    5   12 ar  
    14    6   21 ar  
    15    6   24 ar  
    16    6   31 1   
    17    7   16 1   
    18    7   18 1   
    19    7   32 1   
    20    7   33 1   
    21    8   27 1   
    22    8   34 1   
    23    8   35 1   
    24    8   36 1   
    25    9   14 ar  
    26    9   37 1   
    27   10   11 ar  
    28   10   14 ar  
    29   10   47 1   
    30   11   12 ar  
    31   11   38 1   
    32   12   13 1   
    33   14   15 1   
    34   16   17 1   
    35   16   39 1   
    36   17   40 1   
    37   17   41 1   
    38   18   19 1   
    39   18   20 1   
    40   19   42 1   
    41   19   43 1   
    42   20   21 ar  
    43   20   22 ar  
    44   22   23 ar  
    45   22   44 1   
    46   23   24 ar  
    47   23   25 1   
    48   25   28 ar  
    49   26   45 1   
    50   28   46 1   
@<TRIPOS>SUBSTRUCTURE
     1 PZF         1 TEMP              0 ****  ****    0 ROOT
