@<TRIPOS>MOLECULE
PZH
   18    18     1     0     0
SMALL
bcc


@<TRIPOS>ATOM
      1 N1         -0.0170    0.0020   -0.0430 n4        1 PZH     -0.844600
      2 CB          1.4850    0.0020    0.0210 c3        1 PZH      0.174100
      3 CG          1.9570    0.0010    1.4310 ca        1 PZH     -0.196300
      4 CD1         2.2020   -1.2110    2.0870 ca        1 PZH     -0.096000
      5 CE1         2.6810   -1.2120    3.3950 ca        1 PZH     -0.097000
      6 CZ          2.9200   -0.0010    4.0580 ca        1 PZH      0.014100
      7 CE2         2.6800    1.2100    3.3970 ca        1 PZH     -0.097000
      8 CD2         2.2000    1.2120    2.0900 ca        1 PZH     -0.096000
      9 BR          3.5610   -0.0030    5.8090 br        1 PZH     -0.008100
     10 HN11       -0.3850    0.8320    0.4330 hn        1 PZH      0.458467
     11 HN12       -0.3850   -0.8300    0.4310 hn        1 PZH      0.458467
     12 HB1         1.8460    0.9220   -0.5260 hx        1 PZH      0.114700
     13 HB2         1.8460   -0.9160   -0.5280 hx        1 PZH      0.114700
     14 HD1         2.0380   -2.1700    1.5710 ha        1 PZH      0.145000
     15 HE1         2.8780   -2.1740    3.9010 ha        1 PZH      0.175000
     16 HE2         2.8750    2.1710    3.9060 ha        1 PZH      0.175000
     17 HD2         2.0340    2.1710    1.5750 ha        1 PZH      0.145000
     18 H13        -0.3320    0.0030   -1.0170 hn        1 PZH      0.458467
@<TRIPOS>BOND
     1    1    2 1   
     2    1   10 1   
     3    1   11 1   
     4    1   18 1   
     5    2    3 1   
     6    2   12 1   
     7    2   13 1   
     8    3    4 ar  
     9    3    8 ar  
    10    4    5 ar  
    11    4   14 1   
    12    5    6 ar  
    13    5   15 1   
    14    6    7 ar  
    15    6    9 1   
    16    7    8 ar  
    17    7   16 1   
    18    8   17 1   
@<TRIPOS>SUBSTRUCTURE
     1 PZH         1 TEMP              0 ****  ****    0 ROOT
