@<TRIPOS>MOLECULE
PZH
   18    18     1     0     0
SMALL
bcc


@<TRIPOS>ATOM
      1 N1         -0.0180    0.0010   -0.0420 n4        1 PZH     -0.844600
      2 CB          1.4830    0.0000    0.0210 c3        1 PZH      0.174100
      3 CG          1.9560    0.0000    1.4310 ca        1 PZH     -0.196300
      4 CD1         2.2010   -1.2110    2.0880 ca        1 PZH     -0.096000
      5 CE1         2.6810   -1.2110    3.3960 ca        1 PZH     -0.097000
      6 CZ          2.9220    0.0000    4.0570 ca        1 PZH      0.014100
      7 CE2         2.6830    1.2120    3.3950 ca        1 PZH     -0.097000
      8 CD2         2.2020    1.2120    2.0880 ca        1 PZH     -0.096000
      9 BR          3.5640    0.0010    5.8080 br        1 PZH     -0.008100
     10 HN11       -0.3860    0.8320    0.4330 hn        1 PZH      0.458467
     11 HN12       -0.3870   -0.8290    0.4340 hn        1 PZH      0.458467
     12 HB1         1.8440    0.9190   -0.5280 hx        1 PZH      0.114700
     13 HB2         1.8430   -0.9190   -0.5270 hx        1 PZH      0.114700
     14 HD1         2.0340   -2.1710    1.5730 ha        1 PZH      0.145000
     15 HE1         2.8770   -2.1720    3.9030 ha        1 PZH      0.175000
     16 HE2         2.8800    2.1730    3.9010 ha        1 PZH      0.175000
     17 HD2         2.0370    2.1710    1.5720 ha        1 PZH      0.145000
     18 H13        -0.3340    0.0010   -1.0150 hn        1 PZH      0.458467
@<TRIPOS>BOND
     1    1    2 1   
     2    1   10 1   
     3    1   11 1   
     4    1   18 1   
     5    2    3 1   
     6    2   12 1   
     7    2   13 1   
     8    3    4 ar  
     9    3    8 ar  
    10    4    5 ar  
    11    4   14 1   
    12    5    6 ar  
    13    5   15 1   
    14    6    7 ar  
    15    6    9 1   
    16    7    8 ar  
    17    7   16 1   
    18    8   17 1   
@<TRIPOS>SUBSTRUCTURE
     1 PZH         1 TEMP              0 ****  ****    0 ROOT
