@<TRIPOS>MOLECULE
PZI
   21    21     1     0     0
SMALL
bcc


@<TRIPOS>ATOM
      1 N01         0.7810    0.7010    0.3100 n4        1 PZI     -0.760400
      2 C02         0.9460   -0.7280   -0.1320 c         1 PZI      0.523100
      3 O03         0.0780   -1.5050    0.2240 o         1 PZI     -0.393100
      4 C04         2.1370   -1.0330   -1.0420 c3        1 PZI      0.045000
      5 N05         3.3520   -0.3980   -0.6640 n         1 PZI     -0.505800
      6 C06         4.5660   -1.1860   -0.4550 c3        1 PZI      0.075000
      7 C07         5.7630   -0.2310   -0.6530 c3        1 PZI     -0.097400
      8 C08         5.1720    1.1230   -1.0420 c3        1 PZI     -0.148400
      9 C09         3.6720    0.9230   -1.0500 c         1 PZI      0.704500
     10 O10         2.7870    1.7630   -1.2850 o         1 PZI     -0.656500
     11 HN01        1.4890    0.9230    1.0180 hn        1 PZI      0.478800
     12 HN0A       -0.1520    0.8590    0.7060 hn        1 PZI      0.478800
     13 H04         2.2580   -2.1590   -1.0260 h1        1 PZI      0.123700
     14 H04A        1.8030   -0.7150   -2.0790 h1        1 PZI      0.123700
     15 H06         4.5500   -1.6000    0.5890 h1        1 PZI      0.071200
     16 H07         6.3560   -0.1540    0.2910 hc        1 PZI      0.084700
     17 H08         5.5010    1.4520   -2.0620 hc        1 PZI      0.110700
     18 H08A        5.4420    1.9290   -0.3140 hc        1 PZI      0.110700
     19 H06A        4.6170   -2.0440   -1.1810 h1        1 PZI      0.071200
     20 H07A        6.4390   -0.6190   -1.4540 hc        1 PZI      0.084700
     21 H013        0.9370    1.3340   -0.4960 hn        1 PZI      0.478800
@<TRIPOS>BOND
     1    1    2 1   
     2    1   11 1   
     3    1   12 1   
     4    1   21 1   
     5    2    3 2   
     6    2    4 1   
     7    4    5 1   
     8    4   13 1   
     9    4   14 1   
    10    5    6 1   
    11    5    9 1   
    12    6    7 1   
    13    6   15 1   
    14    6   19 1   
    15    7    8 1   
    16    7   16 1   
    17    7   20 1   
    18    8    9 1   
    19    8   17 1   
    20    8   18 1   
    21    9   10 2   
@<TRIPOS>SUBSTRUCTURE
     1 PZI         1 TEMP              0 ****  ****    0 ROOT
