@<TRIPOS>MOLECULE
PZI
   21    21     1     0     0
SMALL
bcc


@<TRIPOS>ATOM
      1 N01         0.7250    0.5890    0.2360 nz        1 PZI     -0.760400
      2 C02         0.9570   -0.8190   -0.2400 c         1 PZI      0.523100
      3 O03         0.1030   -1.6360    0.0600 o         1 PZI     -0.393100
      4 C04         2.1910   -1.0570   -1.1120 c3        1 PZI      0.044000
      5 N05         3.3670   -0.3910   -0.6700 n         1 PZI     -0.505800
      6 C06         4.6010   -1.1430   -0.4360 c3        1 PZI      0.075000
      7 C07         5.7690   -0.1420   -0.5620 c3        1 PZI     -0.097400
      8 C08         5.1450    1.2020   -0.9350 c3        1 PZI     -0.148400
      9 C09         3.6550    0.9500   -1.0060 c         1 PZI      0.704500
     10 O10         2.7490    1.7660   -1.2510 o         1 PZI     -0.656500
     11 HN01        1.3970    0.8140    0.9760 hn        1 PZI      0.478800
     12 HN0A        0.8880    1.2510   -0.5450 hn        1 PZI      0.478800
     13 H04         1.8850   -0.7200   -2.1510 h1        1 PZI      0.123700
     14 H04A        2.3510   -2.1780   -1.1230 h1        1 PZI      0.123700
     15 H06         4.5600   -1.5880    0.5950 h1        1 PZI      0.071200
     16 H07         6.3230   -0.0720    0.4060 hc        1 PZI      0.084700
     17 H08         5.3590    1.9950   -0.1750 hc        1 PZI      0.110700
     18 H08A        5.5000    1.5710   -1.9320 hc        1 PZI      0.110700
     19 H06A        4.7080   -1.9770   -1.1820 h1        1 PZI      0.071200
     20 H07A        6.4880   -0.4830   -1.3470 hc        1 PZI      0.084700
     21 H013       -0.2280    0.7030    0.5990 hn        1 PZI      0.478800
@<TRIPOS>BOND
     1    1    2 1   
     2    1   11 1   
     3    1   12 1   
     4    1   21 1   
     5    2    3 2   
     6    2    4 1   
     7    4    5 1   
     8    4   13 1   
     9    4   14 1   
    10    5    6 1   
    11    5    9 1   
    12    6    7 1   
    13    6   15 1   
    14    6   19 1   
    15    7    8 1   
    16    7   16 1   
    17    7   20 1   
    18    8    9 1   
    19    8   17 1   
    20    8   18 1   
    21    9   10 2   
@<TRIPOS>SUBSTRUCTURE
     1 PZI         1 TEMP              0 ****  ****    0 ROOT
