@<TRIPOS>MOLECULE
PZI
   20    20     1     0     0
SMALL
bcc


@<TRIPOS>ATOM
      1 N01         2.3860   -0.5160    0.4850 n         1 PZI     -0.666000
      2 C02         2.1850    0.5620   -0.3290 c         1 PZI      0.627100
      3 O03         2.9320    1.5610   -0.2900 o         1 PZI     -0.620100
      4 C04         1.0110    0.5110   -1.3250 c3        1 PZI      0.037000
      5 N05        -0.2770    0.3430   -0.7360 n         1 PZI     -0.481800
      6 C06        -1.1170    1.4770   -0.3960 c3        1 PZI      0.088000
      7 C07        -2.3380    0.9150    0.3650 c3        1 PZI     -0.094400
      8 C08        -2.1090   -0.5910    0.4700 c3        1 PZI     -0.155400
      9 C09        -0.7630   -0.8470   -0.1960 c         1 PZI      0.699500
     10 O10        -0.1760   -1.9390   -0.2670 o         1 PZI     -0.642500
     11 HN01        3.1620   -0.5270    1.0990 hn        1 PZI      0.322500
     12 HN0A        1.8290   -1.3320    0.3980 hn        1 PZI      0.322500
     13 H04         1.0280    1.4780   -1.9030 h1        1 PZI      0.084700
     14 H04A        1.1990   -0.3470   -2.0340 h1        1 PZI      0.084700
     15 H06        -0.5500    2.2110    0.2400 h1        1 PZI      0.053700
     16 H07        -2.4130    1.3830    1.3760 hc        1 PZI      0.059700
     17 H08        -2.0650   -0.9370    1.5310 hc        1 PZI      0.084200
     18 H08A       -2.9010   -1.1750   -0.0610 hc        1 PZI      0.084200
     19 H06A       -1.4360    2.0010   -1.3380 h1        1 PZI      0.053700
     20 H07A       -3.2790    1.1410   -0.1930 hc        1 PZI      0.059700
@<TRIPOS>BOND
     1    1    2 1   
     2    1   11 1   
     3    1   12 1   
     4    2    3 2   
     5    2    4 1   
     6    4    5 1   
     7    4   13 1   
     8    4   14 1   
     9    5    6 1   
    10    5    9 1   
    11    6    7 1   
    12    6   15 1   
    13    6   19 1   
    14    7    8 1   
    15    7   16 1   
    16    7   20 1   
    17    8    9 1   
    18    8   17 1   
    19    8   18 1   
    20    9   10 2   
@<TRIPOS>SUBSTRUCTURE
     1 PZI         1 TEMP              0 ****  ****    0 ROOT
