@<TRIPOS>MOLECULE
PZI
   21    21     1     0     0
SMALL
bcc


@<TRIPOS>ATOM
      1 N01         0.7550    0.7450    0.1720 n4        1 PZI     -0.760400
      2 C02         0.9030   -0.6570   -0.3530 c         1 PZI      0.523100
      3 O03        -0.0170   -1.4200   -0.1170 o         1 PZI     -0.393100
      4 C04         2.1500   -0.9510   -1.1890 c3        1 PZI      0.044000
      5 N05         3.3530   -0.3900   -0.6780 n         1 PZI     -0.505800
      6 C06         4.5200   -1.2380   -0.4320 c3        1 PZI      0.075000
      7 C07         5.7600   -0.3210   -0.4760 c3        1 PZI     -0.097400
      8 C08         5.2490    1.0770   -0.8160 c3        1 PZI     -0.148400
      9 C09         3.7480    0.9390   -0.9490 c         1 PZI      0.704500
     10 O10         2.9140    1.8270   -1.1930 o         1 PZI     -0.656500
     11 HN01       -0.2000    0.9140    0.5070 hn        1 PZI      0.478800
     12 HN0A        1.4130    0.8920    0.9450 hn        1 PZI      0.478800
     13 H04         1.9090   -0.5530   -2.2240 h1        1 PZI      0.123700
     14 H04A        2.2300   -2.0800   -1.2400 h1        1 PZI      0.123700
     15 H06         4.4080   -1.7180    0.5780 h1        1 PZI      0.071200
     16 H07         6.2810   -0.3290    0.5130 hc        1 PZI      0.084700
     17 H08         5.6680    1.4580   -1.7830 hc        1 PZI      0.110700
     18 H08A        5.4900    1.8240   -0.0170 hc        1 PZI      0.110700
     19 H06A        4.5960   -2.0490   -1.2070 h1        1 PZI      0.071200
     20 H07A        6.4830   -0.6840   -1.2480 hc        1 PZI      0.084700
     21 H013        0.9950    1.4230   -0.5740 hn        1 PZI      0.478800
@<TRIPOS>BOND
     1    1    2 1   
     2    1   11 1   
     3    1   12 1   
     4    1   21 1   
     5    2    3 2   
     6    2    4 1   
     7    4    5 1   
     8    4   13 1   
     9    4   14 1   
    10    5    6 1   
    11    5    9 1   
    12    6    7 1   
    13    6   15 1   
    14    6   19 1   
    15    7    8 1   
    16    7   16 1   
    17    7   20 1   
    18    8    9 1   
    19    8   17 1   
    20    8   18 1   
    21    9   10 2   
@<TRIPOS>SUBSTRUCTURE
     1 PZI         1 TEMP              0 ****  ****    0 ROOT
