@<TRIPOS>MOLECULE
PZL
   38    41     1     0     0
SMALL
bcc


@<TRIPOS>ATOM
      1 N19        -5.8920   -3.7830    1.5340 n1        1 PZL     -0.346800
      2 C16        -4.9290   -3.2680    1.1310 cg        1 PZL      0.229800
      3 C13        -3.7520   -2.6390    0.6390 ca        1 PZL      0.020000
      4 C12        -3.0550   -3.2180   -0.4320 ca        1 PZL     -0.114000
      5 C11        -1.9000   -2.5960   -0.9110 ca        1 PZL      0.040400
      6 CL15       -1.0500   -3.2910   -2.2060 cl        1 PZL     -0.071400
      7 C10        -1.4280   -1.4100   -0.3400 ca        1 PZL     -0.158000
      8 C14        -3.3080   -1.4500    1.2260 ca        1 PZL     -0.106000
      9 C9         -2.1410   -0.8510    0.7240 ca        1 PZL      0.120100
     10 O8         -1.7370    0.2920    1.4100 os        1 PZL     -0.229200
     11 C3         -0.8290    1.1180    0.7530 ca        1 PZL      0.068100
     12 C4         -1.2110    2.0020   -0.2650 ca        1 PZL     -0.015900
     13 BR17       -2.9400    2.0280   -0.9790 br        1 PZL     -0.045100
     14 C2          0.4900    1.1400    1.2710 ca        1 PZL      0.132900
     15 F5          0.8300    0.2800    2.2570 f         1 PZL     -0.122900
     16 C6          1.4280    2.0630    0.7630 ca        1 PZL     -0.094300
     17 C7          1.0310    2.9310   -0.2570 ca        1 PZL     -0.095000
     18 C1         -0.2640    2.9040   -0.7650 ca        1 PZL     -0.110000
     19 C18         2.8140    2.1270    1.3100 c3        1 PZL     -0.044400
     20 C26         3.7960    1.4790    0.4060 cc        1 PZL      0.348900
     21 N27         4.4730    2.1060   -0.5940 nd        1 PZL     -0.492100
     22 N28         5.2760    1.2270   -1.1930 na        1 PZL     -0.091800
     23 C24         5.1770   -0.0460   -0.6110 ca        1 PZL      0.338800
     24 N20         5.8200   -1.2430   -0.9040 nb        1 PZL     -0.283000
     25 C25         4.1930    0.0820    0.4580 ca        1 PZL     -0.284200
     26 C23         3.9050   -1.0710    1.1920 ca        1 PZL     -0.122300
     27 C22         4.6040   -2.2220    0.8190 ca        1 PZL      0.288200
     28 N21         5.5270   -2.2500   -0.2100 nb        1 PZL     -0.283000
     29 H12        -3.4190   -4.1520   -0.8870 ha        1 PZL      0.163000
     30 H10        -0.5160   -0.9240   -0.7200 ha        1 PZL      0.164000
     31 H14        -3.8460   -0.9860    2.0660 ha        1 PZL      0.169000
     32 H7          1.7630    3.6480   -0.6650 ha        1 PZL      0.159000
     33 H1         -0.5430    3.6060   -1.5680 ha        1 PZL      0.159000
     34 H18         3.0920    3.2050    1.4790 hc        1 PZL      0.080200
     35 H18A        2.8590    1.6050    2.3060 hc        1 PZL      0.080200
     36 HN28        5.8730    1.5010   -1.9390 hn        1 PZL      0.343700
     37 H23         3.1680   -1.0710    2.0070 ha        1 PZL      0.162000
     38 H22         4.4550   -3.1870    1.3310 h4        1 PZL      0.040100
@<TRIPOS>BOND
     1    1    2 3   
     2    2    3 1   
     3    3    4 ar  
     4    3    8 ar  
     5    4    5 ar  
     6    4   29 1   
     7    5    6 1   
     8    5    7 ar  
     9    7    9 ar  
    10    7   30 1   
    11    8    9 ar  
    12    8   31 1   
    13    9   10 1   
    14   10   11 1   
    15   11   12 ar  
    16   11   14 ar  
    17   12   13 1   
    18   12   18 ar  
    19   14   15 1   
    20   14   16 ar  
    21   16   17 ar  
    22   16   19 1   
    23   17   18 ar  
    24   17   32 1   
    25   18   33 1   
    26   19   20 1   
    27   19   34 1   
    28   19   35 1   
    29   20   21 2   
    30   20   25 1   
    31   21   22 1   
    32   22   23 1   
    33   22   36 1   
    34   23   24 ar  
    35   23   25 ar  
    36   24   28 ar  
    37   25   26 ar  
    38   26   27 ar  
    39   26   37 1   
    40   27   28 ar  
    41   27   38 1   
@<TRIPOS>SUBSTRUCTURE
     1 PZL         1 TEMP              0 ****  ****    0 ROOT
