@<TRIPOS>MOLECULE
PZL
   38    41     1     0     0
SMALL
bcc


@<TRIPOS>ATOM
      1 N19        -2.1320    1.3580   -2.0690 n1        1 PZL     -0.346800
      2 C16        -1.4030    1.0510   -1.2170 cg        1 PZL      0.229800
      3 C13        -0.5090    0.6750   -0.1750 ca        1 PZL      0.020000
      4 C12         0.8500    0.4820   -0.4660 ca        1 PZL     -0.114000
      5 C11         1.7220    0.1130    0.5600 ca        1 PZL      0.040400
      6 CL15        3.3680   -0.1220    0.2170 cl        1 PZL     -0.071400
      7 C10         1.2630   -0.0690    1.8690 ca        1 PZL     -0.158000
      8 C14        -0.9970    0.5060    1.1250 ca        1 PZL     -0.106000
      9 C9         -0.0950    0.1310    2.1330 ca        1 PZL      0.120100
     10 O8         -0.6780   -0.0770    3.3820 os        1 PZL     -0.229200
     11 C3          0.1850   -0.0860    4.4730 ca        1 PZL      0.068100
     12 C4          0.7020    1.0880    5.0380 ca        1 PZL     -0.015900
     13 BR17        0.4410    2.7730    4.2690 br        1 PZL     -0.045100
     14 C2          0.4000   -1.3410    5.0960 ca        1 PZL      0.132900
     15 F5         -0.1150   -2.4570    4.5330 f         1 PZL     -0.122900
     16 C6          1.1350   -1.4120    6.2970 ca        1 PZL     -0.094300
     17 C7          1.6490   -0.2320    6.8410 ca        1 PZL     -0.095000
     18 C1          1.4390    0.9970    6.2250 ca        1 PZL     -0.110000
     19 C18         1.3510   -2.7160    6.9890 c3        1 PZL     -0.044400
     20 C26         2.7230   -3.2370    6.7690 cc        1 PZL      0.348900
     21 N27         3.7970   -2.9720    7.5600 nd        1 PZL     -0.492100
     22 N28         4.8620   -3.6110    7.0760 na        1 PZL     -0.091800
     23 C24         4.5440   -4.3500    5.9260 ca        1 PZL      0.338800
     24 N20         5.3260   -5.1560    5.1070 nb        1 PZL     -0.283000
     25 C25         3.1240   -4.1200    5.6870 ca        1 PZL     -0.284200
     26 C23         2.5620   -4.7490    4.5730 ca        1 PZL     -0.122300
     27 C22         3.4320   -5.5370    3.8140 ca        1 PZL      0.288200
     28 N21         4.7700   -5.7020    4.1200 nb        1 PZL     -0.283000
     29 H12         1.2200    0.6230   -1.4930 ha        1 PZL      0.163000
     30 H10         1.9530   -0.3610    2.6740 ha        1 PZL      0.164000
     31 H14        -2.0600    0.6550    1.3650 ha        1 PZL      0.169000
     32 H7          2.2330   -0.2830    7.7750 ha        1 PZL      0.159000
     33 H1          1.8560    1.9090    6.6840 ha        1 PZL      0.159000
     34 H18         1.1550   -2.5840    8.0890 hc        1 PZL      0.080200
     35 H18A        0.6210   -3.4810    6.6030 hc        1 PZL      0.080200
     36 HN28        5.7440   -3.5590    7.5320 hn        1 PZL      0.343700
     37 H23         1.5030   -4.6230    4.3090 ha        1 PZL      0.162000
     38 H22         3.0940   -6.0780    2.9160 h4        1 PZL      0.040100
@<TRIPOS>BOND
     1    1    2 3   
     2    2    3 1   
     3    3    4 ar  
     4    3    8 ar  
     5    4    5 ar  
     6    4   29 1   
     7    5    6 1   
     8    5    7 ar  
     9    7    9 ar  
    10    7   30 1   
    11    8    9 ar  
    12    8   31 1   
    13    9   10 1   
    14   10   11 1   
    15   11   12 ar  
    16   11   14 ar  
    17   12   13 1   
    18   12   18 ar  
    19   14   15 1   
    20   14   16 ar  
    21   16   17 ar  
    22   16   19 1   
    23   17   18 ar  
    24   17   32 1   
    25   18   33 1   
    26   19   20 1   
    27   19   34 1   
    28   19   35 1   
    29   20   21 2   
    30   20   25 1   
    31   21   22 1   
    32   22   23 1   
    33   22   36 1   
    34   23   24 ar  
    35   23   25 ar  
    36   24   28 ar  
    37   25   26 ar  
    38   26   27 ar  
    39   26   37 1   
    40   27   28 ar  
    41   27   38 1   
@<TRIPOS>SUBSTRUCTURE
     1 PZL         1 TEMP              0 ****  ****    0 ROOT
