@<TRIPOS>MOLECULE
PZL
   38    42     1     0     0
SMALL
bcc


@<TRIPOS>ATOM
      1 N19        -1.2940   -0.0190   -2.2170 n1        1 PZL     -0.040000
      2 C16        -0.7180   -0.0000   -1.2390 c1        1 PZL     -0.105000
      3 C13         0.0000    0.0000    0.0000 ca        1 PZL      0.115000
      4 C12         1.3960    0.0000    0.0000 ca        1 PZL     -0.117000
      5 C11         2.0860    0.0000    1.1980 ca        1 PZL     -0.111000
      6 Cl15        3.8220    0.0000    1.1960 cl        1 PZL      0.073000
      7 C10         1.3960    0.0010    2.3970 ca        1 PZL     -0.189000
      8 C14        -0.6930    0.0070    1.2120 ca        1 PZL     -0.112000
      9 C9          0.0080    0.0010    2.4060 ca        1 PZL      0.117000
     10 O8         -0.6640    0.0010    3.5880 os        1 PZL     -0.107000
     11 C3          0.0650    0.0020    4.7350 ca        1 PZL      0.045000
     12 C4          0.4370    1.2020    5.3220 ca        1 PZL     -0.109000
     13 Br17       -0.0690    2.8410    4.5260 br        1 PZL      0.058000
     14 C2          0.4330   -1.2010    5.3260 ca        1 PZL      0.057000
     15 F5          0.0680   -2.3730    4.7610 f         1 PZL     -0.086000
     16 C6          1.1730   -1.1970    6.4950 ca        1 PZL     -0.072000
     17 C7          1.5480    0.0020    7.0740 ca        1 PZL     -0.068000
     18 C1          1.1780    1.2000    6.4900 ca        1 PZL     -0.079000
     19 C18         1.5730   -2.5010    7.1370 c3        1 PZL     -0.205000
     20 C26         2.8440   -3.0040    6.5030 c3        1 PZL      0.017000
     21 N27         4.0580   -2.7360    6.8940 n2        1 PZL     -0.126000
     22 N28         4.9840   -3.3800    6.0660 nu        1 PZL      0.266000
     23 C24         4.3140   -4.0870    5.1060 c2        1 PZL     -0.149000
     24 N20         4.6830   -4.8580    4.0930 n2        1 PZL     -0.025000
     25 C25         2.9360   -3.8830    5.3470 c2        1 PZL     -0.206000
     26 C23         2.0160   -4.5100    4.4980 c2        1 PZL     -0.080000
     27 C22         2.5150   -5.2880    3.4850 c2        1 PZL     -0.190000
     28 N21         3.8210   -5.4180    3.3230 n2        1 PZL      0.055000
     29 H12         2.1720    0.0780   -0.7530 ha        1 PZL      0.135000
     30 H10         2.0690    0.2670    3.2040 ha        1 PZL      0.138000
     31 H14        -1.7680   -0.0510    1.3280 ha        1 PZL      0.134000
     32 H7          2.1540   -0.1180    7.9630 ha        1 PZL      0.132000
     33 H1          1.3570    2.0150    7.1810 ha        1 PZL      0.129000
     34 H18         0.8070   -2.7920    7.8460 hc        1 PZL      0.166000
     35 H18A        1.7450   -3.2120    6.3380 DU        1 PZL      0.131000
     36 HN28        5.9480   -3.1130    6.0340 hn        1 PZL      0.113000
     37 H23         1.0220   -4.9320    4.4160 ha        1 PZL      0.152000
     38 H22         1.6110   -5.5040    2.9280 h4        1 PZL      0.146000
@<TRIPOS>BOND
     1    1    2 1   
     2    2    3 1   
     3    3    4 1   
     4    3    8 1   
     5    4    5 1   
     6    4   29 1   
     7    5    6 1   
     8    5    7 1   
     9    7    9 1   
    10    7   30 1   
    11    8    9 1   
    12    8   31 1   
    13    9   10 1   
    14   10   11 1   
    15   11   12 1   
    16   11   14 1   
    17   12   13 1   
    18   12   18 1   
    19   14   15 1   
    20   14   16 1   
    21   16   17 1   
    22   16   19 1   
    23   17   18 1   
    24   17   32 1   
    25   18   33 1   
    26   19   20 1   
    27   19   34 1   
    28   19   35 1   
    29   20   21 1   
    30   20   25 1   
    31   20   35 1   
    32   21   22 1   
    33   22   23 1   
    34   22   36 1   
    35   23   24 1   
    36   23   25 1   
    37   24   28 1   
    38   25   26 1   
    39   26   27 1   
    40   26   37 1   
    41   27   28 1   
    42   27   38 1   
@<TRIPOS>SUBSTRUCTURE
     1 PZL         1 TEMP              0 ****  ****    0 ROOT
