@<TRIPOS>MOLECULE
PZM
   22    22     1     0     0
SMALL
bcc


@<TRIPOS>ATOM
      1 N1         -0.0410   -0.1220   -0.1160 n4        1 PZM     -0.848600
      2 CB          1.4610   -0.0230   -0.0440 c3        1 PZM      0.188100
      3 CG          1.9160    0.0400    1.3650 ca        1 PZM     -0.257300
      4 CD1         2.1470   -1.1490    2.0800 ca        1 PZM     -0.055000
      5 CE1         2.6090   -1.1070    3.3830 ca        1 PZM     -0.182500
      6 CZ          2.8560    0.1470    3.9910 ca        1 PZM      0.195100
      7 CE2         2.6340    1.3390    3.2800 ca        1 PZM     -0.182500
      8 CD2         2.1670    1.2760    1.9720 ca        1 PZM     -0.055000
      9 O1          3.3080    0.0810    5.2780 os        1 PZM     -0.301900
     10 CF1         3.6170    1.3180    5.9250 c3        1 PZM      0.104700
     11 HN11       -0.4640    0.6990    0.3260 hn        1 PZM      0.455133
     12 HN12       -0.3550   -0.9560    0.3920 hn        1 PZM      0.455133
     13 HB1         1.8790   -0.9310   -0.5680 hx        1 PZM      0.109200
     14 HB2         1.7620    0.9030   -0.6150 hx        1 PZM      0.109200
     15 HD1         1.9760   -2.1250    1.5970 ha        1 PZM      0.139000
     16 HE1         2.8000   -2.0280    3.9550 ha        1 PZM      0.171000
     17 HE2         2.8340    2.3160    3.7440 ha        1 PZM      0.171000
     18 HD2         2.0110    2.2120    1.4120 ha        1 PZM      0.139000
     19 HF11        3.9770    0.9890    6.9340 h1        1 PZM      0.063367
     20 HF12        2.7000    1.9490    6.0150 h1        1 PZM      0.063367
     21 HF13        4.4230    1.8570    5.3710 h1        1 PZM      0.063367
     22 H13        -0.3500   -0.1810   -1.0890 hn        1 PZM      0.455133
@<TRIPOS>BOND
     1    1    2 1   
     2    1   11 1   
     3    1   12 1   
     4    1   22 1   
     5    2    3 1   
     6    2   13 1   
     7    2   14 1   
     8    3    4 ar  
     9    3    8 ar  
    10    4    5 ar  
    11    4   15 1   
    12    5    6 ar  
    13    5   16 1   
    14    6    7 ar  
    15    6    9 1   
    16    7    8 ar  
    17    7   17 1   
    18    8   18 1   
    19    9   10 1   
    20   10   19 1   
    21   10   20 1   
    22   10   21 1   
@<TRIPOS>SUBSTRUCTURE
     1 PZM         1 TEMP              0 ****  ****    0 ROOT
