@<TRIPOS>MOLECULE
PZM
   22    22     1     0     0
SMALL
bcc


@<TRIPOS>ATOM
      1 N1         -0.0410   -0.1270   -0.1140 nz        1 PZM     -0.848600
      2 CB          1.4600   -0.0220   -0.0440 c3        1 PZM      0.188100
      3 CG          1.9160    0.0400    1.3650 ca        1 PZM     -0.257300
      4 CD1         2.1540   -1.1480    2.0770 ca        1 PZM     -0.055000
      5 CE1         2.6170   -1.1060    3.3800 ca        1 PZM     -0.182500
      6 CZ          2.8580    0.1480    3.9900 ca        1 PZM      0.195100
      7 CE2         2.6300    1.3390    3.2810 ca        1 PZM     -0.182500
      8 CD2         2.1620    1.2770    1.9740 ca        1 PZM     -0.055000
      9 O1          3.3120    0.0820    5.2770 os        1 PZM     -0.301900
     10 CF1         3.6150    1.3190    5.9250 c3        1 PZM      0.104700
     11 HN11       -0.4670    0.6920    0.3290 hn        1 PZM      0.455133
     12 HN12       -0.3510   -0.9630    0.3920 hn        1 PZM      0.455133
     13 HB1         1.8810   -0.9280   -0.5690 hx        1 PZM      0.109200
     14 HB2         1.7570    0.9050   -0.6140 hx        1 PZM      0.109200
     15 HD1         1.9880   -2.1240    1.5930 ha        1 PZM      0.139000
     16 HE1         2.8130   -2.0280    3.9510 ha        1 PZM      0.171000
     17 HE2         2.8250    2.3170    3.7470 ha        1 PZM      0.171000
     18 HD2         2.0000    2.2120    1.4150 ha        1 PZM      0.139000
     19 HF11        3.9780    0.9910    6.9340 h1        1 PZM      0.063367
     20 HF12        2.6950    1.9450    6.0180 h1        1 PZM      0.063367
     21 HF13        4.4180    1.8630    5.3720 h1        1 PZM      0.063367
     22 H13        -0.3510   -0.1860   -1.0870 hn        1 PZM      0.455133
@<TRIPOS>BOND
     1    1    2 1   
     2    1   11 1   
     3    1   12 1   
     4    1   22 1   
     5    2    3 1   
     6    2   13 1   
     7    2   14 1   
     8    3    4 ar  
     9    3    8 ar  
    10    4    5 ar  
    11    4   15 1   
    12    5    6 ar  
    13    5   16 1   
    14    6    7 ar  
    15    6    9 1   
    16    7    8 ar  
    17    7   17 1   
    18    8   18 1   
    19    9   10 1   
    20   10   19 1   
    21   10   20 1   
    22   10   21 1   
@<TRIPOS>SUBSTRUCTURE
     1 PZM         1 TEMP              0 ****  ****    0 ROOT
