@<TRIPOS>MOLECULE
PZM
   21    21     1     0     0
SMALL
bcc


@<TRIPOS>ATOM
      1 N1          3.5710    0.7330   -0.5820 n3        1 PZM     -0.917800
      2 CB          2.9080   -0.0430    0.4420 c3        1 PZM      0.209100
      3 CG          1.4170   -0.1060    0.2860 ca        1 PZM     -0.131300
      4 CD1         0.7580   -1.3390    0.3620 ca        1 PZM     -0.084500
      5 CE1        -0.6240   -1.4130    0.2530 ca        1 PZM     -0.183000
      6 CZ         -1.3620   -0.2290    0.0600 ca        1 PZM      0.125100
      7 CE2        -0.7150    1.0090   -0.0200 ca        1 PZM     -0.183000
      8 CD2         0.6740    1.0610    0.0960 ca        1 PZM     -0.084500
      9 O1         -2.7280   -0.4080   -0.0390 os        1 PZM     -0.327900
     10 CF1        -3.5020    0.7700   -0.2300 c3        1 PZM      0.113700
     11 HN11        4.5560    0.5610   -0.5610 hn        1 PZM      0.351300
     12 HN12        3.2160    0.5130   -1.4910 hn        1 PZM      0.351300
     13 HB1         3.1400    0.4510    1.4320 h1        1 PZM      0.031700
     14 HB2         3.3080   -1.1000    0.5030 h1        1 PZM      0.031700
     15 HD1         1.3370   -2.2640    0.5120 ha        1 PZM      0.140000
     16 HE1        -1.1520   -2.3750    0.3140 ha        1 PZM      0.142500
     17 HE2        -1.2830    1.9370   -0.1700 ha        1 PZM      0.142500
     18 HD2         1.1880    2.0330    0.0370 ha        1 PZM      0.140000
     19 HF11       -3.2230    1.2750   -1.1870 h1        1 PZM      0.044367
     20 HF12       -4.5530    0.3870   -0.2780 h1        1 PZM      0.044367
     21 HF13       -3.3770    1.4700    0.6320 h1        1 PZM      0.044367
@<TRIPOS>BOND
     1    1    2 1   
     2    1   11 1   
     3    1   12 1   
     4    2    3 1   
     5    2   13 1   
     6    2   14 1   
     7    3    4 ar  
     8    3    8 ar  
     9    4    5 ar  
    10    4   15 1   
    11    5    6 ar  
    12    5   16 1   
    13    6    7 ar  
    14    6    9 1   
    15    7    8 ar  
    16    7   17 1   
    17    8   18 1   
    18    9   10 1   
    19   10   19 1   
    20   10   20 1   
    21   10   21 1   
@<TRIPOS>SUBSTRUCTURE
     1 PZM         1 TEMP              0 ****  ****    0 ROOT
