@<TRIPOS>MOLECULE
PZM
   22    22     1     0     0
SMALL
bcc


@<TRIPOS>ATOM
      1 N1         -0.0410   -0.1230   -0.1150 n4        1 PZM     -0.848600
      2 CB          1.4610   -0.0270   -0.0430 c3        1 PZM      0.188100
      3 CG          1.9160    0.0370    1.3650 ca        1 PZM     -0.257300
      4 CD1         2.1450   -1.1500    2.0820 ca        1 PZM     -0.055000
      5 CE1         2.6080   -1.1060    3.3850 ca        1 PZM     -0.182500
      6 CZ          2.8560    0.1480    3.9910 ca        1 PZM      0.195100
      7 CE2         2.6350    1.3390    3.2790 ca        1 PZM     -0.182500
      8 CD2         2.1680    1.2740    1.9710 ca        1 PZM     -0.055000
      9 O1          3.3080    0.0840    5.2790 os        1 PZM     -0.301900
     10 CF1         3.6180    1.3220    5.9230 c3        1 PZM      0.104700
     11 HN11       -0.3500   -0.1830   -1.0880 hn        1 PZM      0.455133
     12 HN12       -0.4620    0.7010    0.3250 hn        1 PZM      0.455133
     13 HB1         1.7640    0.8970   -0.6170 hx        1 PZM      0.109200
     14 HB2         1.8770   -0.9380   -0.5650 hx        1 PZM      0.109200
     15 HD1         1.9740   -2.1270    1.6010 ha        1 PZM      0.139000
     16 HE1         2.7970   -2.0270    3.9590 ha        1 PZM      0.171000
     17 HE2         2.8360    2.3170    3.7400 ha        1 PZM      0.171000
     18 HD2         2.0130    2.2090    1.4090 ha        1 PZM      0.139000
     19 HF11        2.7010    1.9540    6.0130 h1        1 PZM      0.063367
     20 HF12        3.9770    0.9940    6.9330 h1        1 PZM      0.063367
     21 HF13        4.4240    1.8590    5.3690 h1        1 PZM      0.063367
     22 H13        -0.3570   -0.9550    0.3940 hn        1 PZM      0.455133
@<TRIPOS>BOND
     1    1    2 1   
     2    1   11 1   
     3    1   12 1   
     4    1   22 1   
     5    2    3 1   
     6    2   13 1   
     7    2   14 1   
     8    3    4 ar  
     9    3    8 ar  
    10    4    5 ar  
    11    4   15 1   
    12    5    6 ar  
    13    5   16 1   
    14    6    7 ar  
    15    6    9 1   
    16    7    8 ar  
    17    7   17 1   
    18    8   18 1   
    19    9   10 1   
    20   10   19 1   
    21   10   20 1   
    22   10   21 1   
@<TRIPOS>SUBSTRUCTURE
     1 PZM         1 TEMP              0 ****  ****    0 ROOT
