@<TRIPOS>MOLECULE
PZN
   85    86     1     0     0
SMALL
bcc


@<TRIPOS>ATOM
      1 C1         12.4950   -1.7100   -1.8890 c3        1 PZN     -0.091100
      2 C2         11.0170   -1.6750   -2.1770 c3        1 PZN     -0.080400
      3 C3         10.2540   -0.9540   -1.0870 c3        1 PZN     -0.078400
      4 C4          8.7700   -0.9200   -1.3820 c3        1 PZN     -0.079400
      5 C5          8.0100   -0.2050   -0.2850 c3        1 PZN     -0.080400
      6 C6          6.5240   -0.1440   -0.6340 c3        1 PZN      0.168800
      7 N1          5.6730    0.3190    0.4590 n3        1 PZN     -0.718600
      8 C7          6.0650    1.6170    0.9630 c3        1 PZN      0.145100
      9 C8          4.2670    0.2640    0.0680 c3        1 PZN      0.043800
     10 C9          3.2670    0.3450    1.2030 c         1 PZN      0.580100
     11 O1          3.5520    0.6930    2.3510 o         1 PZN     -0.534100
     12 C10         1.8410   -0.0700    0.8060 c3        1 PZN      0.008700
     13 N2          0.8520    0.5270    1.6890 n         1 PZN     -0.510900
     14 C11         1.5180    0.2500   -0.6620 c3        1 PZN     -0.232400
     15 C12         1.4590    1.7640   -0.9230 c         1 PZN      0.908600
     16 O2          2.3610    2.2860   -1.6300 o         1 PZN     -0.844300
     17 O3          0.4990    2.4200   -0.4060 o         1 PZN     -0.844300
     18 C13        -0.2640   -0.1760    2.0840 c         1 PZN      0.631100
     19 C14        -1.4480    0.6830    2.6220 c3        1 PZN      0.036700
     20 O4         -0.3300   -1.4210    2.0920 o         1 PZN     -0.610100
     21 C15        -1.7080    0.2380    4.0620 c3        1 PZN     -0.080400
     22 C16        -2.6100    1.1870    4.8040 c3        1 PZN     -0.091100
     23 N3         -2.5590    0.6380    1.6730 n         1 PZN     -0.309000
     24 C18        -4.6910   -0.0950    0.6730 cc        1 PZN      0.501200
     25 N4         -4.4930    0.6110   -0.4280 nd        1 PZN     -0.565300
     26 C19        -3.3080    1.3230   -0.5340 cd        1 PZN      0.033400
     27 C24        -2.3530    1.3050    0.4680 cc        1 PZN     -0.067400
     28 C17        -3.7290   -0.1050    1.8500 c         1 PZN      0.572200
     29 O5         -4.0200   -0.6920    2.9130 o         1 PZN     -0.654500
     30 C20        -3.0210    2.1100   -1.8000 c3        1 PZN      0.026200
     31 C23        -2.5290    3.5060   -1.4280 c3        1 PZN     -0.092433
     32 C21        -1.9230    1.3890   -2.5770 c3        1 PZN     -0.092433
     33 C22        -4.2520    2.2460   -2.6870 c3        1 PZN     -0.092433
     34 N5         -5.7810   -0.9910    0.8080 nh        1 PZN     -0.777200
     35 C25        -6.9420   -0.7560   -0.0250 c3        1 PZN      0.155500
     36 C26        -7.9990   -1.7850    0.2060 cc        1 PZN      0.216300
     37 C27        -7.8070   -3.2660    0.2050 cc        1 PZN      0.259300
     38 N7         -9.0280   -3.7920    0.3990 nd        1 PZN     -0.366300
     39 O6         -9.8890   -2.7770    0.5110 os        1 PZN      0.103600
     40 N6         -9.3100   -1.5810    0.4060 nd        1 PZN     -0.346300
     41 C28        -6.5230   -3.9620    0.0330 c3        1 PZN     -0.136400
     42 H11        12.9070   -0.6740   -1.8120 hc        1 PZN      0.029367
     43 H12        12.6960   -2.2370   -0.9250 hc        1 PZN      0.029367
     44 H13        13.0390   -2.2460   -2.7040 hc        1 PZN      0.029367
     45 H21        10.8370   -1.1630   -3.1600 hc        1 PZN      0.037700
     46 H22        10.6270   -2.7220   -2.2760 hc        1 PZN      0.037700
     47 H31        10.4300   -1.4650   -0.1040 hc        1 PZN      0.038200
     48 H32        10.6420    0.0940   -0.9870 hc        1 PZN      0.038200
     49 H41         8.5930   -0.4030   -2.3620 hc        1 PZN      0.039200
     50 H42         8.3840   -1.9680   -1.4880 hc        1 PZN      0.039200
     51 H51         8.1580   -0.7410    0.6890 hc        1 PZN      0.045200
     52 H52         8.4170    0.8330   -0.1640 hc        1 PZN      0.045200
     53 H61         6.4040    0.5000   -1.5560 h1        1 PZN      0.028200
     54 H62         6.1840   -1.1850   -0.9040 h1        1 PZN      0.028200
     55 H71         5.3310    1.9450    1.7460 h1        1 PZN      0.036033
     56 H72         7.0760    1.5250    1.4400 h1        1 PZN      0.036033
     57 H73         6.1150    2.4070    0.1630 h1        1 PZN      0.036033
     58 H81         3.9890    1.0970   -0.6580 h1        1 PZN      0.087700
     59 H82         4.0960   -0.7240   -0.4500 h1        1 PZN      0.087700
     60 H10         1.8060   -1.1940    0.9470 h1        1 PZN      0.083700
     61 HN2         0.7350    1.5140    1.5230 hn        1 PZN      0.340500
     62 H111        2.2680   -0.2250   -1.3390 hc        1 PZN      0.047700
     63 H112        0.5160   -0.1850   -0.9120 hc        1 PZN      0.047700
     64 H14        -1.1400    1.7760    2.6680 h1        1 PZN      0.076700
     65 H151       -2.1260   -0.8030    4.0770 hc        1 PZN      0.074700
     66 H152       -0.7040    0.2030    4.5670 hc        1 PZN      0.074700
     67 H161       -2.2200    2.2330    4.7570 hc        1 PZN      0.033700
     68 H162       -3.6400    1.1690    4.3700 hc        1 PZN      0.033700
     69 H163       -2.6780    0.8830    5.8770 hc        1 PZN      0.033700
     70 H24        -1.3690    1.8190    0.3330 h4        1 PZN      0.238000
     71 H231       -1.5010    3.4580   -0.9840 hc        1 PZN      0.041478
     72 H232       -2.4790    4.1430   -2.3450 hc        1 PZN      0.041478
     73 H233       -3.2270    3.9840   -0.7010 hc        1 PZN      0.041478
     74 H211       -2.2300    0.3400   -2.8020 hc        1 PZN      0.041478
     75 H212       -1.7310    1.9220   -3.5390 hc        1 PZN      0.041478
     76 H213       -0.9730    1.3790   -1.9820 hc        1 PZN      0.041478
     77 H221       -5.0830    2.7420   -2.1320 hc        1 PZN      0.041478
     78 H222       -4.0000    2.8680   -3.5800 hc        1 PZN      0.041478
     79 H223       -4.5990    1.2470   -3.0420 hc        1 PZN      0.041478
     80 HN5        -6.0040   -1.1470    1.7740 hn        1 PZN      0.415800
     81 H251       -7.3740    0.2780    0.1270 h1        1 PZN      0.075200
     82 H252       -6.6250   -0.8370   -1.1070 h1        1 PZN      0.075200
     83 H281       -5.9360   -3.4640   -0.7800 hc        1 PZN      0.071033
     84 H282       -5.9310   -3.8920    0.9820 hc        1 PZN      0.071033
     85 H283       -6.6670   -5.0400   -0.2250 hc        1 PZN      0.071033
@<TRIPOS>BOND
     1    1    2 1   
     2    1   42 1   
     3    1   43 1   
     4    1   44 1   
     5    2    3 1   
     6    2   45 1   
     7    2   46 1   
     8    3    4 1   
     9    3   47 1   
    10    3   48 1   
    11    4    5 1   
    12    4   49 1   
    13    4   50 1   
    14    5    6 1   
    15    5   51 1   
    16    5   52 1   
    17    6    7 1   
    18    6   53 1   
    19    6   54 1   
    20    7    8 1   
    21    7    9 1   
    22    8   55 1   
    23    8   56 1   
    24    8   57 1   
    25    9   10 1   
    26    9   58 1   
    27    9   59 1   
    28   10   11 2   
    29   10   12 1   
    30   12   13 1   
    31   12   14 1   
    32   12   60 1   
    33   13   18 1   
    34   13   61 1   
    35   14   15 1   
    36   14   62 1   
    37   14   63 1   
    38   15   16 1   
    39   15   17 1   
    40   18   19 1   
    41   18   20 2   
    42   19   21 1   
    43   19   23 1   
    44   19   64 1   
    45   21   22 1   
    46   21   65 1   
    47   21   66 1   
    48   22   67 1   
    49   22   68 1   
    50   22   69 1   
    51   23   27 1   
    52   23   28 1   
    53   24   25 2   
    54   24   28 1   
    55   24   34 1   
    56   25   26 1   
    57   26   27 2   
    58   26   30 1   
    59   27   70 1   
    60   28   29 2   
    61   30   31 1   
    62   30   32 1   
    63   30   33 1   
    64   31   71 1   
    65   31   72 1   
    66   31   73 1   
    67   32   74 1   
    68   32   75 1   
    69   32   76 1   
    70   33   77 1   
    71   33   78 1   
    72   33   79 1   
    73   34   35 1   
    74   34   80 1   
    75   35   36 1   
    76   35   81 1   
    77   35   82 1   
    78   36   37 1   
    79   36   40 2   
    80   37   38 2   
    81   37   41 1   
    82   38   39 1   
    83   39   40 1   
    84   41   83 1   
    85   41   84 1   
    86   41   85 1   
@<TRIPOS>SUBSTRUCTURE
     1 PZN         1 TEMP              0 ****  ****    0 ROOT
