@<TRIPOS>MOLECULE
PZN
   88    89     1     0     0
SMALL
bcc


@<TRIPOS>ATOM
      1 C1          0.6970    0.6850   -0.6740 c3        1 PZN     -0.097100
      2 C2          2.1160    0.2800   -0.3690 c3        1 PZN     -0.078400
      3 C3          2.4210    0.4170    1.1080 c3        1 PZN     -0.080400
      4 C4          3.8480    0.0080    1.4070 c3        1 PZN     -0.079400
      5 C5          4.1440    0.1510    2.8890 c3        1 PZN     -0.106400
      6 C6          5.5800   -0.2880    3.1550 c3        1 PZN      0.106800
      7 N1          6.0030   -0.0910    4.5840 n4        1 PZN     -0.671400
      8 C7          5.3860   -1.1120    5.4770 c3        1 PZN      0.086100
      9 C8          7.4950   -0.1050    4.6980 c3        1 PZN      0.009800
     10 C9          8.0070    0.4530    6.0180 c         1 PZN      0.550100
     11 O1          7.2580    1.0600    6.7850 o         1 PZN     -0.495100
     12 C10         9.5060    0.2660    6.2830 c3        1 PZN      0.027700
     13 N2          9.9260    0.9040    7.5110 n         1 PZN     -0.553900
     14 C11         9.8950   -1.2260    6.2560 c3        1 PZN     -0.194400
     15 C12         8.9050   -2.1040    6.9640 c         1 PZN      0.637100
     16 O2          7.6770   -2.0070    6.8440 o         1 PZN     -0.552000
     17 O3          9.3060   -3.1070    7.7760 oh        1 PZN     -0.526100
     18 C13        10.7580    2.0190    7.4840 c         1 PZN      0.648100
     19 C14        10.9540    2.7520    8.8370 c3        1 PZN      0.034700
     20 O4         11.3530    2.3500    6.4460 o         1 PZN     -0.567100
     21 C15         9.6460    3.4610    9.2310 c3        1 PZN     -0.100400
     22 C16         9.6950    3.9980   10.6370 c3        1 PZN     -0.106100
     23 N3         12.1170    3.6450    8.7980 n         1 PZN     -0.285000
     24 C18        13.3930    5.5610    7.9900 cc        1 PZN      0.310200
     25 N4         14.4560    5.2550    8.7210 nd        1 PZN     -0.430300
     26 C19        14.3870    4.1400    9.5190 cd        1 PZN      0.033400
     27 C24        13.2320    3.3450    9.5420 cc        1 PZN      0.037600
     28 C17        12.1170    4.7840    7.9620 c         1 PZN      0.598200
     29 O5         11.1420    5.1300    7.2740 o         1 PZN     -0.598500
     30 C20        15.6020    3.8060   10.3730 c3        1 PZN      0.017200
     31 C23        15.3720    2.5440   11.1930 c3        1 PZN     -0.097433
     32 C21        16.8090    3.5870    9.4660 c3        1 PZN     -0.097433
     33 C22        15.8790    4.9650   11.3260 c3        1 PZN     -0.097433
     34 N5         13.4100    6.7580    7.1280 n4        1 PZN     -0.687000
     35 C25        14.5790    6.7770    6.1880 c3        1 PZN      0.107500
     36 C26        14.5420    7.9480    5.2810 cc        1 PZN      0.121300
     37 C27        15.7120    8.5760    4.6150 cc        1 PZN      0.277300
     38 N7         15.1970    9.5720    3.8670 nd        1 PZN     -0.293300
     39 O6         13.8750    9.5750    4.0430 os        1 PZN      0.175600
     40 N6         13.4560    8.6310    4.8640 nd        1 PZN     -0.333300
     41 C28        17.1210    8.1750    4.7460 c3        1 PZN     -0.150400
     42 H11         0.5180    1.7490   -0.3860 hc        1 PZN      0.044033
     43 H12         0.4930    0.5770   -1.7670 hc        1 PZN      0.044033
     44 H13        -0.0270    0.0430   -0.1160 hc        1 PZN      0.044033
     45 H21         2.2820   -0.7820   -0.6900 hc        1 PZN      0.044200
     46 H22         2.8260    0.9190   -0.9590 hc        1 PZN      0.044200
     47 H31         2.2560    1.4800    1.4290 hc        1 PZN      0.049200
     48 H32         1.7120   -0.2230    1.6970 hc        1 PZN      0.049200
     49 H41         4.0080   -1.0560    1.0890 hc        1 PZN      0.054200
     50 H42         4.5540    0.6470    0.8140 hc        1 PZN      0.054200
     51 H51         3.4220   -0.4780    3.4730 hc        1 PZN      0.069200
     52 H52         3.9940    1.2200    3.1970 hc        1 PZN      0.069200
     53 H61         5.7030   -1.3810    2.9080 hx        1 PZN      0.100700
     54 H62         6.2740    0.3120    2.4980 hx        1 PZN      0.100700
     55 H71         5.6600   -0.8780    6.5440 hx        1 PZN      0.114700
     56 H72         4.2710   -1.0820    5.3500 hx        1 PZN      0.114700
     57 H73         5.7760   -2.1330    5.2200 hx        1 PZN      0.114700
     58 H81         7.9320    0.5170    3.8620 hx        1 PZN      0.125200
     59 H82         7.8400   -1.1740    4.5870 hx        1 PZN      0.125200
     60 H10        10.0560    0.7670    5.4200 h1        1 PZN      0.128700
     61 HN2         9.3230    0.7780    8.2950 hn        1 PZN      0.331500
     62 H111       10.9240   -1.3530    6.6910 hc        1 PZN      0.102200
     63 H112        9.9490   -1.5640    5.1850 hc        1 PZN      0.102200
     64 H14        11.1720    1.9650    9.6260 h1        1 PZN      0.098700
     65 H151        8.8100    2.7150    9.1560 hc        1 PZN      0.082700
     66 H152        9.4210    4.2880    8.5060 hc        1 PZN      0.082700
     67 H161        9.9550    3.1940   11.3680 hc        1 PZN      0.054033
     68 H162        8.6920    4.4090   10.9140 hc        1 PZN      0.054033
     69 H163       10.4410    4.8220   10.7350 hc        1 PZN      0.054033
     70 H24        13.1750    2.4370   10.1770 h4        1 PZN      0.201000
     71 H231       14.5140    2.6710   11.8960 hc        1 PZN      0.051922
     72 H232       16.2860    2.3350   11.8040 hc        1 PZN      0.051922
     73 H233       15.1930    1.6620   10.5330 hc        1 PZN      0.051922
     74 H211       16.5960    2.7900    8.7150 hc        1 PZN      0.051922
     75 H212       17.6840    3.2690   10.0850 hc        1 PZN      0.051922
     76 H213       17.0840    4.5270    8.9320 hc        1 PZN      0.051922
     77 H221       14.9810    5.1810   11.9520 hc        1 PZN      0.051922
     78 H222       16.7270    4.6940   12.0020 hc        1 PZN      0.051922
     79 H223       16.1620    5.8870   10.7650 hc        1 PZN      0.051922
     80 HN5        12.5230    6.7600    6.5890 hn        1 PZN      0.482800
     81 H251       15.5340    6.8040    6.7940 hx        1 PZN      0.130700
     82 H252       14.5550    5.8210    5.5850 hx        1 PZN      0.130700
     83 H281       17.3320    7.3080    4.0690 hc        1 PZN      0.081367
     84 H282       17.8120    9.0120    4.4640 hc        1 PZN      0.081367
     85 H283       17.3370    7.8750    5.8010 hc        1 PZN      0.081367
     86 H113        5.6720    0.8350    4.8980 hn        1 PZN      0.457800
     87 H224       10.2740   -3.1660    7.8060 ho        1 PZN      0.449000
     88 H521       13.4330    7.6000    7.7200 hn        1 PZN      0.482800
@<TRIPOS>BOND
     1    1    2 1   
     2    1   42 1   
     3    1   43 1   
     4    1   44 1   
     5    2    3 1   
     6    2   45 1   
     7    2   46 1   
     8    3    4 1   
     9    3   47 1   
    10    3   48 1   
    11    4    5 1   
    12    4   49 1   
    13    4   50 1   
    14    5    6 1   
    15    5   51 1   
    16    5   52 1   
    17    6    7 1   
    18    6   53 1   
    19    6   54 1   
    20    7    8 1   
    21    7    9 1   
    22    7   86 1   
    23    8   55 1   
    24    8   56 1   
    25    8   57 1   
    26    9   10 1   
    27    9   58 1   
    28    9   59 1   
    29   10   11 2   
    30   10   12 1   
    31   12   13 1   
    32   12   14 1   
    33   12   60 1   
    34   13   18 1   
    35   13   61 1   
    36   14   15 1   
    37   14   62 1   
    38   14   63 1   
    39   15   16 2   
    40   15   17 1   
    41   17   87 1   
    42   18   19 1   
    43   18   20 2   
    44   19   21 1   
    45   19   23 1   
    46   19   64 1   
    47   21   22 1   
    48   21   65 1   
    49   21   66 1   
    50   22   67 1   
    51   22   68 1   
    52   22   69 1   
    53   23   27 1   
    54   23   28 1   
    55   24   25 2   
    56   24   28 1   
    57   24   34 1   
    58   25   26 1   
    59   26   27 2   
    60   26   30 1   
    61   27   70 1   
    62   28   29 2   
    63   30   31 1   
    64   30   32 1   
    65   30   33 1   
    66   31   71 1   
    67   31   72 1   
    68   31   73 1   
    69   32   74 1   
    70   32   75 1   
    71   32   76 1   
    72   33   77 1   
    73   33   78 1   
    74   33   79 1   
    75   34   35 1   
    76   34   80 1   
    77   34   88 1   
    78   35   36 1   
    79   35   81 1   
    80   35   82 1   
    81   36   37 1   
    82   36   40 2   
    83   37   38 2   
    84   37   41 1   
    85   38   39 1   
    86   39   40 1   
    87   41   83 1   
    88   41   84 1   
    89   41   85 1   
@<TRIPOS>SUBSTRUCTURE
     1 PZN         1 TEMP              0 ****  ****    0 ROOT
