@<TRIPOS>MOLECULE
PZN
   87    88     1     0     0
SMALL
bcc


@<TRIPOS>ATOM
      1 C1          0.9380    0.6740   -0.9000 c3        1 PZN     -0.096100
      2 C2          1.9680   -0.1650   -0.1890 c3        1 PZN     -0.079400
      3 C3          2.7840    0.6690    0.7770 c3        1 PZN     -0.080400
      4 C4          3.8170   -0.1800    1.4890 c3        1 PZN     -0.079400
      5 C5          4.6310    0.6630    2.4510 c3        1 PZN     -0.105400
      6 C6          5.6390   -0.2270    3.1660 c3        1 PZN      0.108800
      7 N1          6.5820    0.5380    4.0500 nx        1 PZN     -0.667400
      8 C7          5.8670    1.1180    5.2220 c3        1 PZN      0.065100
      9 C8          7.7030   -0.3520    4.4900 c3        1 PZN     -0.002200
     10 C9          8.8850    0.4440    5.0220 c         1 PZN      0.549100
     11 O1          9.2050    1.5070    4.4810 o         1 PZN     -0.499100
     12 C10         9.6880   -0.1100    6.2040 c3        1 PZN      0.074500
     13 N2         10.2210    1.0380    7.0170 ny        1 PZN     -0.691800
     14 C11         8.8560   -1.0330    7.0960 c3        1 PZN     -0.247400
     15 C12         7.5610   -0.3060    7.5050 c         1 PZN      0.899600
     16 O2          6.4640   -0.8480    7.2240 o         1 PZN     -0.805800
     17 O3          7.6820    0.8610    7.9970 o         1 PZN     -0.805800
     18 C13        11.2970    0.6620    7.9760 c         1 PZN      0.537100
     19 C14        11.5460    1.6140    9.1710 c3        1 PZN      0.057700
     20 O4         11.9200   -0.3720    7.7840 o         1 PZN     -0.434100
     21 C15        10.2220    2.1410    9.7470 c3        1 PZN     -0.120400
     22 C16        10.4040    2.6080   11.1680 c3        1 PZN     -0.099100
     23 N3         12.5180    2.6310    8.8170 n         1 PZN     -0.328000
     24 C18        13.2830    4.7130    7.7210 cc        1 PZN      0.599200
     25 N4         14.4030    4.7340    8.4330 nd        1 PZN     -0.592300
     26 C19        14.6360    3.6980    9.3310 cd        1 PZN      0.125400
     27 C24        13.7280    2.6780    9.5270 cc        1 PZN     -0.129400
     28 C17        12.2290    3.6320    7.8910 c         1 PZN      0.560200
     29 O5         11.1650    3.6060    7.2290 o         1 PZN     -0.698500
     30 C20        15.9480    3.7430   10.0970 c3        1 PZN      0.012200
     31 C23        16.0870    2.5580   11.0430 c3        1 PZN     -0.090767
     32 C21        17.1090    3.7130    9.1070 c3        1 PZN     -0.090767
     33 C22        16.0080    5.0290   10.9150 c3        1 PZN     -0.090767
     34 N5         13.0110    5.6310    6.7130 nu        1 PZN     -0.796200
     35 C25        13.7970    6.8380    6.6100 c3        1 PZN      0.184500
     36 C26        13.3600    7.7480    5.5180 cc        1 PZN      0.197300
     37 C27        14.2100    8.8210    4.9260 cc        1 PZN      0.246300
     38 N7         13.4430    9.4160    3.9960 nd        1 PZN     -0.326300
     39 O6         12.2600    8.8020    3.9940 os        1 PZN      0.128600
     40 N6         12.1780    7.8140    4.8820 nd        1 PZN     -0.345300
     41 C28        15.5940    9.1320    5.3110 c3        1 PZN     -0.140400
     42 H11         0.2320    1.1370   -0.1690 hc        1 PZN      0.041367
     43 H12         0.3480    0.0410   -1.6070 hc        1 PZN      0.041367
     44 H13         1.4260    1.4920   -1.4820 hc        1 PZN      0.041367
     45 H21         2.6510   -0.6420   -0.9410 hc        1 PZN      0.043700
     46 H22         1.4590   -0.9950    0.3700 hc        1 PZN      0.043700
     47 H31         3.2950    1.4980    0.2200 hc        1 PZN      0.048200
     48 H32         2.1020    1.1450    1.5300 hc        1 PZN      0.048200
     49 H41         3.3030   -1.0060    2.0500 hc        1 PZN      0.053700
     50 H42         4.4950   -0.6590    0.7340 hc        1 PZN      0.053700
     51 H51         5.1540    1.4780    1.8830 hc        1 PZN      0.067200
     52 H52         3.9430    1.1500    3.1920 hc        1 PZN      0.067200
     53 H61         6.2550   -0.7800    2.4000 hx        1 PZN      0.103200
     54 H62         5.1020   -0.9810    3.8120 hx        1 PZN      0.103200
     55 H71         5.3120    0.3080    5.7800 hx        1 PZN      0.123700
     56 H72         5.1550    1.9040    4.8580 hx        1 PZN      0.123700
     57 H73         6.6130    1.5640    5.9400 hx        1 PZN      0.123700
     58 H81         7.2750   -1.0690    5.2610 hx        1 PZN      0.151700
     59 H82         8.0730   -0.9490    3.6050 hx        1 PZN      0.151700
     60 H10        10.5720   -0.6790    5.7770 hx        1 PZN      0.127700
     61 HN2         9.3960    1.4280    7.5680 hn        1 PZN      0.509800
     62 H111        9.4300   -1.3150    8.0160 hc        1 PZN      0.089700
     63 H112        8.6290   -1.9810    6.5480 hc        1 PZN      0.089700
     64 H14        12.0160    0.9380    9.9580 h1        1 PZN      0.123700
     65 H151        9.8250    2.9860    9.1210 hc        1 PZN      0.090700
     66 H152        9.4580    1.3140    9.7260 hc        1 PZN      0.090700
     67 H161       10.7560    1.7740   11.8230 hc        1 PZN      0.054367
     68 H162       11.1420    3.4430   11.2290 hc        1 PZN      0.054367
     69 H163        9.4250    2.9740   11.5650 hc        1 PZN      0.054367
     70 H24        13.8960    1.8520   10.2390 h4        1 PZN      0.179000
     71 H231       15.2710    2.5580   11.8060 hc        1 PZN      0.045589
     72 H232       16.0720    1.5940   10.4820 hc        1 PZN      0.045589
     73 H233       17.0640    2.6300   11.5820 hc        1 PZN      0.045589
     74 H211       18.0750    3.6740    9.6670 hc        1 PZN      0.045589
     75 H212       17.0400    2.8120    8.4530 hc        1 PZN      0.045589
     76 H213       17.1110    4.6260    8.4660 hc        1 PZN      0.045589
     77 H221       16.9370    5.0330   11.5360 hc        1 PZN      0.045589
     78 H222       16.0250    5.9250   10.2510 hc        1 PZN      0.045589
     79 H223       15.1250    5.1000   11.5940 hc        1 PZN      0.045589
     80 HN5        12.0530    5.6750    6.4310 hn        1 PZN      0.458800
     81 H251       14.8730    6.5470    6.4130 h1        1 PZN      0.081200
     82 H252       13.7730    7.4240    7.5800 h1        1 PZN      0.081200
     83 H281       15.6160    9.4960    6.3700 hc        1 PZN      0.071033
     84 H282       16.0400    9.9210    4.6540 hc        1 PZN      0.071033
     85 H283       16.2210    8.2070    5.2370 hc        1 PZN      0.071033
     86 H113        6.9850    1.3140    3.5030 hn        1 PZN      0.448800
     87 H224       10.5720    1.7930    6.4000 hn        1 PZN      0.509800
@<TRIPOS>BOND
     1    1    2 1   
     2    1   42 1   
     3    1   43 1   
     4    1   44 1   
     5    2    3 1   
     6    2   45 1   
     7    2   46 1   
     8    3    4 1   
     9    3   47 1   
    10    3   48 1   
    11    4    5 1   
    12    4   49 1   
    13    4   50 1   
    14    5    6 1   
    15    5   51 1   
    16    5   52 1   
    17    6    7 1   
    18    6   53 1   
    19    6   54 1   
    20    7    8 1   
    21    7    9 1   
    22    7   86 1   
    23    8   55 1   
    24    8   56 1   
    25    8   57 1   
    26    9   10 1   
    27    9   58 1   
    28    9   59 1   
    29   10   11 2   
    30   10   12 1   
    31   12   13 1   
    32   12   14 1   
    33   12   60 1   
    34   13   18 1   
    35   13   61 1   
    36   13   87 1   
    37   14   15 1   
    38   14   62 1   
    39   14   63 1   
    40   15   16 1   
    41   15   17 1   
    42   18   19 1   
    43   18   20 2   
    44   19   21 1   
    45   19   23 1   
    46   19   64 1   
    47   21   22 1   
    48   21   65 1   
    49   21   66 1   
    50   22   67 1   
    51   22   68 1   
    52   22   69 1   
    53   23   27 1   
    54   23   28 1   
    55   24   25 2   
    56   24   28 1   
    57   24   34 1   
    58   25   26 1   
    59   26   27 2   
    60   26   30 1   
    61   27   70 1   
    62   28   29 2   
    63   30   31 1   
    64   30   32 1   
    65   30   33 1   
    66   31   71 1   
    67   31   72 1   
    68   31   73 1   
    69   32   74 1   
    70   32   75 1   
    71   32   76 1   
    72   33   77 1   
    73   33   78 1   
    74   33   79 1   
    75   34   35 1   
    76   34   80 1   
    77   35   36 1   
    78   35   81 1   
    79   35   82 1   
    80   36   37 1   
    81   36   40 2   
    82   37   38 2   
    83   37   41 1   
    84   38   39 1   
    85   39   40 1   
    86   41   83 1   
    87   41   84 1   
    88   41   85 1   
@<TRIPOS>SUBSTRUCTURE
     1 PZN         1 TEMP              0 ****  ****    0 ROOT
