@<TRIPOS>MOLECULE
PZN
   85    83     1     0     0
SMALL
bcc


@<TRIPOS>ATOM
      1 C1          5.6200   -3.8530   -8.8470 c3        1 PZN     -0.210000
      2 C2          4.3750   -3.0030   -8.6320 c3        1 PZN     -0.158000
      3 C3          3.7530   -3.3430   -7.2840 c3        1 PZN     -0.159000
      4 C4          2.3740   -2.6660   -7.1700 c3        1 PZN     -0.157000
      5 C5          1.9790   -2.5510   -5.6810 c3        1 PZN     -0.195000
      6 C6          0.4660   -2.7690   -5.5310 c3        1 PZN     -0.063000
      7 N1         -0.1090   -1.6900   -4.7080 n3        1 PZN     -0.254000
      8 C7          0.8700   -0.6250   -4.5480 c3        1 PZN     -0.124000
      9 C8         -0.4760   -2.2220   -3.3920 c3        1 PZN     -0.122000
     10 C9         -1.5550   -1.2990   -2.7390 c2        1 PZN      0.233000
     11 O1         -2.1070   -0.4420   -3.4060 o         1 PZN     -0.287000
     12 C10        -2.0040   -1.5530   -1.3020 c3        1 PZN     -0.022000
     13 N2         -2.4550   -0.3110   -0.7100 n         1 PZN     -0.319000
     14 C11        -3.1270   -2.5450   -1.2980 c3        1 PZN     -0.240000
     15 C12        -2.5780   -3.9290   -1.0110 c2        1 PZN      0.325000
     16 O2         -3.3210   -4.8070   -0.4950 o         1 PZN     -0.581500
     17 O3         -1.3620   -4.1810   -1.2250 o         1 PZN     -0.581500
     18 C13        -1.6410    0.3520    0.3290 c2        1 PZN      0.272000
     19 C14        -2.0600    1.7420    0.8730 c3        1 PZN      0.010000
     20 O4         -0.6680   -0.2140    0.7920 o         1 PZN     -0.361000
     21 C15        -1.3720    2.8140    0.0870 c3        1 PZN     -0.161000
     22 C16        -2.4140    3.7900   -0.4670 c3        1 PZN     -0.208000
     23 N3         -1.6910    1.8480    2.2450 n3        1 PZN     -0.201000
     24 C18        -0.2310    1.2910    4.0340 c1        1 PZN     -0.010000
     25 N4         -1.1020    1.7980    4.9220 n1        1 PZN     -0.142000
     26 C19        -2.2670    2.3310    4.4970 c1        1 PZN     -0.105000
     27 C24        -2.5660    2.3570    3.1390 c2        1 PZN     -0.064000
     28 C17        -0.5300    1.3160    2.6700 c1        1 PZN      0.302000
     29 O5          0.2520    0.8620    1.8720 o         1 PZN     -0.381000
     30 C20        -3.2660    2.8750    5.5060 c3        1 PZN      0.025000
     31 C23        -3.8430    4.2090    4.9920 c3        1 PZN     -0.212000
     32 C21        -4.4210    1.8480    5.6950 c3        1 PZN     -0.212000
     33 C22        -2.5700    3.1060    6.8320 c3        1 PZN     -0.212000
     34 N5          0.9920    0.6470    4.4980 n3        1 PZN     -0.256000
     35 C25         1.7610    1.2430    5.5800 c3        1 PZN      0.018000
     36 C26         3.2750    0.9140    5.3860 c2        1 PZN     -0.131000
     37 C27         4.2580    0.9290    6.3890 c1        1 PZN     -0.112000
     38 N7          5.4060    0.5020    5.8480 n2        1 PZN     -0.025000
     39 O6          5.1720    0.2160    4.5170 os        1 PZN     -0.038000
     40 N6          3.8470    0.4780    4.2520 n2        1 PZN     -0.007000
     41 C28         4.0480    1.3370    7.8520 c2        1 PZN     -0.162000
     42 H11         5.3700   -4.8040   -8.8550 hc        1 PZN      0.069667
     43 H12         6.0330   -3.6160   -9.7040 hc        1 PZN      0.069667
     44 H13         6.2550   -3.6890   -8.1230 hc        1 PZN      0.069667
     45 H21         4.6190   -2.0580   -8.6490 hc        1 PZN      0.075500
     46 H22         3.7300   -3.1850   -9.3420 hc        1 PZN      0.075500
     47 H31         4.3340   -3.0220   -6.5650 hc        1 PZN      0.080000
     48 H32         3.6470   -4.3160   -7.2090 hc        1 PZN      0.080000
     49 H41         1.7040   -3.2050   -7.6460 hc        1 PZN      0.078500
     50 H42         2.4150   -1.7760   -7.5650 hc        1 PZN      0.078500
     51 H51         2.4590   -3.2300   -5.1630 hc        1 PZN      0.084500
     52 H52         2.2130   -1.6680   -5.3510 hc        1 PZN      0.084500
     53 H61         0.0480   -2.7640   -6.4150 h1        1 PZN      0.086500
     54 H62         0.3030   -3.6340   -5.0970 h1        1 PZN      0.086500
     55 H71         0.4180    0.1890   -4.2140 h1        1 PZN      0.074333
     56 H72         1.5570   -0.9050   -3.9040 h1        1 PZN      0.074333
     57 H73         1.2920   -0.4330   -5.4150 h1        1 PZN      0.074333
     58 H81         0.3140   -2.2510   -2.8230 h1        1 PZN      0.100500
     59 H82        -0.8380   -3.1270   -3.4950 h1        1 PZN      0.100500
     60 H10        -1.2530   -1.9080   -0.7830 h1        1 PZN      0.120000
     61 HN2        -3.2640    0.0310   -0.9370 hn        1 PZN      0.249000
     62 H111       -3.7770   -2.3000   -0.6040 hc        1 PZN      0.092000
     63 H112       -3.5650   -2.5430   -2.1690 hc        1 PZN      0.092000
     64 H14        -3.0300    1.8470    0.7870 h1        1 PZN      0.130000
     65 H151       -0.7520    3.2960    0.6690 hc        1 PZN      0.110000
     66 H152       -0.8800    2.4110   -0.6510 hc        1 PZN      0.110000
     67 H161       -3.0690    3.2970   -1.0090 hc        1 PZN      0.073667
     68 H162       -1.9670    4.4640   -1.0270 hc        1 PZN      0.073667
     69 H163       -2.8750    4.2350    0.2770 hc        1 PZN      0.073667
     70 H24        -3.4160    2.7470    2.8290 h4        1 PZN      0.246000
     71 H231       -3.1080    4.8460    4.8340 hc        1 PZN      0.080778
     72 H232       -4.3270    4.0550    4.1560 hc        1 PZN      0.080778
     73 H233       -4.4610    4.5810    5.6660 hc        1 PZN      0.080778
     74 H211       -4.8020    1.6210    4.8240 hc        1 PZN      0.080778
     75 H212       -5.1200    2.2410    6.2670 hc        1 PZN      0.080778
     76 H213       -4.0670    1.0280    6.1240 hc        1 PZN      0.080778
     77 H221       -2.3340    2.2410    7.2330 hc        1 PZN      0.080778
     78 H222       -3.1680    3.5920    7.4340 hc        1 PZN      0.080778
     79 H223       -1.7580    3.6300    6.6870 hc        1 PZN      0.080778
     80 HN5         1.3080   -0.0850    4.0680 hn        1 PZN      0.217000
     81 H251        1.4560    0.8810    6.4350 h1        1 PZN      0.107500
     82 H252        1.6350    2.2160    5.5730 h1        1 PZN      0.107500
     83 H281        3.7160    2.2570    7.8890 ha        1 PZN      0.106667
     84 H282        3.3910    0.7350    8.2700 ha        1 PZN      0.106667
     85 H283        4.9050    1.2770    8.3360 ha        1 PZN      0.106667
@<TRIPOS>BOND
     1    1    2 1   
     2    1   42 1   
     3    1   43 1   
     4    1   44 1   
     5    2    3 1   
     6    2   45 1   
     7    2   46 1   
     8    3    4 1   
     9    3   47 1   
    10    3   48 1   
    11    4    5 1   
    12    4   49 1   
    13    4   50 1   
    14    5    6 1   
    15    5   51 1   
    16    5   52 1   
    17    6    7 1   
    18    6   53 1   
    19    6   54 1   
    20    7    8 1   
    21    7    9 1   
    22    8   55 1   
    23    8   56 1   
    24    8   57 1   
    25    9   10 1   
    26    9   58 1   
    27    9   59 1   
    28   10   11 1   
    29   10   12 1   
    30   12   13 1   
    31   12   14 1   
    32   12   60 1   
    33   13   18 1   
    34   13   61 1   
    35   14   15 1   
    36   14   62 1   
    37   14   63 1   
    38   15   16 1   
    39   15   17 1   
    40   18   19 1   
    41   18   20 1   
    42   19   21 1   
    43   19   23 1   
    44   19   64 1   
    45   21   22 1   
    46   21   65 1   
    47   21   66 1   
    48   22   67 1   
    49   22   68 1   
    50   22   69 1   
    51   23   27 1   
    52   23   28 1   
    53   24   25 1   
    54   24   34 1   
    55   26   27 1   
    56   26   30 1   
    57   27   70 1   
    58   28   29 1   
    59   30   31 1   
    60   30   32 1   
    61   30   33 1   
    62   31   71 1   
    63   31   72 1   
    64   31   73 1   
    65   32   74 1   
    66   32   75 1   
    67   32   76 1   
    68   33   77 1   
    69   33   78 1   
    70   33   79 1   
    71   34   35 1   
    72   34   80 1   
    73   35   36 1   
    74   35   81 1   
    75   35   82 1   
    76   36   37 1   
    77   36   40 1   
    78   37   38 1   
    79   38   39 1   
    80   39   40 1   
    81   41   83 1   
    82   41   84 1   
    83   41   85 1   
@<TRIPOS>SUBSTRUCTURE
     1 PZN         1 TEMP              0 ****  ****    0 ROOT
