@<TRIPOS>MOLECULE
PZO
    9     9     1     0     0
SMALL
bcc


@<TRIPOS>ATOM
      1 C5          0.0030   -0.0010    0.0060 cc        1 PZO      0.291200
      2 C4          1.4480    0.0000   -0.0630 cc        1 PZO     -0.297300
      3 C3          1.8670    0.0000    1.2750 cd        1 PZO     -0.150300
      4 N2          0.7030   -0.0010    2.0490 na        1 PZO     -0.024600
      5 N1         -0.4020   -0.0020    1.3040 nd        1 PZO     -0.517800
      6 HC5        -0.7040   -0.0020   -0.8230 h4        1 PZO      0.042100
      7 HC4         2.0590    0.0010   -0.9570 ha        1 PZO      0.165000
      8 HC3         2.8610    0.0010    1.7190 h4        1 PZO      0.174000
      9 HN2         0.6410   -0.0020    3.0390 hn        1 PZO      0.318700
@<TRIPOS>BOND
     1    1    2 1   
     2    1    5 2   
     3    1    6 1   
     4    2    3 2   
     5    2    7 1   
     6    3    4 1   
     7    3    8 1   
     8    4    5 1   
     9    4    9 1   
@<TRIPOS>SUBSTRUCTURE
     1 PZO         1 TEMP              0 ****  ****    0 ROOT
