@<TRIPOS>MOLECULE
PZO
    9     9     1     0     0
SMALL
bcc


@<TRIPOS>ATOM
      1 C5         -0.0510   -0.0000    1.1790 cc        1 PZO      0.291200
      2 C4          1.1870    0.0000    0.4300 cc        1 PZO     -0.297300
      3 C3          0.7870    0.0010   -0.9140 cd        1 PZO     -0.150300
      4 N2         -0.6110   -0.0000   -0.9060 na        1 PZO     -0.024600
      5 N1         -1.1120   -0.0010    0.3290 nd        1 PZO     -0.517800
      6 HC5        -0.1740   -0.0010    2.2610 h4        1 PZO      0.042100
      7 HC4         2.1920    0.0010    0.8300 ha        1 PZO      0.165000
      8 HC3         1.3620    0.0010   -1.8380 h4        1 PZO      0.174000
      9 HN2        -1.2160   -0.0010   -1.6930 hn        1 PZO      0.318700
@<TRIPOS>BOND
     1    1    2 1   
     2    1    5 2   
     3    1    6 1   
     4    2    3 2   
     5    2    7 1   
     6    3    4 1   
     7    3    8 1   
     8    4    5 1   
     9    4    9 1   
@<TRIPOS>SUBSTRUCTURE
     1 PZO         1 TEMP              0 ****  ****    0 ROOT
