@<TRIPOS>MOLECULE
PZP
   25    24     1     0     0
SMALL
bcc


@<TRIPOS>ATOM
      1 P          -0.6340    1.1500   -0.1540 p3        1 PZP      2.436000
      2 N1         -1.4250   -5.6260   -2.3090 n2        1 PZP     -0.279000
      3 C2         -2.6150   -5.5250   -3.0630 c2        1 PZP     -0.007000
      4 C3         -3.3540   -4.3750   -3.1060 c2        1 PZP     -0.193000
      5 O3         -4.5830   -4.3380   -3.7590 oh        1 PZP     -0.297000
      6 C4         -2.9500   -3.1250   -2.3890 c3        1 PZP     -0.079000
      7 C5         -1.4520   -3.1720   -2.0510 c3        1 PZP     -0.193000
      8 C6         -0.8980   -4.5610   -1.8100 c1        1 PZP     -0.282000
      9 O1P         0.3900    0.9550    0.8920 o         1 PZP     -1.148333
     10 O2P        -2.0610    0.9540    0.1750 o         1 PZP     -1.148333
     11 O3P        -0.2620    1.8540   -1.3990 o         1 PZP     -1.148333
     12 N4A        -4.8310   -3.5310   -0.7690 n2        1 PZP     -0.278000
     13 O4P        -0.6920   -1.1480   -0.9870 o         1 PZP     -0.378000
     14 C5A        -1.1230   -2.3030   -0.8720 c2        1 PZP      0.268000
     15 HO3        -4.5070   -3.6280   -4.4120 ho        1 PZP      0.174000
     16 H6         -0.8940   -2.7720   -2.9490 hc        1 PZP      0.102000
     17 H2A        -2.2400   -7.1890   -4.3860 hc        1 PZP      0.060333
     18 H2AA       -3.4320   -7.5100   -3.0600 hc        1 PZP      0.060333
     19 H2AB       -3.9180   -6.4960   -4.4850 hc        1 PZP      0.060333
     20 H4A        -3.1270   -2.2430   -3.0750 hc        1 PZP      0.082000
     21 HN4A       -5.0650   -4.3400   -1.3110 hn        1 PZP      0.134000
     22 H5A        -1.2700   -2.7650    0.1290 h4        1 PZP      0.095000
     23 H5AA       -3.5330   -1.9620   -0.5990 h4        1 PZP      0.161000
     24 C2A        -3.0770   -6.7440   -3.7930 c3        1 PZP     -0.153000
     25 C4A        -3.8170   -2.8710   -1.1780 c2        1 PZP     -0.049000
@<TRIPOS>BOND
     1    1    9 1   
     2    1   10 1   
     3    1   11 1   
     4    2    3 1   
     5    2    8 1   
     6    3    4 1   
     7    3   24 1   
     8    4    5 1   
     9    4    6 1   
    10    5   15 1   
    11    6    7 1   
    12    6   20 1   
    13    6   25 1   
    14    7    8 1   
    15    7   14 1   
    16    7   16 1   
    17   12   21 1   
    18   12   25 1   
    19   13   14 1   
    20   14   22 1   
    21   17   24 1   
    22   18   24 1   
    23   19   24 1   
    24   23   25 1   
@<TRIPOS>SUBSTRUCTURE
     1 PZP         1 TEMP              0 ****  ****    0 ROOT
