@<TRIPOS>MOLECULE
PZP
   25    23     1     0     0
SMALL
bcc


@<TRIPOS>ATOM
      1 P          -0.2340    0.8200    0.5130 p3        1 PZP      2.436000
      2 N1         -0.9740   -5.4660   -2.7280 n2        1 PZP     -0.271000
      3 C2         -2.3370   -5.4890   -3.1030 c2        1 PZP     -0.061000
      4 C3         -3.1710   -4.4330   -2.8710 c2        1 PZP     -0.166000
      5 O3         -4.5190   -4.4200   -3.2260 oh        1 PZP     -0.313000
      6 C4         -2.7240   -3.1680   -2.2290 c3        1 PZP     -0.092000
      7 C5         -1.1980   -3.0550   -2.2160 c3        1 PZP     -0.198000
      8 C6         -0.4530   -4.3710   -2.2960 c1        1 PZP     -0.288000
      9 O1P         1.2160    0.7520    0.7860 o         1 PZP     -1.149000
     10 O2P        -1.1780    0.1290    1.4150 o         1 PZP     -1.149000
     11 O3P        -0.7400    1.8370   -0.4310 o         1 PZP     -1.149000
     12 N4A        -6.3140   -2.4660   -2.0490 n2        1 PZP     -0.340000
     13 O4P        -0.4250   -1.1370   -0.9670 o         1 PZP     -0.376000
     14 C5A        -0.7620   -2.3280   -0.9740 c2        1 PZP      0.268000
     15 HO3        -4.8620   -5.3010   -3.0310 ho        1 PZP      0.181000
     16 H6         -0.8750   -2.4630   -3.1190 hc        1 PZP      0.103000
     17 H2A        -3.4920   -6.4800   -4.6240 hc        1 PZP      0.056000
     18 H2AA       -2.0640   -7.4320   -4.0330 hc        1 PZP      0.056000
     19 H2AB       -3.5380   -7.2670   -2.9920 hc        1 PZP      0.056000
     20 H4A        -3.1300   -3.1400   -1.1800 hc        1 PZP      0.063500
     21 HN4A       -5.3970   -2.7670   -2.2230 hn        1 PZP      0.316000
     22 H5A        -0.7610   -2.9290   -0.0390 h4        1 PZP      0.093000
     23 H5AA       -3.1670   -2.2910   -2.7720 hc        1 PZP      0.063500
     24 C2A        -2.8790   -6.7340   -3.7230 c3        1 PZP     -0.155000
     25 C4A        -7.4210   -2.1220   -1.8560 c1        1 PZP      0.015000
@<TRIPOS>BOND
     1    1    9 1   
     2    1   10 1   
     3    1   11 1   
     4    2    3 1   
     5    2    8 1   
     6    3    4 1   
     7    3   24 1   
     8    4    5 1   
     9    4    6 1   
    10    5   15 1   
    11    6    7 1   
    12    6   20 1   
    13    6   23 1   
    14    7    8 1   
    15    7   14 1   
    16    7   16 1   
    17   12   21 1   
    18   12   25 1   
    19   13   14 1   
    20   14   22 1   
    21   17   24 1   
    22   18   24 1   
    23   19   24 1   
@<TRIPOS>SUBSTRUCTURE
     1 PZP         1 TEMP              0 ****  ****    0 ROOT
