@<TRIPOS>MOLECULE
PZP
   25    23     1     0     0
SMALL
bcc


@<TRIPOS>ATOM
      1 P           0.3100    0.4770    0.9270 p3        1 PZP      2.429000
      2 N1         -0.5450   -4.9040   -3.4370 n2        1 PZP     -0.281000
      3 C2         -1.8030   -5.3260   -3.3410 c2        1 PZP      0.057000
      4 C3         -2.9290   -4.5230   -2.7670 c2        1 PZP      0.168000
      5 O3         -4.1040   -5.0280   -2.7730 o         1 PZP     -0.575000
      6 C4         -2.5600   -3.2930   -2.2490 c2        1 PZP     -0.420000
      7 C5         -1.1930   -2.7580   -2.3910 c3        1 PZP     -0.208000
      8 C6         -0.1850   -3.6790   -3.0130 c1        1 PZP     -0.075000
      9 O1P         1.5530    1.0060    0.3300 o         1 PZP     -1.146333
     10 O2P         0.3650   -0.7280    1.7810 o         1 PZP     -1.146333
     11 O3P        -0.9030    1.3200    0.9320 o         1 PZP     -1.146333
     12 N4A        -7.3780   -2.4290   -2.0370 n2        1 PZP     -0.297000
     13 O4P        -0.4040   -1.0320   -0.9000 o         1 PZP     -0.354000
     14 C5A        -0.6760   -2.2240   -1.0790 c2        1 PZP      0.277000
     15 HO3        -7.4280   -4.3000   -2.8370 h4        1 PZP      0.137500
     16 H6         -1.2230   -1.8980   -3.1380 hc        1 PZP      0.146000
     17 H2A        -3.0020   -6.5920   -4.5610 hc        1 PZP      0.084000
     18 H2AA       -1.3420   -7.2760   -4.2270 hc        1 PZP      0.084000
     19 H2AB       -2.6170   -7.2450   -2.9210 hc        1 PZP      0.084000
     20 H4A        -3.3010   -2.6730   -1.7350 ha        1 PZP      0.116000
     21 HN4A       -6.7790   -1.7200   -1.6630 hn        1 PZP      0.130000
     22 H5A        -0.5680   -2.9710   -0.2650 h4        1 PZP      0.106000
     23 H5AA       -5.7050   -3.7380   -2.3880 h4        1 PZP      0.137500
     24 C2A        -2.1910   -6.6940   -3.7970 c3        1 PZP     -0.189000
     25 C4A        -6.7940   -3.4950   -2.4180 c2        1 PZP     -0.118000
@<TRIPOS>BOND
     1    1    9 1   
     2    1   10 1   
     3    1   11 1   
     4    2    3 1   
     5    2    8 1   
     6    3    4 1   
     7    3   24 1   
     8    4    5 1   
     9    4    6 1   
    10    6    7 1   
    11    6   20 1   
    12    7    8 1   
    13    7   14 1   
    14    7   16 1   
    15   12   21 1   
    16   12   25 1   
    17   13   14 1   
    18   14   22 1   
    19   15   25 1   
    20   17   24 1   
    21   18   24 1   
    22   19   24 1   
    23   23   25 1   
@<TRIPOS>SUBSTRUCTURE
     1 PZP         1 TEMP              0 ****  ****    0 ROOT
