@<TRIPOS>MOLECULE
PZP
   25    25     1     0     0
SMALL
bcc


@<TRIPOS>ATOM
      1 P          -3.3120    0.2890    0.0800 p5        1 PZP      1.308900
      2 N1          1.9310   -2.2250    0.0520 nb        1 PZP     -0.656000
      3 C2          3.0610   -1.4730   -0.0110 ca        1 PZP      0.291600
      4 C3          3.0100   -0.0560   -0.0730 ca        1 PZP      0.051800
      5 O3          4.2340    0.5660   -0.1330 oh        1 PZP     -0.536100
      6 C4          1.7610    0.6100   -0.0690 ca        1 PZP     -0.261900
      7 C5          0.5970   -0.1810   -0.0030 ca        1 PZP     -0.064600
      8 C6          0.7570   -1.5930    0.0550 ca        1 PZP      0.362200
      9 O1P        -4.3030   -0.8330    0.1560 o         1 PZP     -0.925833
     10 O2P        -3.1960    1.0340   -1.2240 o         1 PZP     -0.925833
     11 O3P        -3.1290    1.1460    1.3040 o         1 PZP     -0.925833
     12 N4A         2.5800    2.9090   -0.1930 n2        1 PZP     -0.876100
     13 O4P        -1.7640   -0.5620    0.0760 os        1 PZP     -0.556200
     14 C5A        -0.7840    0.3970    0.0080 c3        1 PZP      0.193700
     15 HO3         4.0960    1.5260   -0.1720 ho        1 PZP      0.447000
     16 H6         -0.1680   -2.2080    0.1070 h4        1 PZP      0.076100
     17 H2A         4.9470   -1.8470   -0.9510 hc        1 PZP      0.027033
     18 H2AA        4.9950   -1.7660    0.8560 hc        1 PZP      0.027033
     19 H2AB        4.3260   -3.2440    0.0340 hc        1 PZP      0.027033
     20 H4A         0.5360    2.3900   -0.1160 h4        1 PZP      0.017800
     21 HN4A        2.2950    3.8650   -0.2280 hn        1 PZP      0.372400
     22 H5A        -0.8840    1.0920    0.9000 h1        1 PZP      0.055700
     23 H5AA       -0.9330    1.0110   -0.9350 h1        1 PZP      0.055700
     24 C2A         4.3990   -2.1310   -0.0180 c3        1 PZP     -0.108400
     25 C4A         1.6070    2.0680   -0.1300 ce        1 PZP      0.522800
@<TRIPOS>BOND
     1    1    9 1   
     2    1   10 1   
     3    1   11 1   
     4    1   13 1   
     5    2    3 ar  
     6    2    8 ar  
     7    3    4 ar  
     8    3   24 1   
     9    4    5 1   
    10    4    6 ar  
    11    5   15 1   
    12    6    7 ar  
    13    6   25 1   
    14    7    8 ar  
    15    7   14 1   
    16    8   16 1   
    17   12   21 1   
    18   12   25 2   
    19   13   14 1   
    20   14   22 1   
    21   14   23 1   
    22   17   24 1   
    23   18   24 1   
    24   19   24 1   
    25   20   25 1   
@<TRIPOS>SUBSTRUCTURE
     1 PZP         1 TEMP              0 ****  ****    0 ROOT
