@<TRIPOS>MOLECULE
PZQ
   47    48     1     0     0
SMALL
bcc


@<TRIPOS>ATOM
      1 C1         -0.3180    0.0290   -0.1160 c2        1 PZQ      0.313000
      2 C2          5.1330    0.9110   -0.7280 c2        1 PZQ     -0.218000
      3 C3          1.2660    1.8120   -0.7840 c3        1 PZQ     -0.208000
      4 C4          1.1530    0.3670   -0.3340 c3        1 PZQ     -0.110000
      5 C5          1.9610    0.1210    0.9340 c3        1 PZQ     -0.154000
      6 C6          3.4100   -0.2310    0.6510 c3        1 PZQ     -0.135000
      7 C7         -3.3820    0.3090   -4.4100 c3        1 PZQ     -0.290000
      8 C8         -2.2260   -0.5820   -4.4340 c1        1 PZQ     -0.044000
      9 C9         -1.4240   -2.8460   -4.0100 c3        1 PZQ     -0.169000
     10 C10        -2.4140   -4.7260   -1.6800 c1        1 PZQ     -0.099000
     11 C11        -2.7180   -1.5160   -2.2610 c2        1 PZQ     -0.095000
     12 C12        -2.1660   -1.6660   -3.4980 c2        1 PZQ     -0.149000
     13 C13         4.2320    0.9370    0.2520 c2        1 PZQ     -0.168000
     14 C14        -0.4050   -3.5590   -0.9350 c2        1 PZQ      0.232000
     15 C15         0.1530   -2.4250   -0.0710 c3        1 PZQ     -0.043000
     16 C16        -2.1120   -1.6340    0.1880 c3        1 PZQ     -0.051000
     17 C17        -2.6100   -2.4220   -1.0600 c3        1 PZQ      0.033000
     18 C18        -3.6020   -0.3310   -1.9990 c3        1 PZQ     -0.234000
     19 C19        -4.0840    0.4330   -3.1370 c1        1 PZQ     -0.029000
     20 N1         -0.7130   -1.2940    0.1020 n         1 PZQ     -0.334000
     21 N2         -1.8080   -3.6400   -1.2350 n         1 PZQ     -0.190000
     22 O1         -1.1920    0.9180   -0.0950 o         1 PZQ     -0.365000
     23 H21         2.3420    2.0760   -0.9240 hc        1 PZQ      0.091333
     24 H22         5.3220    0.0200   -1.3400 ha        1 PZQ      0.114500
     25 H31         5.7450    1.7860   -0.9820 ha        1 PZQ      0.114500
     26 H32         0.7230    1.9580   -1.7490 hc        1 PZQ      0.091333
     27 H4          0.8160    2.4960   -0.0250 hc        1 PZQ      0.091333
     28 H51         1.5460   -0.2830   -1.1680 hc        1 PZQ      0.110000
     29 H52         1.5100   -0.7260    1.5170 hc        1 PZQ      0.092000
     30 H61         1.9120    1.0320    1.5860 hc        1 PZQ      0.092000
     31 H62         3.8560   -0.6630    1.5910 hc        1 PZQ      0.089000
     32 H7         -3.0660    1.3480   -4.7350 hc        1 PZQ      0.184000
     33 H8         -4.1250   -0.0250   -5.1980 hc        1 PZQ      0.184000
     34 H91        -1.1670   -2.6960   -5.0910 hc        1 PZQ      0.091000
     35 H92        -2.0470   -3.7720   -3.9250 hc        1 PZQ      0.091000
     36 H101       -0.4630   -2.9960   -3.4580 hc        1 PZQ      0.091000
     37 H102       -1.7690   -5.6180   -1.8320 ha        1 PZQ      0.071000
     38 H131        3.4580   -1.0350   -0.1330 hc        1 PZQ      0.089000
     39 H132        4.0650    1.8500    0.8490 ha        1 PZQ      0.123000
     40 H151        0.3530   -2.8900    0.9420 h1        1 PZQ      0.128000
     41 H152        1.1460   -2.1270   -0.5130 h1        1 PZQ      0.128000
     42 H161       -2.2630   -2.2800    1.1010 h1        1 PZQ      0.121500
     43 H162       -2.7320   -0.7040    0.3190 h1        1 PZQ      0.121500
     44 H17        -3.6690   -2.7710   -0.8360 h1        1 PZQ      0.151000
     45 H18        -4.4940   -0.6540   -1.3880 hc        1 PZQ      0.169000
     46 H19        -3.0450    0.4390   -1.3660 hc        1 PZQ      0.169000
     47 O2          0.3560   -4.4560   -1.3230 o         1 PZQ     -0.292000
@<TRIPOS>BOND
     1    1    4 1   
     2    1   20 1   
     3    1   22 1   
     4    2   13 1   
     5    2   24 1   
     6    2   25 1   
     7    3    4 1   
     8    3   23 1   
     9    3   26 1   
    10    3   27 1   
    11    4    5 1   
    12    4   28 1   
    13    5    6 1   
    14    5   29 1   
    15    5   30 1   
    16    6   13 1   
    17    6   31 1   
    18    6   38 1   
    19    7    8 1   
    20    7   19 1   
    21    7   32 1   
    22    7   33 1   
    23    8   12 1   
    24    9   12 1   
    25    9   34 1   
    26    9   35 1   
    27    9   36 1   
    28   10   21 1   
    29   10   37 1   
    30   11   12 1   
    31   11   17 1   
    32   11   18 1   
    33   13   39 1   
    34   14   15 1   
    35   14   21 1   
    36   14   47 1   
    37   15   20 1   
    38   15   40 1   
    39   15   41 1   
    40   16   17 1   
    41   16   20 1   
    42   16   42 1   
    43   16   43 1   
    44   17   21 1   
    45   17   44 1   
    46   18   19 1   
    47   18   45 1   
    48   18   46 1   
@<TRIPOS>SUBSTRUCTURE
     1 PZQ         1 TEMP              0 ****  ****    0 ROOT
