@<TRIPOS>MOLECULE
PZQ
   47    50     1     0     0
SMALL
bcc


@<TRIPOS>ATOM
      1 C1          0.6190    0.8400    1.3780 c         1 PZQ      0.671100
      2 C2          1.8350   -1.3610    4.2780 c3        1 PZQ     -0.077400
      3 C3          1.9080   -0.4680    3.0580 c3        1 PZQ     -0.071900
      4 C4          0.5110   -0.0880    2.5810 c3        1 PZQ     -0.123700
      5 C5         -0.2660    0.5890    3.7030 c3        1 PZQ     -0.071900
      6 C6         -0.3370   -0.3050    4.9240 c3        1 PZQ     -0.077400
      7 C7          2.3570   -1.3520   -3.5000 ca        1 PZQ     -0.122000
      8 C11         0.3550    0.2680   -2.3830 ca        1 PZQ     -0.112300
      9 C12         0.0100   -0.8080   -3.2220 ca        1 PZQ     -0.068300
     10 C13         1.0450   -0.7100    5.3940 c3        1 PZQ     -0.079400
     11 C15        -1.7790    0.4720    0.7600 c3        1 PZQ      0.026000
     12 C16        -0.4010    1.9450   -0.5710 c3        1 PZQ      0.083000
     13 C17        -0.7380    1.1810   -1.8770 c3        1 PZQ      0.118000
     14 C19         2.6990   -0.2980   -2.6550 ca        1 PZQ     -0.131000
     15 N1         -0.5090    1.1260    0.6120 n         1 PZQ     -0.474800
     16 N2         -2.0270    0.5030   -1.7650 n         1 PZQ     -0.428800
     17 O1          1.6980    1.3930    1.0860 o         1 PZQ     -0.608100
     18 O2         -3.3420   -0.8700   -0.4570 o         1 PZQ     -0.630500
     19 H21         1.3570   -2.3380    4.0020 hc        1 PZQ      0.042450
     20 H22         2.8750   -1.5850    4.6340 hc        1 PZQ      0.042450
     21 H31         2.4530   -0.9900    2.2300 hc        1 PZQ      0.054200
     22 H32         2.4830    0.4660    3.2970 hc        1 PZQ      0.054200
     23 H4         -0.0180   -1.0360    2.2770 hc        1 PZQ      0.067700
     24 H51         0.2400    1.5540    3.9710 hc        1 PZQ      0.054200
     25 H52        -1.3040    0.8330    3.3570 hc        1 PZQ      0.054200
     26 H61        -0.9330   -1.2240    4.6820 hc        1 PZQ      0.042450
     27 H62        -0.8710    0.2360    5.7470 hc        1 PZQ      0.042450
     28 H7          3.1420   -1.9830   -3.9430 ha        1 PZQ      0.133000
     29 H8          0.7410   -2.4460   -4.4330 ha        1 PZQ      0.132000
     30 H91        -1.6150   -2.1750   -3.0770 hc        1 PZQ      0.062200
     31 H92        -1.5440   -1.2550   -4.6330 hc        1 PZQ      0.062200
     32 H101       -3.4090   -0.6840   -2.8160 h1        1 PZQ      0.069700
     33 H102       -2.5900    0.6490   -3.7600 h1        1 PZQ      0.069700
     34 H131        0.9550   -1.4200    6.2560 hc        1 PZQ      0.043200
     35 H132        1.5950    0.1970    5.7610 hc        1 PZQ      0.043200
     36 H151       -2.5210    1.2070    1.1970 h1        1 PZQ      0.081200
     37 H152       -1.7130   -0.4100    1.4560 h1        1 PZQ      0.081200
     38 H161       -1.1390    2.7950   -0.4720 h1        1 PZQ      0.077200
     39 H162        0.6270    2.3940   -0.6450 h1        1 PZQ      0.077200
     40 H17        -0.8710    1.9790   -2.6750 h1        1 PZQ      0.074700
     41 H18         2.0050    1.3140   -1.4140 ha        1 PZQ      0.153000
     42 H19         3.7540   -0.0970   -2.4200 ha        1 PZQ      0.136000
     43 C18         1.7030    0.5050   -2.0990 ca        1 PZQ     -0.112000
     44 C10        -2.4270   -0.1590   -2.9900 c3        1 PZQ      0.072000
     45 C14        -2.4120   -0.0460   -0.5410 c         1 PZQ      0.669500
     46 C8          1.0170   -1.6080   -3.7760 ca        1 PZQ     -0.134000
     47 C9         -1.4050   -1.1640   -3.5220 c3        1 PZQ     -0.067100
@<TRIPOS>BOND
     1    1    4 1   
     2    1   15 1   
     3    1   17 2   
     4    2    3 1   
     5    2   10 1   
     6    2   19 1   
     7    2   20 1   
     8    3    4 1   
     9    3   21 1   
    10    3   22 1   
    11    4    5 1   
    12    4   23 1   
    13    5    6 1   
    14    5   24 1   
    15    5   25 1   
    16    6   10 1   
    17    6   26 1   
    18    6   27 1   
    19    7   14 ar  
    20    7   28 1   
    21    7   46 ar  
    22    8    9 ar  
    23    8   13 1   
    24    8   43 ar  
    25    9   46 ar  
    26    9   47 1   
    27   10   34 1   
    28   10   35 1   
    29   11   15 1   
    30   11   36 1   
    31   11   37 1   
    32   11   45 1   
    33   12   13 1   
    34   12   15 1   
    35   12   38 1   
    36   12   39 1   
    37   13   16 1   
    38   13   40 1   
    39   14   42 1   
    40   14   43 ar  
    41   16   44 1   
    42   16   45 1   
    43   18   45 2   
    44   29   46 1   
    45   30   47 1   
    46   31   47 1   
    47   32   44 1   
    48   33   44 1   
    49   41   43 1   
    50   44   47 1   
@<TRIPOS>SUBSTRUCTURE
     1 PZQ         1 TEMP              0 ****  ****    0 ROOT
