@<TRIPOS>MOLECULE
PZQ
   47    47     1     0     0
SMALL
bcc


@<TRIPOS>ATOM
      1 C1         -0.0360   -0.1310   -0.1430 c2        1 PZQ      0.312000
      2 C2          3.3710    1.5670   -0.2570 c2        1 PZQ     -0.160000
      3 C3          2.0710    1.0580   -0.7550 c3        1 PZQ     -0.129000
      4 C4          1.4310    0.0700    0.2150 c3        1 PZQ     -0.114000
      5 C5          1.5350    0.5740    1.6480 c3        1 PZQ     -0.149000
      6 C6          2.9880    0.7420    2.0500 c3        1 PZQ     -0.129000
      7 C7         -4.2370    0.2270   -4.6650 c3        1 PZQ     -0.197000
      8 C8         -3.6600   -1.1150   -4.9080 c2        1 PZQ     -0.170000
      9 C9         -2.5010   -3.1870   -4.2670 c3        1 PZQ     -0.145000
     10 C10        -1.6990   -3.7750   -3.1520 c2        1 PZQ     -0.057000
     11 C11        -2.8850   -1.3280   -2.5860 c2        1 PZQ     -0.075000
     12 C12        -3.0460   -1.8330   -3.9480 c2        1 PZQ     -0.083000
     13 C13         3.7830    1.4350    1.0070 c2        1 PZQ     -0.172000
     14 C14         0.4410   -3.5230    0.0300 c1        1 PZQ      0.283000
     15 C15         0.1090   -2.4120    0.6840 c2        1 PZQ     -0.270000
     16 C16        -2.0130   -1.5950   -0.2280 c3        1 PZQ      0.030000
     17 C17        -2.1760   -2.0500   -1.6670 c2        1 PZQ     -0.096000
     18 C18        -3.4900   -0.0060   -2.2620 c3        1 PZQ     -0.204000
     19 C19        -4.1720    0.7320   -3.3040 c1        1 PZQ     -0.046000
     20 N1         -0.6490   -1.3450    0.1830 n         1 PZQ     -0.240000
     21 N2         -1.5450   -3.2740   -1.9720 n2        1 PZQ     -0.159000
     22 O1         -0.7180    0.7790   -0.6560 o         1 PZQ     -0.376000
     23 H21         3.4040   -1.5770   -1.7420 ha        1 PZQ      0.000250
     24 H22         3.5110   -2.0670   -1.2880 ha        1 PZQ      0.000250
     25 H31         3.9870    2.0880   -1.0070 ha        1 PZQ      0.125000
     26 H32         1.3750    1.9260   -0.9230 hc        1 PZQ      0.106500
     27 H4          2.2180    0.5510   -1.7470 hc        1 PZQ      0.106500
     28 H51         1.9850   -0.9100    0.1350 hc        1 PZQ      0.113000
     29 H52         1.0330   -0.1480    2.3430 hc        1 PZQ      0.091500
     30 H61         1.0010    1.5570    1.7320 hc        1 PZQ      0.091500
     31 H62         3.0400    1.3170    3.0130 hc        1 PZQ      0.088500
     32 H7         -3.7210    0.9910   -5.3210 hc        1 PZQ      0.147000
     33 H8         -5.3230    0.2390   -4.9770 hc        1 PZQ      0.147000
     34 H91        -3.7610   -1.5110   -5.9310 ha        1 PZQ      0.126000
     35 H92        -3.3500   -3.8870   -4.5040 hc        1 PZQ      0.111500
     36 H101       -1.8540   -3.1300   -5.1860 hc        1 PZQ      0.111500
     37 H102       -1.1920   -4.7370   -3.3650 h4        1 PZQ      0.155000
     38 H131        3.4460   -0.2680    2.2390 hc        1 PZQ      0.088500
     39 H132        4.7550    1.8330    1.3370 ha        1 PZQ      0.123000
     40 H151        2.8070   -2.9400    0.8900 ha        1 PZQ      0.000250
     41 H152        3.4130   -2.6770    1.0440 ha        1 PZQ      0.000250
     42 H161        0.4910   -2.2940    1.7150 h4        1 PZQ      0.179000
     43 H162       -2.4410   -2.3910    0.4490 h1        1 PZQ      0.113000
     44 H17        -2.5910   -0.6410   -0.0690 h1        1 PZQ      0.113000
     45 H18        -4.2310   -0.1160   -1.4140 hc        1 PZQ      0.171500
     46 H19        -2.6770    0.6900   -1.8670 hc        1 PZQ      0.171500
     47 O2          0.7390   -4.5730   -0.4360 o         1 PZQ     -0.134000
@<TRIPOS>BOND
     1    1    4 1   
     2    1   20 1   
     3    1   22 1   
     4    2    3 1   
     5    2   13 1   
     6    2   25 1   
     7    3    4 1   
     8    3   26 1   
     9    3   27 1   
    10    4    5 1   
    11    4   28 1   
    12    5    6 1   
    13    5   29 1   
    14    5   30 1   
    15    6   13 1   
    16    6   31 1   
    17    6   38 1   
    18    7    8 1   
    19    7   19 1   
    20    7   32 1   
    21    7   33 1   
    22    8   12 1   
    23    8   34 1   
    24    9   10 1   
    25    9   12 1   
    26    9   35 1   
    27    9   36 1   
    28   10   21 1   
    29   10   37 1   
    30   11   12 1   
    31   11   17 1   
    32   11   18 1   
    33   13   39 1   
    34   14   15 1   
    35   14   47 1   
    36   15   20 1   
    37   15   42 1   
    38   16   17 1   
    39   16   20 1   
    40   16   43 1   
    41   16   44 1   
    42   17   21 1   
    43   18   19 1   
    44   18   45 1   
    45   18   46 1   
    46   23   24 1   
    47   40   41 1   
@<TRIPOS>SUBSTRUCTURE
     1 PZQ         1 TEMP              0 ****  ****    0 ROOT
