@<TRIPOS>MOLECULE
PZR
   14    15     1     0     0
SMALL
bcc


@<TRIPOS>ATOM
      1 C1          1.6290   -1.1110    0.0010 cc        1 PZR      0.363800
      2 N1          1.5850    1.0720    0.0000 na        1 PZR     -0.022100
      3 C2          0.2220   -0.7470    0.0000 ca        1 PZR     -0.340200
      4 N2          2.3920    0.0000    0.0010 nd        1 PZR     -0.508100
      5 C3         -1.0220   -1.3970    0.0000 ca        1 PZR      0.470200
      6 N3         -2.1760   -0.7200   -0.0000 nb        1 PZR     -0.689000
      7 C4         -2.1360    0.6390   -0.0000 ca        1 PZR      0.417200
      8 C5         -0.9730    1.4150   -0.0000 ca        1 PZR     -0.257300
      9 C6          0.2370    0.7040    0.0000 ca        1 PZR     -0.024200
     10 H1          2.0560   -2.1150    0.0010 h4        1 PZR      0.058800
     11 HN1         1.9610    1.9890    0.0000 hn        1 PZR      0.328700
     12 H3         -1.0930   -2.5000    0.0000 h4        1 PZR      0.028100
     13 H4         -3.1280    1.1280   -0.0010 h4        1 PZR      0.024100
     14 H5         -1.0110    2.5100   -0.0000 ha        1 PZR      0.149000
@<TRIPOS>BOND
     1    1    3 1   
     2    1    4 2   
     3    1   10 1   
     4    2    4 1   
     5    2    9 1   
     6    2   11 1   
     7    3    5 ar  
     8    3    9 ar  
     9    5    6 ar  
    10    5   12 1   
    11    6    7 ar  
    12    7    8 ar  
    13    7   13 1   
    14    8    9 ar  
    15    8   14 1   
@<TRIPOS>SUBSTRUCTURE
     1 PZR         1 TEMP              0 ****  ****    0 ROOT
