@<TRIPOS>MOLECULE
PZU
   22    22     1     0     0
SMALL
bcc


@<TRIPOS>ATOM
      1 C1          0.1390    0.1700   -0.1260 c3        1 PZU      0.297900
      2 C2          1.6800    0.1890   -0.0790 c3        1 PZU      0.139100
      3 O2          2.2070   -0.9030   -0.8020 oh        1 PZU     -0.588800
      4 C3          2.1760    0.2000    1.3590 c3        1 PZU     -0.151400
      5 C4          1.4820    1.3070    2.1430 c3        1 PZU      0.116100
      6 O4          1.8270    1.2510    3.5200 oh        1 PZU     -0.593800
      7 C5         -0.0450    1.1280    2.0710 c3        1 PZU      0.148100
      8 O5         -0.4760    1.1300    0.7040 os        1 PZU     -0.446600
      9 C6         -0.7760    2.2710    2.7450 c3        1 PZU     -0.089100
     10 H1         -0.2440    0.3950   -1.1620 h2        1 PZU      0.081700
     11 O1         -0.2920   -1.0940    0.3260 oh        1 PZU     -0.636800
     12 H2          2.0430    1.1010   -0.6320 h1        1 PZU      0.085700
     13 HO2         1.8490   -1.7100   -0.4070 ho        1 PZU      0.419000
     14 H3          1.9560   -0.7900    1.8390 hc        1 PZU      0.064700
     15 H3A         3.2850    0.3490    1.3720 hc        1 PZU      0.064700
     16 H4          1.7660    2.3140    1.7270 h1        1 PZU      0.045700
     17 HO4         2.7910    1.2700    3.5640 ho        1 PZU      0.405000
     18 H5         -0.3210    0.1410    2.5360 h1        1 PZU      0.062700
     19 H6         -0.4170    2.3490    3.8000 hc        1 PZU      0.050700
     20 H6A        -1.8750    2.0820    2.7360 hc        1 PZU      0.050700
     21 H6B        -0.5750    3.2310    2.2140 hc        1 PZU      0.050700
     22 HO1        -1.2580   -1.0850    0.3360 ho        1 PZU      0.424000
@<TRIPOS>BOND
     1    1    2 1   
     2    1    8 1   
     3    1   10 1   
     4    1   11 1   
     5    2    3 1   
     6    2    4 1   
     7    2   12 1   
     8    3   13 1   
     9    4    5 1   
    10    4   14 1   
    11    4   15 1   
    12    5    6 1   
    13    5    7 1   
    14    5   16 1   
    15    6   17 1   
    16    7    8 1   
    17    7    9 1   
    18    7   18 1   
    19    9   19 1   
    20    9   20 1   
    21    9   21 1   
    22   11   22 1   
@<TRIPOS>SUBSTRUCTURE
     1 PZU         1 TEMP              0 ****  ****    0 ROOT
