@<TRIPOS>MOLECULE
PZU
   22    22     1     0     0
SMALL
bcc


@<TRIPOS>ATOM
      1 C1          0.1060    0.0910   -0.0790 c3        1 PZU      0.297900
      2 C2          1.6480    0.1250   -0.0770 c3        1 PZU      0.139100
      3 O2          2.1650   -0.9970   -0.7600 oh        1 PZU     -0.588800
      4 C3          2.1830    0.2100    1.3450 c3        1 PZU     -0.151400
      5 C4          1.5010    1.3490    2.0930 c3        1 PZU      0.116100
      6 O4          1.8850    1.3630    3.4610 oh        1 PZU     -0.593800
      7 C5         -0.0260    1.1540    2.0720 c3        1 PZU      0.148100
      8 O5         -0.4940    1.0850    0.7200 os        1 PZU     -0.446600
      9 C6         -0.7480    2.3220    2.7110 c3        1 PZU     -0.089100
     10 H1         -0.3070    0.2630   -1.1140 h2        1 PZU      0.081700
     11 O1         -0.3000   -1.1520    0.4460 oh        1 PZU     -0.636800
     12 H2          1.9870    1.0120   -0.6830 h1        1 PZU      0.085700
     13 HO2         1.8250   -1.7870   -0.3160 ho        1 PZU      0.419000
     14 H3          1.9860   -0.7570    1.8780 hc        1 PZU      0.064700
     15 H3A         3.2910    0.3690    1.3190 hc        1 PZU      0.064700
     16 H4          1.7640    2.3360    1.6200 h1        1 PZU      0.045700
     17 HO4         2.8500    1.3920    3.4770 ho        1 PZU      0.405000
     18 H5         -0.2790    0.1890    2.5930 h1        1 PZU      0.062700
     19 H6         -0.3610    2.4560    3.7500 hc        1 PZU      0.050700
     20 H6A        -0.5700    3.2570    2.1280 hc        1 PZU      0.050700
     21 H6B        -1.8450    2.1250    2.7410 hc        1 PZU      0.050700
     22 HO1        -1.2650   -1.1500    0.4820 ho        1 PZU      0.424000
@<TRIPOS>BOND
     1    1    2 1   
     2    1    8 1   
     3    1   10 1   
     4    1   11 1   
     5    2    3 1   
     6    2    4 1   
     7    2   12 1   
     8    3   13 1   
     9    4    5 1   
    10    4   14 1   
    11    4   15 1   
    12    5    6 1   
    13    5    7 1   
    14    5   16 1   
    15    6   17 1   
    16    7    8 1   
    17    7    9 1   
    18    7   18 1   
    19    9   19 1   
    20    9   20 1   
    21    9   21 1   
    22   11   22 1   
@<TRIPOS>SUBSTRUCTURE
     1 PZU         1 TEMP              0 ****  ****    0 ROOT
