@<TRIPOS>MOLECULE
PZU
   22    22     1     0     0
SMALL
bcc


@<TRIPOS>ATOM
      1 C1         -1.1200    0.9880   -0.4040 c3        1 PZU      0.297900
      2 C2         -1.3750   -0.5060   -0.6870 c3        1 PZU      0.139100
      3 O2         -2.7000   -0.8520   -0.3480 oh        1 PZU     -0.588800
      4 C3         -0.3630   -1.3740    0.0480 c3        1 PZU     -0.151400
      5 C4          1.0510   -0.8840   -0.2350 c3        1 PZU      0.116100
      6 O4          2.0030   -1.5930    0.5460 oh        1 PZU     -0.593800
      7 C5          1.1840    0.5990    0.1570 c3        1 PZU      0.148100
      8 O5          0.2240    1.3850   -0.5600 os        1 PZU     -0.446600
      9 C6          2.5440    1.1550   -0.2120 c3        1 PZU     -0.089100
     10 H1         -1.7000    1.6450   -1.1130 h2        1 PZU      0.081700
     11 O1         -1.4640    1.2390    0.9400 oh        1 PZU     -0.636800
     12 H2         -1.3090   -0.6750   -1.7990 h1        1 PZU      0.085700
     13 HO2        -2.8220   -0.6410    0.5890 ho        1 PZU      0.419000
     14 H3         -0.5600   -1.3250    1.1510 hc        1 PZU      0.064700
     15 H3A        -0.4790   -2.4390   -0.2740 hc        1 PZU      0.064700
     16 H4          1.2940   -1.0110   -1.3270 h1        1 PZU      0.045700
     17 HO4         1.8600   -2.5310    0.3720 ho        1 PZU      0.405000
     18 H5          0.9890    0.7050    1.2600 h1        1 PZU      0.062700
     19 H6          2.6870    1.1370   -1.3190 hc        1 PZU      0.050700
     20 H6A         2.6370    2.2090    0.1410 hc        1 PZU      0.050700
     21 H6B         3.3300    0.5260    0.2720 hc        1 PZU      0.050700
     22 HO1        -1.2630    2.1650    1.1230 ho        1 PZU      0.424000
@<TRIPOS>BOND
     1    1    2 1   
     2    1    8 1   
     3    1   10 1   
     4    1   11 1   
     5    2    3 1   
     6    2    4 1   
     7    2   12 1   
     8    3   13 1   
     9    4    5 1   
    10    4   14 1   
    11    4   15 1   
    12    5    6 1   
    13    5    7 1   
    14    5   16 1   
    15    6   17 1   
    16    7    8 1   
    17    7    9 1   
    18    7   18 1   
    19    9   19 1   
    20    9   20 1   
    21    9   21 1   
    22   11   22 1   
@<TRIPOS>SUBSTRUCTURE
     1 PZU         1 TEMP              0 ****  ****    0 ROOT
