@<TRIPOS>MOLECULE
PZW
   41    44     1     0     0
SMALL
bcc


@<TRIPOS>ATOM
      1 C1         -0.0000    0.3110    0.0910 c3        1 PZW     -0.046800
      2 C2          1.4760    0.1970    0.0250 ca        1 PZW     -0.134300
      3 C3          2.2070    0.1360    1.2080 ca        1 PZW     -0.079000
      4 C4          3.5970    0.0420    1.1820 ca        1 PZW      0.024100
      5 O5          4.2500    0.0720    2.4100 os        1 PZW     -0.312900
      6 C6          5.5060   -0.5980    2.4120 c3        1 PZW      0.111100
      7 C7          6.3620   -0.1860    1.2220 c2        1 PZW      0.515200
      8 N8          7.6450    0.0810    1.4130 n2        1 PZW     -0.493300
      9 N9          8.4040    0.4360    0.3720 ns        1 PZW     -0.319900
     10 C10         7.9280    0.5730   -0.9320 c         1 PZW      0.668500
     11 O11         8.6430    1.0500   -1.8270 o         1 PZW     -0.610500
     12 C12         6.4970    0.0710   -1.2280 c3        1 PZW      0.172500
     13 C13         6.6440   -1.1810   -2.0990 c3        1 PZW     -0.112100
     14 N14         5.7040   -0.1510   -0.0290 nh        1 PZW     -0.647000
     15 C15         4.3040   -0.0150   -0.0450 ca        1 PZW      0.158600
     16 C16         3.5630    0.0240   -1.2390 ca        1 PZW     -0.216000
     17 C17         2.1580    0.1520   -1.2230 ca        1 PZW      0.164600
     18 N18         1.4210    0.3060   -2.4110 nu        1 PZW     -0.713600
     19 C19         2.0410    0.0630   -3.6750 cy        1 PZW      0.158500
     20 C20         2.3500   -1.4130   -4.1260 cy        1 PZW      0.109800
     21 N21         1.3950   -1.2880   -5.2440 n7        1 PZW     -0.790200
     22 C22         1.0880    0.1200   -4.9240 cy        1 PZW      0.109800
     23 H1         -0.3480    1.2410   -0.4250 hc        1 PZW      0.044700
     24 H2         -0.4880   -0.5700   -0.3980 hc        1 PZW      0.044700
     25 H3         -0.3520    0.3530    1.1520 hc        1 PZW      0.044700
     26 H4          1.6960    0.1750    2.1830 ha        1 PZW      0.153000
     27 H5          5.3480   -1.7090    2.3740 h1        1 PZW      0.084200
     28 H6          5.9710   -0.2950    3.3890 h1        1 PZW      0.084200
     29 H7          9.3230    0.7480    0.6170 hn        1 PZW      0.359500
     30 H8          6.0050    0.8850   -1.8450 h1        1 PZW      0.087700
     31 H9          7.1470   -2.0050   -1.5390 hc        1 PZW      0.057033
     32 H10         5.6450   -1.5420   -2.4400 hc        1 PZW      0.057033
     33 H11         7.2640   -0.9190   -2.9910 hc        1 PZW      0.057033
     34 H12         4.0880   -0.0510   -2.2040 ha        1 PZW      0.139000
     35 H13         0.4920   -0.0630   -2.3500 hn        1 PZW      0.407800
     36 H14         2.9270    0.7400   -3.7850 h1        1 PZW      0.073700
     37 H15         3.4170   -1.5770   -4.4060 h1        1 PZW      0.058950
     38 H16         2.0250   -2.2090   -3.4140 h1        1 PZW      0.058950
     39 H17         1.8190   -1.4060   -6.1410 hn        1 PZW      0.352800
     40 H19         1.4060    0.8780   -5.6780 h1        1 PZW      0.058950
     41 H20         0.0020    0.2490   -4.7010 h1        1 PZW      0.058950
@<TRIPOS>BOND
     1    1    2 1   
     2    1   23 1   
     3    1   24 1   
     4    1   25 1   
     5    2    3 ar  
     6    2   17 ar  
     7    3    4 ar  
     8    3   26 1   
     9    4    5 1   
    10    4   15 ar  
    11    5    6 1   
    12    6    7 1   
    13    6   27 1   
    14    6   28 1   
    15    7    8 2   
    16    7   14 1   
    17    8    9 1   
    18    9   10 1   
    19    9   29 1   
    20   10   11 2   
    21   10   12 1   
    22   12   13 1   
    23   12   14 1   
    24   12   30 1   
    25   13   31 1   
    26   13   32 1   
    27   13   33 1   
    28   14   15 1   
    29   15   16 ar  
    30   16   17 ar  
    31   16   34 1   
    32   17   18 1   
    33   18   19 1   
    34   18   35 1   
    35   19   20 1   
    36   19   22 1   
    37   19   36 1   
    38   20   21 1   
    39   20   37 1   
    40   20   38 1   
    41   21   22 1   
    42   21   39 1   
    43   22   40 1   
    44   22   41 1   
@<TRIPOS>SUBSTRUCTURE
     1 PZW         1 TEMP              0 ****  ****    0 ROOT
