@<TRIPOS>MOLECULE
PZW
   42    45     1     0     0
SMALL
bcc


@<TRIPOS>ATOM
      1 C1          0.0960    0.3950   -0.1640 c3        1 PZW     -0.080800
      2 C2          1.5630    0.1870   -0.1550 ca        1 PZW     -0.049300
      3 C3          2.3020    0.5420    0.9790 ca        1 PZW     -0.109000
      4 C4          3.6820    0.3530    1.0180 ca        1 PZW      0.127100
      5 O5          4.3240    0.7920    2.1530 os        1 PZW     -0.293900
      6 C6          5.5910    0.1810    2.4190 c3        1 PZW      0.110100
      7 C7          6.4410    0.0700    1.1690 c2        1 PZW      0.475200
      8 N8          7.7320    0.3530    1.2340 n2        1 PZW     -0.425300
      9 N9          8.4900    0.2410    0.1490 n         1 PZW     -0.316900
     10 C10         8.0340   -0.2390   -1.0840 c         1 PZW      0.673500
     11 O11         8.7670   -0.2570   -2.0800 o         1 PZW     -0.568500
     12 C12         6.5780   -0.7550   -1.1590 c3        1 PZW      0.164500
     13 C13         6.6520   -2.2670   -1.3840 c3        1 PZW     -0.116100
     14 N14         5.7720   -0.3760   -0.0070 nh        1 PZW     -0.643000
     15 C15         4.3930   -0.2100   -0.0920 ca        1 PZW      0.167600
     16 C16         3.6450   -0.5860   -1.2190 ca        1 PZW     -0.164000
     17 C17         2.2520   -0.3800   -1.2420 ca        1 PZW     -0.056400
     18 N18         1.5110   -0.7890   -2.4410 n4        1 PZW     -0.608400
     19 C19         1.3920    0.2960   -3.4520 cy        1 PZW      0.049500
     20 C20         2.6030    0.4460   -4.4360 cy        1 PZW      0.136300
     21 N21         1.7720   -0.0760   -5.5350 n3        1 PZW     -0.790200
     22 C22         0.5460   -0.0870   -4.7180 cy        1 PZW      0.136300
     23 H1         -0.4450   -0.5850   -0.2060 hc        1 PZW      0.065033
     24 H2         -0.2370    0.9220    0.7670 hc        1 PZW      0.065033
     25 H3         -0.2180    1.0220   -1.0360 hc        1 PZW      0.065033
     26 H4          1.7980    0.9850    1.8550 ha        1 PZW      0.185000
     27 H5          5.4210   -0.8440    2.8460 h1        1 PZW      0.105700
     28 H6          6.0500    0.8640    3.1870 h1        1 PZW      0.105700
     29 H7          9.4520    0.5010    0.2780 hn        1 PZW      0.380500
     30 H8          6.1340   -0.2700   -2.0830 h1        1 PZW      0.079700
     31 H9          7.0970   -2.7860   -0.5020 hc        1 PZW      0.064367
     32 H10         5.6350   -2.6880   -1.5670 hc        1 PZW      0.064367
     33 H11         7.2960   -2.4610   -2.2770 hc        1 PZW      0.064367
     34 H12         4.1490   -1.0460   -2.0850 ha        1 PZW      0.154000
     35 H13         0.5640   -1.0780   -2.1600 hn        1 PZW      0.457800
     36 H14         1.0850    1.2400   -2.9350 hx        1 PZW      0.127700
     37 H15         3.4820   -0.2160   -4.2430 h1        1 PZW      0.085700
     38 H16         2.9480    1.5060   -4.5260 h1        1 PZW      0.085700
     39 H17         1.7310    0.5070   -6.3450 hn        1 PZW      0.395800
     40 H19         0.0740   -1.1000   -4.7140 h1        1 PZW      0.085700
     41 H20        -0.2260    0.6840   -4.9600 h1        1 PZW      0.085700
     42 H182        1.9850   -1.5940   -2.8720 hn        1 PZW      0.457800
@<TRIPOS>BOND
     1    1    2 1   
     2    1   23 1   
     3    1   24 1   
     4    1   25 1   
     5    2    3 ar  
     6    2   17 ar  
     7    3    4 ar  
     8    3   26 1   
     9    4    5 1   
    10    4   15 ar  
    11    5    6 1   
    12    6    7 1   
    13    6   27 1   
    14    6   28 1   
    15    7    8 2   
    16    7   14 1   
    17    8    9 1   
    18    9   10 1   
    19    9   29 1   
    20   10   11 2   
    21   10   12 1   
    22   12   13 1   
    23   12   14 1   
    24   12   30 1   
    25   13   31 1   
    26   13   32 1   
    27   13   33 1   
    28   14   15 1   
    29   15   16 ar  
    30   16   17 ar  
    31   16   34 1   
    32   17   18 1   
    33   18   19 1   
    34   18   35 1   
    35   18   42 1   
    36   19   20 1   
    37   19   22 1   
    38   19   36 1   
    39   20   21 1   
    40   20   37 1   
    41   20   38 1   
    42   21   22 1   
    43   21   39 1   
    44   22   40 1   
    45   22   41 1   
@<TRIPOS>SUBSTRUCTURE
     1 PZW         1 TEMP              0 ****  ****    0 ROOT
