@<TRIPOS>MOLECULE
PZW
   41    44     1     0     0
SMALL
bcc


@<TRIPOS>ATOM
      1 C1         -0.0020    0.3000    0.0910 c3        1 PZW     -0.046800
      2 C2          1.4750    0.1910    0.0240 ca        1 PZW     -0.134300
      3 C3          2.2060    0.1340    1.2080 ca        1 PZW     -0.079000
      4 C4          3.5970    0.0430    1.1820 ca        1 PZW      0.024100
      5 O5          4.2490    0.0770    2.4100 os        1 PZW     -0.312900
      6 C6          5.5080   -0.5890    2.4130 c3        1 PZW      0.111100
      7 C7          6.3620   -0.1760    1.2220 c2        1 PZW      0.515200
      8 N8          7.6440    0.0960    1.4130 n2        1 PZW     -0.493300
      9 N9          8.4020    0.4530    0.3710 n         1 PZW     -0.319900
     10 C10         7.9260    0.5870   -0.9330 c         1 PZW      0.668500
     11 O11         8.6390    1.0650   -1.8280 o         1 PZW     -0.610500
     12 C12         6.4970    0.0790   -1.2290 c3        1 PZW      0.172500
     13 C13         6.6480   -1.1720   -2.0980 c3        1 PZW     -0.112100
     14 N14         5.7040   -0.1440   -0.0290 nh        1 PZW     -0.646000
     15 C15         4.3040   -0.0120   -0.0460 ca        1 PZW      0.157600
     16 C16         3.5620    0.0230   -1.2400 ca        1 PZW     -0.216000
     17 C17         2.1570    0.1470   -1.2240 ca        1 PZW      0.164600
     18 N18         1.4200    0.2980   -2.4120 nh        1 PZW     -0.713600
     19 C19         2.0400    0.0540   -3.6750 cy        1 PZW      0.158500
     20 C20         2.3520   -1.4220   -4.1250 cy        1 PZW      0.109800
     21 N21         1.3970   -1.3000   -5.2420 n3        1 PZW     -0.790200
     22 C22         1.0870    0.1080   -4.9250 cy        1 PZW      0.109800
     23 H1         -0.3520    1.2290   -0.4260 hc        1 PZW      0.044700
     24 H2         -0.4870   -0.5820   -0.3980 hc        1 PZW      0.044700
     25 H3         -0.3530    0.3420    1.1510 hc        1 PZW      0.044700
     26 H4          1.6950    0.1720    2.1830 ha        1 PZW      0.153000
     27 H5          5.3530   -1.7010    2.3760 h1        1 PZW      0.084200
     28 H6          5.9720   -0.2840    3.3890 h1        1 PZW      0.084200
     29 H7          9.3200    0.7680    0.6160 hn        1 PZW      0.359500
     30 H8          6.0010    0.8910   -1.8460 h1        1 PZW      0.087700
     31 H9          7.2670   -0.9090   -2.9910 hc        1 PZW      0.057033
     32 H10         7.1530   -1.9940   -1.5370 hc        1 PZW      0.057033
     33 H11         5.6500   -1.5370   -2.4390 hc        1 PZW      0.057033
     34 H12         4.0880   -0.0520   -2.2040 ha        1 PZW      0.139000
     35 H13         0.4920   -0.0740   -2.3500 hn        1 PZW      0.407800
     36 H14         2.9240    0.7330   -3.7860 h1        1 PZW      0.073700
     37 H15         3.4200   -1.5840   -4.4040 h1        1 PZW      0.058950
     38 H16         2.0290   -2.2170   -3.4120 h1        1 PZW      0.058950
     39 H17         1.8210   -1.4180   -6.1390 hn        1 PZW      0.352800
     40 H19         1.4030    0.8660   -5.6790 h1        1 PZW      0.058950
     41 H20         0.0010    0.2350   -4.7010 h1        1 PZW      0.058950
@<TRIPOS>BOND
     1    1    2 1   
     2    1   23 1   
     3    1   24 1   
     4    1   25 1   
     5    2    3 ar  
     6    2   17 ar  
     7    3    4 ar  
     8    3   26 1   
     9    4    5 1   
    10    4   15 ar  
    11    5    6 1   
    12    6    7 1   
    13    6   27 1   
    14    6   28 1   
    15    7    8 2   
    16    7   14 1   
    17    8    9 1   
    18    9   10 1   
    19    9   29 1   
    20   10   11 2   
    21   10   12 1   
    22   12   13 1   
    23   12   14 1   
    24   12   30 1   
    25   13   31 1   
    26   13   32 1   
    27   13   33 1   
    28   14   15 1   
    29   15   16 ar  
    30   16   17 ar  
    31   16   34 1   
    32   17   18 1   
    33   18   19 1   
    34   18   35 1   
    35   19   20 1   
    36   19   22 1   
    37   19   36 1   
    38   20   21 1   
    39   20   37 1   
    40   20   38 1   
    41   21   22 1   
    42   21   39 1   
    43   22   40 1   
    44   22   41 1   
@<TRIPOS>SUBSTRUCTURE
     1 PZW         1 TEMP              0 ****  ****    0 ROOT
