@<TRIPOS>MOLECULE
PZX
   27    28     1     0     0
SMALL
bcc


@<TRIPOS>ATOM
      1 C7          0.0710   -0.3230   -0.0510 c3        1 PZX     -0.036800
      2 C16         1.5350   -0.2730    0.0620 cc        1 PZX     -0.111600
      3 C6          2.3450    0.2160    1.0980 cd        1 PZX     -0.229300
      4 N8          2.4230   -0.7460   -0.9260 na        1 PZX     -0.003600
      5 N12         3.6940   -0.5920   -0.5960 nc        1 PZX     -0.446800
      6 C9          3.7030   -0.0030    0.6430 cd        1 PZX      0.255800
      7 C10         4.8780    0.3660    1.4260 c         1 PZX      0.578600
      8 O14         4.8850    0.8740    2.5510 o         1 PZX     -0.542000
      9 O13         6.0790    0.1100    0.8220 os        1 PZX     -0.420900
     10 C5          7.2500    0.4660    1.5810 c3        1 PZX      0.188700
     11 C11         8.4500    0.1520    0.7600 ca        1 PZX     -0.208600
     12 C3          8.3940   -0.5750   -0.4330 ca        1 PZX     -0.068000
     13 C2          9.5800   -0.8290   -1.1240 ca        1 PZX     -0.247300
     14 C1         10.7870   -0.3440   -0.5910 ca        1 PZX      0.391200
     15 N15        10.8620    0.3590    0.5570 nb        1 PZX     -0.664000
     16 C4          9.7120    0.5990    1.2120 ca        1 PZX      0.396200
     17 H1         -0.2830    0.2630   -0.9370 hc        1 PZX      0.058367
     18 H2         -0.3860    0.1160    0.8710 hc        1 PZX      0.058367
     19 H3         -0.2870   -1.3780   -0.1580 hc        1 PZX      0.058367
     20 H4          2.0500    0.6650    2.0410 ha        1 PZX      0.185000
     21 H5          2.1760   -1.1580   -1.7960 hn        1 PZX      0.326700
     22 H6          7.2000    1.5620    1.8270 h1        1 PZX      0.065700
     23 H7          7.2490   -0.1250    2.5370 h1        1 PZX      0.065700
     24 H8          7.4260   -0.9340   -0.8170 ha        1 PZX      0.161000
     25 H9          9.5740   -1.3950   -2.0640 ha        1 PZX      0.144000
     26 H10        11.7480   -0.5240   -1.1050 h4        1 PZX      0.021100
     27 H11         9.8020    1.1790    2.1480 h4        1 PZX      0.022100
@<TRIPOS>BOND
     1    1    2 1   
     2    1   17 1   
     3    1   18 1   
     4    1   19 1   
     5    2    3 2   
     6    2    4 1   
     7    3    6 1   
     8    3   20 1   
     9    4    5 1   
    10    4   21 1   
    11    5    6 2   
    12    6    7 1   
    13    7    8 2   
    14    7    9 1   
    15    9   10 1   
    16   10   11 1   
    17   10   22 1   
    18   10   23 1   
    19   11   12 ar  
    20   11   16 ar  
    21   12   13 ar  
    22   12   24 1   
    23   13   14 ar  
    24   13   25 1   
    25   14   15 ar  
    26   14   26 1   
    27   15   16 ar  
    28   16   27 1   
@<TRIPOS>SUBSTRUCTURE
     1 PZX         1 TEMP              0 ****  ****    0 ROOT
