@<TRIPOS>MOLECULE
PZX
   27    28     1     0     0
SMALL
bcc


@<TRIPOS>ATOM
      1 C7          0.0780   -0.4850   -0.0110 c3        1 PZX     -0.036800
      2 C16         1.5410   -0.3940    0.0930 cc        1 PZX     -0.111600
      3 C6          2.3430    0.1300    1.1180 cd        1 PZX     -0.229300
      4 N8          2.4360   -0.8530   -0.8960 na        1 PZX     -0.003600
      5 N12         3.7030   -0.6610   -0.5750 nc        1 PZX     -0.446800
      6 C9          3.7040   -0.0580    0.6570 cd        1 PZX      0.255800
      7 C10         4.8730    0.3520    1.4280 c         1 PZX      0.578600
      8 O14         4.8730    0.8710    2.5480 o         1 PZX     -0.542000
      9 O13         6.0770    0.1260    0.8180 os        1 PZX     -0.420900
     10 C5          7.2420    0.5240    1.5660 c3        1 PZX      0.188700
     11 C11         8.4440    0.2400    0.7380 ca        1 PZX     -0.208600
     12 C3          8.4040   -0.5150   -0.4390 ca        1 PZX     -0.068000
     13 C2          9.5920   -0.7370   -1.1380 ca        1 PZX     -0.248300
     14 C1         10.7840   -0.1940   -0.6300 ca        1 PZX      0.391200
     15 N15        10.8440    0.5370    0.5020 nb        1 PZX     -0.664000
     16 C4          9.6930    0.7470    1.1640 ca        1 PZX      0.396200
     17 H1         -0.2970    0.0810   -0.9010 hc        1 PZX      0.058367
     18 H2         -0.3860   -0.0490    0.9080 hc        1 PZX      0.058367
     19 H3         -0.2520   -1.5510   -0.1040 hc        1 PZX      0.058367
     20 H4          2.0420    0.5810    2.0570 ha        1 PZX      0.185000
     21 H5          2.1950   -1.2820   -1.7600 hn        1 PZX      0.326700
     22 H6          7.1600    1.6180    1.8050 h1        1 PZX      0.066200
     23 H7          7.2660   -0.0610    2.5250 h1        1 PZX      0.066200
     24 H8          7.4470   -0.9200   -0.8030 ha        1 PZX      0.161000
     25 H9          9.5980   -1.3240   -2.0650 ha        1 PZX      0.144000
     26 H10        11.7460   -0.3470   -1.1510 h4        1 PZX      0.021100
     27 H11         9.7700    1.3510    2.0860 h4        1 PZX      0.022100
@<TRIPOS>BOND
     1    1    2 1   
     2    1   17 1   
     3    1   18 1   
     4    1   19 1   
     5    2    3 2   
     6    2    4 1   
     7    3    6 1   
     8    3   20 1   
     9    4    5 1   
    10    4   21 1   
    11    5    6 2   
    12    6    7 1   
    13    7    8 2   
    14    7    9 1   
    15    9   10 1   
    16   10   11 1   
    17   10   22 1   
    18   10   23 1   
    19   11   12 ar  
    20   11   16 ar  
    21   12   13 ar  
    22   12   24 1   
    23   13   14 ar  
    24   13   25 1   
    25   14   15 ar  
    26   14   26 1   
    27   15   16 ar  
    28   16   27 1   
@<TRIPOS>SUBSTRUCTURE
     1 PZX         1 TEMP              0 ****  ****    0 ROOT
