@<TRIPOS>MOLECULE
PZX
   27    28     1     0     0
SMALL
bcc


@<TRIPOS>ATOM
      1 C7          5.7210    0.6320    0.2700 c3        1 PZX     -0.036800
      2 C16         4.2610    0.4690    0.2330 cc        1 PZX     -0.111600
      3 C6          3.4840   -0.6190   -0.1940 cd        1 PZX     -0.229300
      4 N8          3.3420    1.4530    0.6530 na        1 PZX     -0.003600
      5 N12         2.0830    1.0740    0.5230 nc        1 PZX     -0.446800
      6 C9          2.1130   -0.1960    0.0050 cd        1 PZX      0.255800
      7 C10         0.9630   -1.0360   -0.3140 c         1 PZX      0.578600
      8 O14         0.9910   -2.1880   -0.7570 o         1 PZX     -0.542000
      9 O13        -0.2570   -0.4580   -0.0880 os        1 PZX     -0.420900
     10 C5         -1.4030   -1.2730   -0.3960 c3        1 PZX      0.188700
     11 C11        -2.6280   -0.4750   -0.1250 ca        1 PZX     -0.208600
     12 C3         -2.6100    0.7590    0.5340 ca        1 PZX     -0.068000
     13 C2         -3.8170    1.4240    0.7530 ca        1 PZX     -0.247300
     14 C1         -5.0070    0.8260    0.3030 ca        1 PZX      0.391200
     15 N15        -5.0460   -0.3620   -0.3340 nb        1 PZX     -0.664000
     16 C4         -3.8760   -0.9910   -0.5400 ca        1 PZX      0.396200
     17 H1          6.0440    1.4950   -0.3660 hc        1 PZX      0.058367
     18 H2          6.0780    0.8110    1.3160 hc        1 PZX      0.058367
     19 H3          6.2070   -0.2970   -0.1180 hc        1 PZX      0.058367
     20 H4          3.8080   -1.5750   -0.5900 ha        1 PZX      0.185000
     21 H5          3.5620    2.3530    1.0140 hn        1 PZX      0.326700
     22 H6         -1.3470   -1.5800   -1.4760 h1        1 PZX      0.065700
     23 H7         -1.3700   -2.1930    0.2490 h1        1 PZX      0.065700
     24 H8         -1.6540    1.1930    0.8670 ha        1 PZX      0.161000
     25 H9         -3.8410    2.3940    1.2650 ha        1 PZX      0.144000
     26 H10        -5.9840    1.3190    0.4570 h4        1 PZX      0.021100
     27 H11        -3.9370   -1.9610   -1.0660 h4        1 PZX      0.022100
@<TRIPOS>BOND
     1    1    2 1   
     2    1   17 1   
     3    1   18 1   
     4    1   19 1   
     5    2    3 2   
     6    2    4 1   
     7    3    6 1   
     8    3   20 1   
     9    4    5 1   
    10    4   21 1   
    11    5    6 2   
    12    6    7 1   
    13    7    8 2   
    14    7    9 1   
    15    9   10 1   
    16   10   11 1   
    17   10   22 1   
    18   10   23 1   
    19   11   12 ar  
    20   11   16 ar  
    21   12   13 ar  
    22   12   24 1   
    23   13   14 ar  
    24   13   25 1   
    25   14   15 ar  
    26   14   26 1   
    27   15   16 ar  
    28   16   27 1   
@<TRIPOS>SUBSTRUCTURE
     1 PZX         1 TEMP              0 ****  ****    0 ROOT
