@<TRIPOS>MOLECULE
PZX
   27    23     1     0     0
SMALL
bcc


@<TRIPOS>ATOM
      1 C7         -5.5810    0.6120   -0.7700 c3        1 PZX     -0.162000
      2 C16        -4.0880    0.2030   -0.7030 c2        1 PZX     -0.081000
      3 C6         -3.2540    0.3720    0.3700 c1        1 PZX     -0.164000
      4 N8         -3.3990   -0.4660   -1.6680 n2        1 PZX     -0.147000
      5 N12        -2.1290   -0.7140   -1.1940 n2        1 PZX     -0.010000
      6 C9         -2.0370   -0.2020    0.0550 c1        1 PZX     -0.164000
      7 C10        -0.7750   -0.2230    0.9510 c1        1 PZX      0.390000
      8 O14        -0.8750   -0.0860    2.1130 o         1 PZX     -0.355000
      9 O13         0.4760   -0.3520    0.3760 os        1 PZX     -0.258000
     10 C5          1.5580   -0.2190    1.3030 c3        1 PZX      0.032000
     11 C11         2.8570   -0.2490    0.5600 c2        1 PZX     -0.137000
     12 C3          3.5680    0.9260    0.3570 c2        1 PZX     -0.091000
     13 C2          4.7820    0.8870   -0.2590 c1        1 PZX     -0.183000
     14 C1          5.3050   -0.3200   -0.6810 c1        1 PZX     -0.071000
     15 N15         4.5970   -1.4860   -0.4790 n1        1 PZX     -0.140000
     16 C4          3.3790   -1.4490    0.1390 c1        1 PZX     -0.044000
     17 H1         -5.6730    1.5560   -0.5170 hc        1 PZX      0.097333
     18 H2         -5.9190    0.4820   -1.7000 hc        1 PZX      0.097333
     19 H3         -6.0960    0.0620   -0.1590 hc        1 PZX      0.097333
     20 H4         -3.4860    0.8300    1.2270 DU        1 PZX      0.231500
     21 H5         -3.7330   -0.7160   -2.5140 DU        1 PZX      0.231500
     22 H6          1.5310   -0.9930    1.9760 h1        1 PZX      0.103500
     23 H7          1.4740    0.6500    1.7900 h1        1 PZX      0.103500
     24 H8          3.1830    1.8160    0.6700 ha        1 PZX      0.139000
     25 H9          5.2820    1.7090   -0.4030 ha        1 PZX      0.143000
     26 H10         6.1770   -0.3470   -1.1240 ha        1 PZX      0.158000
     27 H11         2.8750   -2.2820    0.2840 ha        1 PZX      0.182000
@<TRIPOS>BOND
     1    1    2 1   
     2    1   17 1   
     3    1   18 1   
     4    1   19 1   
     5    2    3 1   
     6    2    4 1   
     7    3    6 1   
     8    4    5 1   
     9    5    6 1   
    10    7    8 1   
    11    7    9 1   
    12    9   10 1   
    13   10   11 1   
    14   10   22 1   
    15   10   23 1   
    16   11   12 1   
    17   11   16 1   
    18   12   13 1   
    19   12   24 1   
    20   13   25 1   
    21   14   15 1   
    22   14   26 1   
    23   16   27 1   
@<TRIPOS>SUBSTRUCTURE
     1 PZX         1 TEMP              0 ****  ****    0 ROOT
