@<TRIPOS>MOLECULE
PZZ
   38    39     1     0     0
SMALL
bcc


@<TRIPOS>ATOM
      1 C2         -0.2080   -0.0590    0.0760 cc        1 PZZ     -0.021100
      2 C3          1.1940   -0.0750   -0.0270 cd        1 PZZ     -0.289400
      3 N1         -0.5800   -0.0530    1.4050 na        1 PZZ     -0.150400
      4 C4          3.0080   -0.0750    1.8660 ca        1 PZZ     -0.133000
      5 C5          3.1450   -0.0750    3.2450 ca        1 PZZ     -0.106000
      6 C6          2.0250   -0.0740    4.0960 ca        1 PZZ     -0.107000
      7 C7          0.7250   -0.0680    3.6020 ca        1 PZZ     -0.050300
      8 C8          1.7220   -0.0740    1.3220 ca        1 PZZ     -0.080800
      9 C9          0.5780   -0.0660    2.2010 ca        1 PZZ     -0.051200
     10 C10         1.9850   -0.0360   -1.2540 c3        1 PZZ      0.226000
     11 N11         2.7730   -1.3230   -1.4370 nx        1 PZZ     -0.691400
     12 C12         1.8860   -2.4430   -1.8370 c3        1 PZZ      0.083100
     13 C13         3.8690   -1.1380   -2.4170 c3        1 PZZ      0.083100
     14 C14        -0.4540   -0.0470    4.5070 c3        1 PZZ     -0.046100
     15 C15        -1.1640   -1.3850    4.5450 c3        1 PZZ     -0.084400
     16 C16        -2.3610   -1.3310    5.4810 c3        1 PZZ      0.131400
     17 O17        -3.1540   -2.4700    5.1890 oh        1 PZZ     -0.603800
     18 H2         -0.9580   -0.0350   -0.7220 h4        1 PZZ      0.183000
     19 HN1        -1.5050   -0.0280    1.7570 hn        1 PZZ      0.325700
     20 H4          3.8920   -0.0520    1.2150 ha        1 PZZ      0.117000
     21 H5          4.1510   -0.0690    3.6950 ha        1 PZZ      0.149000
     22 H6          2.1870   -0.0720    5.1870 ha        1 PZZ      0.154000
     23 H101        1.3410    0.1010   -2.1670 hx        1 PZZ      0.098700
     24 H102        2.7450    0.7990   -1.2060 hx        1 PZZ      0.098700
     25 H121        1.0390   -2.5160   -1.1010 hx        1 PZZ      0.101200
     26 H122        2.4690   -3.4020   -1.8390 hx        1 PZZ      0.101200
     27 H123        1.4760   -2.2500   -2.8630 hx        1 PZZ      0.101200
     28 H131        4.5810   -0.3560   -2.0390 hx        1 PZZ      0.101200
     29 H132        4.4180   -2.1080   -2.5540 hx        1 PZZ      0.101200
     30 H133        3.4410   -0.8090   -3.4010 hx        1 PZZ      0.101200
     31 H141       -1.1700    0.7520    4.1680 hc        1 PZZ      0.060700
     32 H142       -0.1290    0.2280    5.5470 hc        1 PZZ      0.060700
     33 H151       -0.4610   -2.1880    4.8890 hc        1 PZZ      0.055700
     34 H152       -1.5170   -1.6750    3.5210 hc        1 PZZ      0.055700
     35 H161       -2.0260   -1.3470    6.5520 h1        1 PZZ      0.028700
     36 H162       -2.9650   -0.3990    5.3050 h1        1 PZZ      0.028700
     37 HO17       -3.8260   -2.5280    5.8780 ho        1 PZZ      0.412000
     38 H111        3.1820   -1.5540   -0.5170 hn        1 PZZ      0.456800
@<TRIPOS>BOND
     1    1    2 2   
     2    1    3 1   
     3    1   18 1   
     4    2    8 1   
     5    2   10 1   
     6    3    9 1   
     7    3   19 1   
     8    4    5 ar  
     9    4    8 ar  
    10    4   20 1   
    11    5    6 ar  
    12    5   21 1   
    13    6    7 ar  
    14    6   22 1   
    15    7    9 ar  
    16    7   14 1   
    17    8    9 ar  
    18   10   11 1   
    19   10   23 1   
    20   10   24 1   
    21   11   12 1   
    22   11   13 1   
    23   11   38 1   
    24   12   25 1   
    25   12   26 1   
    26   12   27 1   
    27   13   28 1   
    28   13   29 1   
    29   13   30 1   
    30   14   15 1   
    31   14   31 1   
    32   14   32 1   
    33   15   16 1   
    34   15   33 1   
    35   15   34 1   
    36   16   17 1   
    37   16   35 1   
    38   16   36 1   
    39   17   37 1   
@<TRIPOS>SUBSTRUCTURE
     1 PZZ         1 TEMP              0 ****  ****    0 ROOT
