@<TRIPOS>MOLECULE
PZZ
   38    39     1     0     0
SMALL
bcc


@<TRIPOS>ATOM
      1 C2         -0.2100   -0.0720    0.0720 cc        1 PZZ     -0.021100
      2 C3          1.1920   -0.0800   -0.0290 cd        1 PZZ     -0.289400
      3 N1         -0.5840   -0.0620    1.4000 na        1 PZZ     -0.150400
      4 C4          3.0030   -0.0620    1.8660 ca        1 PZZ     -0.133000
      5 C5          3.1390   -0.0550    3.2450 ca        1 PZZ     -0.106000
      6 C6          2.0170   -0.0570    4.0950 ca        1 PZZ     -0.107000
      7 C7          0.7180   -0.0610    3.5990 ca        1 PZZ     -0.050300
      8 C8          1.7180   -0.0700    1.3200 ca        1 PZZ     -0.080800
      9 C9          0.5730   -0.0660    2.1970 ca        1 PZZ     -0.051200
     10 C10         1.9850   -0.0420   -1.2560 c3        1 PZZ      0.226000
     11 N11         2.7800   -1.3250   -1.4320 n4        1 PZZ     -0.691400
     12 C12         1.8990   -2.4510   -1.8290 c3        1 PZZ      0.083100
     13 C13         3.8770   -1.1370   -2.4110 c3        1 PZZ      0.083100
     14 C14        -0.4630   -0.0430    4.5020 c3        1 PZZ     -0.046100
     15 C15        -1.1650   -1.3850    4.5450 c3        1 PZZ     -0.084400
     16 C16        -2.3630   -1.3340    5.4790 c3        1 PZZ      0.131400
     17 O17        -3.1490   -2.4790    5.1910 oh        1 PZZ     -0.603800
     18 H2         -0.9590   -0.0550   -0.7270 h4        1 PZZ      0.183000
     19 HN1        -1.5090   -0.0420    1.7500 hn        1 PZZ      0.325700
     20 H4          3.8890   -0.0360    1.2160 ha        1 PZZ      0.117000
     21 H5          4.1440   -0.0420    3.6960 ha        1 PZZ      0.149000
     22 H6          2.1780   -0.0500    5.1860 ha        1 PZZ      0.154000
     23 H101        2.7400    0.7970   -1.2100 hx        1 PZZ      0.098700
     24 H102        1.3410    0.0880   -2.1700 hx        1 PZZ      0.098700
     25 H121        1.4910   -2.2650   -2.8570 hx        1 PZZ      0.101200
     26 H122        1.0520   -2.5260   -1.0950 hx        1 PZZ      0.101200
     27 H123        2.4880   -3.4070   -1.8270 hx        1 PZZ      0.101200
     28 H131        4.5830   -0.3500   -2.0350 hx        1 PZZ      0.101200
     29 H132        4.4310   -2.1050   -2.5430 hx        1 PZZ      0.101200
     30 H133        3.4480   -0.8150   -3.3970 hx        1 PZZ      0.101200
     31 H141       -0.1400    0.2380    5.5420 hc        1 PZZ      0.060700
     32 H142       -1.1820    0.7500    4.1590 hc        1 PZZ      0.060700
     33 H151       -1.5140   -1.6810    3.5210 hc        1 PZZ      0.055700
     34 H152       -0.4580   -2.1820    4.8930 hc        1 PZZ      0.055700
     35 H161       -2.0290   -1.3430    6.5510 h1        1 PZZ      0.028700
     36 H162       -2.9730   -0.4070    5.2980 h1        1 PZZ      0.028700
     37 HO17       -3.8210   -2.5380    5.8800 ho        1 PZZ      0.412000
     38 H111        3.1890   -1.5500   -0.5110 hn        1 PZZ      0.456800
@<TRIPOS>BOND
     1    1    2 2   
     2    1    3 1   
     3    1   18 1   
     4    2    8 1   
     5    2   10 1   
     6    3    9 1   
     7    3   19 1   
     8    4    5 ar  
     9    4    8 ar  
    10    4   20 1   
    11    5    6 ar  
    12    5   21 1   
    13    6    7 ar  
    14    6   22 1   
    15    7    9 ar  
    16    7   14 1   
    17    8    9 ar  
    18   10   11 1   
    19   10   23 1   
    20   10   24 1   
    21   11   12 1   
    22   11   13 1   
    23   11   38 1   
    24   12   25 1   
    25   12   26 1   
    26   12   27 1   
    27   13   28 1   
    28   13   29 1   
    29   13   30 1   
    30   14   15 1   
    31   14   31 1   
    32   14   32 1   
    33   15   16 1   
    34   15   33 1   
    35   15   34 1   
    36   16   17 1   
    37   16   35 1   
    38   16   36 1   
    39   17   37 1   
@<TRIPOS>SUBSTRUCTURE
     1 PZZ         1 TEMP              0 ****  ****    0 ROOT
