@<TRIPOS>MOLECULE
PZZ
   37    38     1     0     0
SMALL
bcc


@<TRIPOS>ATOM
      1 C2          0.9860   -1.3170   -1.4540 cc        1 PZZ     -0.108100
      2 C3          1.8060   -0.4010   -0.7950 cd        1 PZZ     -0.140400
      3 N1         -0.3520   -0.9350   -1.3390 na        1 PZZ     -0.192400
      4 C4          1.1560    1.7490    0.5520 ca        1 PZZ     -0.070000
      5 C5          0.0620    2.5030    0.9500 ca        1 PZZ     -0.163000
      6 C6         -1.2480    2.1370    0.5980 ca        1 PZZ     -0.108000
      7 C7         -1.5180    1.0040   -0.1630 ca        1 PZZ     -0.100300
      8 C8          0.9390    0.6030   -0.2130 ca        1 PZZ     -0.076800
      9 C9         -0.4130    0.2300   -0.5690 ca        1 PZZ     -0.044200
     10 C10         3.2850   -0.4280   -0.7730 c3        1 PZZ      0.244000
     11 N11         3.8790   -0.3320    0.5570 n3        1 PZZ     -0.734600
     12 C12         3.4290   -1.3600    1.4680 c3        1 PZZ      0.155100
     13 C13         5.3200   -0.2320    0.4950 c3        1 PZZ      0.155100
     14 C14        -2.9050    0.6380   -0.5450 c3        1 PZZ     -0.030100
     15 C15        -3.4360   -0.5220    0.2740 c3        1 PZZ     -0.083400
     16 C16        -4.8690   -0.8360   -0.1210 c3        1 PZZ      0.130400
     17 O17        -5.2410   -2.0190    0.5680 oh        1 PZZ     -0.600800
     18 H2          1.2610   -2.2140   -2.0130 h4        1 PZZ      0.164000
     19 HN1        -1.1310   -1.4490   -1.6510 hn        1 PZZ      0.298700
     20 H4          2.1810    2.0340    0.8330 ha        1 PZZ      0.149000
     21 H5          0.2150    3.4090    1.5550 ha        1 PZZ      0.129000
     22 H6         -2.0840    2.7690    0.9360 ha        1 PZZ      0.127000
     23 H101        3.6350   -1.3620   -1.3100 h1        1 PZZ      0.033200
     24 H102        3.6600    0.4600   -1.3630 h1        1 PZZ      0.033200
     25 H121        3.7630   -2.3930    1.1710 h1        1 PZZ      0.031367
     26 H122        3.8340   -1.1380    2.4900 h1        1 PZZ      0.031367
     27 H123        2.3090   -1.3450    1.5100 h1        1 PZZ      0.031367
     28 H131        5.5990    0.6570   -0.1290 h1        1 PZZ      0.031367
     29 H132        5.7150   -0.0800    1.5340 h1        1 PZZ      0.031367
     30 H133        5.8120   -1.1430    0.0570 h1        1 PZZ      0.031367
     31 H141       -3.5820    1.5250   -0.4070 hc        1 PZZ      0.044200
     32 H142       -2.9360    0.3700   -1.6360 hc        1 PZZ      0.044200
     33 H151       -2.8020   -1.4340    0.1200 hc        1 PZZ      0.058700
     34 H152       -3.3970   -0.2760    1.3670 hc        1 PZZ      0.058700
     35 H161       -5.5510    0.0090    0.1650 h1        1 PZZ      0.019200
     36 H162       -4.9490   -1.0030   -1.2290 h1        1 PZZ      0.019200
     37 HO17       -6.1730   -2.1710    0.3720 ho        1 PZZ      0.399000
@<TRIPOS>BOND
     1    1    2 2   
     2    1    3 1   
     3    1   18 1   
     4    2    8 1   
     5    2   10 1   
     6    3    9 1   
     7    3   19 1   
     8    4    5 ar  
     9    4    8 ar  
    10    4   20 1   
    11    5    6 ar  
    12    5   21 1   
    13    6    7 ar  
    14    6   22 1   
    15    7    9 ar  
    16    7   14 1   
    17    8    9 ar  
    18   10   11 1   
    19   10   23 1   
    20   10   24 1   
    21   11   12 1   
    22   11   13 1   
    23   12   25 1   
    24   12   26 1   
    25   12   27 1   
    26   13   28 1   
    27   13   29 1   
    28   13   30 1   
    29   14   15 1   
    30   14   31 1   
    31   14   32 1   
    32   15   16 1   
    33   15   33 1   
    34   15   34 1   
    35   16   17 1   
    36   16   35 1   
    37   16   36 1   
    38   17   37 1   
@<TRIPOS>SUBSTRUCTURE
     1 PZZ         1 TEMP              0 ****  ****    0 ROOT
