@<TRIPOS>MOLECULE
PZZ
   38    39     1     0     0
SMALL
bcc


@<TRIPOS>ATOM
      1 C2         -0.2080   -0.0510    0.0810 cc        1 PZZ     -0.021100
      2 C3          1.1930   -0.0690   -0.0240 cd        1 PZZ     -0.289400
      3 N1         -0.5780   -0.0490    1.4100 na        1 PZZ     -0.150400
      4 C4          3.0100   -0.0810    1.8670 ca        1 PZZ     -0.133000
      5 C5          3.1490   -0.0860    3.2450 ca        1 PZZ     -0.106000
      6 C6          2.0300   -0.0860    4.0980 ca        1 PZZ     -0.107000
      7 C7          0.7290   -0.0750    3.6050 ca        1 PZZ     -0.050300
      8 C8          1.7230   -0.0750    1.3230 ca        1 PZZ     -0.080800
      9 C9          0.5810   -0.0680    2.2040 ca        1 PZZ     -0.051200
     10 C10         1.9840   -0.0280   -1.2520 c3        1 PZZ      0.226000
     11 N11         2.7680   -1.3160   -1.4410 n4        1 PZZ     -0.691400
     12 C12         1.8780   -2.4320   -1.8430 c3        1 PZZ      0.083100
     13 C13         3.8640   -1.1300   -2.4210 c3        1 PZZ      0.083100
     14 C14        -0.4490   -0.0540    4.5110 c3        1 PZZ     -0.046100
     15 C15        -1.1620   -1.3910    4.5450 c3        1 PZZ     -0.084400
     16 C16        -2.3580   -1.3370    5.4830 c3        1 PZZ      0.131400
     17 O17        -3.1550   -2.4730    5.1860 oh        1 PZZ     -0.603800
     18 H2         -0.9580   -0.0220   -0.7160 h4        1 PZZ      0.183000
     19 HN1        -1.5030   -0.0230    1.7630 hn        1 PZZ      0.325700
     20 H4          3.8940   -0.0580    1.2150 ha        1 PZZ      0.117000
     21 H5          4.1560   -0.0850    3.6940 ha        1 PZZ      0.149000
     22 H6          2.1930   -0.0890    5.1880 ha        1 PZZ      0.154000
     23 H101        1.3380    0.1140   -2.1640 hx        1 PZZ      0.098700
     24 H102        2.7460    0.8050   -1.2020 hx        1 PZZ      0.098700
     25 H121        1.0320   -2.5060   -1.1070 hx        1 PZZ      0.101200
     26 H122        2.4600   -3.3920   -1.8500 hx        1 PZZ      0.101200
     27 H123        1.4680   -2.2350   -2.8690 hx        1 PZZ      0.101200
     28 H131        4.5770   -0.3500   -2.0420 hx        1 PZZ      0.101200
     29 H132        4.4100   -2.1000   -2.5620 hx        1 PZZ      0.101200
     30 H133        3.4350   -0.7960   -3.4040 hx        1 PZZ      0.101200
     31 H141       -1.1630    0.7470    4.1770 hc        1 PZZ      0.060700
     32 H142       -0.1220    0.2150    5.5520 hc        1 PZZ      0.060700
     33 H151       -0.4610   -2.1970    4.8860 hc        1 PZZ      0.055700
     34 H152       -1.5160   -1.6760    3.5200 hc        1 PZZ      0.055700
     35 H161       -2.0220   -1.3590    6.5530 h1        1 PZZ      0.028700
     36 H162       -2.9590   -0.4030    5.3110 h1        1 PZZ      0.028700
     37 HO17       -3.8260   -2.5320    5.8760 ho        1 PZZ      0.412000
     38 H111        3.1780   -1.5510   -0.5230 hn        1 PZZ      0.456800
@<TRIPOS>BOND
     1    1    2 2   
     2    1    3 1   
     3    1   18 1   
     4    2    8 1   
     5    2   10 1   
     6    3    9 1   
     7    3   19 1   
     8    4    5 ar  
     9    4    8 ar  
    10    4   20 1   
    11    5    6 ar  
    12    5   21 1   
    13    6    7 ar  
    14    6   22 1   
    15    7    9 ar  
    16    7   14 1   
    17    8    9 ar  
    18   10   11 1   
    19   10   23 1   
    20   10   24 1   
    21   11   12 1   
    22   11   13 1   
    23   11   38 1   
    24   12   25 1   
    25   12   26 1   
    26   12   27 1   
    27   13   28 1   
    28   13   29 1   
    29   13   30 1   
    30   14   15 1   
    31   14   31 1   
    32   14   32 1   
    33   15   16 1   
    34   15   33 1   
    35   15   34 1   
    36   16   17 1   
    37   16   35 1   
    38   16   36 1   
    39   17   37 1   
@<TRIPOS>SUBSTRUCTURE
     1 PZZ         1 TEMP              0 ****  ****    0 ROOT
