@<TRIPOS>MOLECULE
Q00
   46    47     1     0     0
SMALL
bcc


@<TRIPOS>ATOM
      1 N          -2.5170    1.8270    0.2430 n3        1 Q00     -0.906800
      2 C1         -2.2500    0.4660   -0.1900 c3        1 Q00      0.167500
      3 C2         -0.8910    0.2510   -0.8790 c3        1 Q00     -0.115400
      4 C3         -3.3440   -0.0510   -1.1470 c3        1 Q00     -0.035100
      5 C4         -4.6410   -0.2880   -0.4600 ca        1 Q00     -0.057300
      6 C5         -5.5060    0.7780   -0.1810 ca        1 Q00     -0.119500
      7 C6         -5.0200   -1.5860   -0.0950 ca        1 Q00     -0.119500
      8 C7         -6.7280    0.5460    0.4500 ca        1 Q00     -0.137500
      9 C8         -6.2430   -1.8150    0.5340 ca        1 Q00     -0.137500
     10 C9         -7.1000   -0.7500    0.8060 ca        1 Q00     -0.144000
     11 C10         0.2580    0.7170    0.0130 c3        1 Q00      0.141800
     12 N2          1.5560    0.4320   -0.5620 n3        1 Q00     -0.796200
     13 C11         2.6580    1.0390    0.1780 c3        1 Q00      0.052500
     14 C           2.6460    2.6090    0.1080 c         1 Q00      0.929600
     15 O           1.7230    3.2040    0.7310 o         1 Q00     -0.835800
     16 C13         4.0210    0.5400   -0.3240 c3        1 Q00     -0.041100
     17 C14         4.2240   -0.9140   -0.0930 ca        1 Q00     -0.049300
     18 C15         3.9080   -1.8470   -1.0900 ca        1 Q00     -0.137000
     19 C16         4.7410   -1.3760    1.1260 ca        1 Q00     -0.137000
     20 C17         4.1060   -3.2100   -0.8730 ca        1 Q00     -0.137500
     21 C18         4.9390   -2.7380    1.3410 ca        1 Q00     -0.137500
     22 C19         4.6230   -3.6590    0.3420 ca        1 Q00     -0.158000
     23 OXT         3.5780    3.1830   -0.5140 o         1 Q00     -0.835800
     24 H          -1.8780    2.0750    0.9760 hn        1 Q00      0.354300
     25 H25        -2.2730   -0.1800    0.7390 h1        1 Q00      0.053700
     26 H3         -0.7820   -0.8400   -1.1130 hc        1 Q00      0.038700
     27 H4         -0.8660    0.8090   -1.8500 hc        1 Q00      0.038700
     28 H5         -3.4900    0.6810   -1.9860 hc        1 Q00      0.045700
     29 H6         -2.9800   -1.0110   -1.6020 hc        1 Q00      0.045700
     30 H7         -5.2060    1.8030   -0.4460 ha        1 Q00      0.136000
     31 H8         -4.3450   -2.4300   -0.3030 ha        1 Q00      0.136000
     32 H9         -7.3970    1.3900    0.6700 ha        1 Q00      0.120500
     33 H10        -6.5290   -2.8380    0.8180 ha        1 Q00      0.120500
     34 H11        -8.0630   -0.9300    1.3040 ha        1 Q00      0.118000
     35 H12         0.2030    1.8380    0.1600 h1        1 Q00      0.051200
     36 H13         0.1260    0.2400    1.0310 h1        1 Q00      0.051200
     37 H14         1.6960   -0.5640   -0.5990 hn        1 Q00      0.320800
     38 H15         2.5840    0.7790    1.2800 h1        1 Q00      0.002700
     39 H16         4.1210    0.7870   -1.4140 hc        1 Q00      0.071200
     40 H17         4.8050    1.1340    0.2180 hc        1 Q00      0.071200
     41 H18         3.4960   -1.4930   -2.0470 ha        1 Q00      0.137000
     42 H19         4.9860   -0.6500    1.9150 ha        1 Q00      0.137000
     43 H20         3.8530   -3.9320   -1.6620 ha        1 Q00      0.115000
     44 H21         5.3430   -3.0880    2.3010 ha        1 Q00      0.115000
     45 H22         4.7790   -4.7330    0.5120 ha        1 Q00      0.112000
     46 H2         -2.3770    2.4630   -0.5190 hn        1 Q00      0.354300
@<TRIPOS>BOND
     1    1    2 1   
     2    1   24 1   
     3    1   46 1   
     4    2    3 1   
     5    2    4 1   
     6    2   25 1   
     7    3   11 1   
     8    3   26 1   
     9    3   27 1   
    10    4    5 1   
    11    4   28 1   
    12    4   29 1   
    13    5    6 ar  
    14    5    7 ar  
    15    6    8 ar  
    16    6   30 1   
    17    7    9 ar  
    18    7   31 1   
    19    8   10 ar  
    20    8   32 1   
    21    9   10 ar  
    22    9   33 1   
    23   10   34 1   
    24   11   12 1   
    25   11   35 1   
    26   11   36 1   
    27   12   13 1   
    28   12   37 1   
    29   13   14 1   
    30   13   16 1   
    31   13   38 1   
    32   14   15 1   
    33   14   23 1   
    34   16   17 1   
    35   16   39 1   
    36   16   40 1   
    37   17   18 ar  
    38   17   19 ar  
    39   18   20 ar  
    40   18   41 1   
    41   19   21 ar  
    42   19   42 1   
    43   20   22 ar  
    44   20   43 1   
    45   21   22 ar  
    46   21   44 1   
    47   22   45 1   
@<TRIPOS>SUBSTRUCTURE
     1 Q00         1 TEMP              0 ****  ****    0 ROOT
