@<TRIPOS>MOLECULE
Q02
   21    20     1     0     0
SMALL
bcc


@<TRIPOS>ATOM
      1 O          -0.0800    0.3930    0.8800 o         1 Q02     -1.148000
      2 P           1.0010    0.2200   -0.1330 p3        1 Q02      2.470000
      3 O1          1.5340    1.3670   -0.8780 o         1 Q02     -1.148000
      4 O2          1.1860   -1.1900   -0.5680 o         1 Q02     -1.148000
      5 C           2.4470   -0.1070    1.8110 c2        1 Q02     -0.666000
      6 N           1.6300   -1.2650    2.0490 nz        1 Q02      0.001000
      7 C1          3.8690   -0.2080    1.8240 ca        1 Q02      0.113000
      8 C6          4.5660   -1.4330    1.8890 ca        1 Q02     -0.211500
      9 C5          5.9570   -1.4610    1.9110 ca        1 Q02     -0.097500
     10 C4          6.6940   -0.2810    1.8690 ca        1 Q02     -0.228000
     11 C3          6.0180    0.9410    1.7840 ca        1 Q02     -0.097500
     12 C2          4.6350    0.9840    1.7630 ca        1 Q02     -0.211500
     13 H3          1.9850    0.8430    2.1260 hx        1 Q02      0.161000
     14 H4          1.8940   -1.7790    2.8860 hn        1 Q02      0.225333
     15 H5          1.7080   -1.8810    1.2120 hn        1 Q02      0.225333
     16 H7          4.0210   -2.3860    1.8910 ha        1 Q02      0.115000
     17 H8          6.4780   -2.4280    1.9590 ha        1 Q02      0.100500
     18 H9          7.7900   -0.3070    1.8890 ha        1 Q02      0.102000
     19 H10         6.5950    1.8760    1.7290 ha        1 Q02      0.100500
     20 H11         4.1090    1.9450    1.6730 ha        1 Q02      0.115000
     21 HN3         0.6420   -0.9400    2.1060 hn        1 Q02      0.225333
@<TRIPOS>BOND
     1    1    2 1   
     2    2    3 1   
     3    2    4 1   
     4    5    6 1   
     5    5    7 1   
     6    5   13 1   
     7    6   14 1   
     8    6   15 1   
     9    6   21 1   
    10    7    8 1   
    11    7   12 1   
    12    8    9 1   
    13    8   16 1   
    14    9   10 1   
    15    9   17 1   
    16   10   11 1   
    17   10   18 1   
    18   11   12 1   
    19   11   19 1   
    20   12   20 1   
@<TRIPOS>SUBSTRUCTURE
     1 Q02         1 TEMP              0 ****  ****    0 ROOT
