@<TRIPOS>MOLECULE
Q02
   21    20     1     0     0
SMALL
bcc


@<TRIPOS>ATOM
      1 O          -0.0770    0.4070    0.8770 o         1 Q02     -1.148000
      2 P           1.0050    0.2350   -0.1350 p3        1 Q02      2.470000
      3 O1          1.5430    1.3850   -0.8730 o         1 Q02     -1.148000
      4 O2          1.1870   -1.1730   -0.5770 o         1 Q02     -1.148000
      5 C           2.4470   -0.1050    1.8100 c2        1 Q02     -0.666000
      6 N           1.6270   -1.2620    2.0410 n4        1 Q02      0.001000
      7 C1          3.8680   -0.2100    1.8250 ca        1 Q02      0.113000
      8 C6          4.5610   -1.4380    1.8850 ca        1 Q02     -0.211500
      9 C5          5.9530   -1.4700    1.9100 ca        1 Q02     -0.097500
     10 C4          6.6930   -0.2930    1.8750 ca        1 Q02     -0.228000
     11 C3          6.0210    0.9320    1.7940 ca        1 Q02     -0.097500
     12 C2          4.6380    0.9800    1.7710 ca        1 Q02     -0.211500
     13 H3          1.9870    0.8440    2.1280 hx        1 Q02      0.161000
     14 H4          0.6390   -0.9340    2.0970 hn        1 Q02      0.225333
     15 H5          1.8870   -1.7800    2.8760 hn        1 Q02      0.225333
     16 H7          4.0140   -2.3890    1.8820 ha        1 Q02      0.115000
     17 H8          6.4710   -2.4390    1.9540 ha        1 Q02      0.100500
     18 H9          7.7890   -0.3220    1.8960 ha        1 Q02      0.102000
     19 H10         6.6010    1.8660    1.7450 ha        1 Q02      0.100500
     20 H11         4.1150    1.9430    1.6850 ha        1 Q02      0.115000
     21 HN3         1.7040   -1.8740    1.2010 hn        1 Q02      0.225333
@<TRIPOS>BOND
     1    1    2 1   
     2    2    3 1   
     3    2    4 1   
     4    5    6 1   
     5    5    7 1   
     6    5   13 1   
     7    6   14 1   
     8    6   15 1   
     9    6   21 1   
    10    7    8 1   
    11    7   12 1   
    12    8    9 1   
    13    8   16 1   
    14    9   10 1   
    15    9   17 1   
    16   10   11 1   
    17   10   18 1   
    18   11   12 1   
    19   11   19 1   
    20   12   20 1   
@<TRIPOS>SUBSTRUCTURE
     1 Q02         1 TEMP              0 ****  ****    0 ROOT
