@<TRIPOS>MOLECULE
Q03
   27    26     1     0     0
SMALL
bcc


@<TRIPOS>ATOM
      1 O2          0.3110   -0.0990   -0.6230 o         1 Q03     -1.181667
      2 P           1.7560   -0.3240   -0.4300 p3        1 Q03      2.519000
      3 O           2.3120   -1.6970   -0.2090 o         1 Q03     -1.181667
      4 O1          2.7750    0.6420   -0.9440 o         1 Q03     -1.181667
      5 C           2.1550    0.1510    1.7330 c2        1 Q03     -0.691000
      6 N           3.5670   -0.0670    1.4910 n4        1 Q03     -0.024000
      7 C1          1.7900    1.4020    2.4810 c3        1 Q03     -0.027000
      8 C6          2.4080    1.4450    3.8790 c3        1 Q03     -0.158000
      9 C5          1.9690    2.6730    4.6510 c3        1 Q03     -0.151500
     10 C4          0.4600    2.7620    4.7350 c3        1 Q03     -0.151000
     11 C3         -0.1620    2.7200    3.3540 c3        1 Q03     -0.151500
     12 C2          0.2710    1.4860    2.5880 c3        1 Q03     -0.158000
     13 H3          1.6680   -0.7560    2.1390 hx        1 Q03      0.109000
     14 H4          3.8410    0.6120    0.7490 hn        1 Q03      0.218000
     15 H5          3.6470   -1.0200    1.0750 hn        1 Q03      0.218000
     16 H7          2.1560    2.3070    1.9170 hc        1 Q03      0.076000
     17 H8          3.5270    1.4520    3.8080 hc        1 Q03      0.079500
     18 H9          2.1110    0.5210    4.4400 hc        1 Q03      0.079500
     19 H10         2.3670    3.5910    4.1440 hc        1 Q03      0.064750
     20 H11         2.4020    2.6460    5.6850 hc        1 Q03      0.064750
     21 H12         0.0700    1.9070    5.3460 hc        1 Q03      0.062000
     22 H13         0.1670    3.7100    5.2570 hc        1 Q03      0.062000
     23 H14         0.1370    3.6380    2.7830 hc        1 Q03      0.064750
     24 H15        -1.2790    2.7300    3.4460 hc        1 Q03      0.064750
     25 H16        -0.1150    0.5700    3.1050 hc        1 Q03      0.079500
     26 H17        -0.1770    1.5030    1.5590 hc        1 Q03      0.079500
     27 HN3         4.1680    0.0270    2.3040 hn        1 Q03      0.218000
@<TRIPOS>BOND
     1    1    2 1   
     2    2    3 1   
     3    2    4 1   
     4    5    6 1   
     5    5    7 1   
     6    5   13 1   
     7    6   14 1   
     8    6   15 1   
     9    6   27 1   
    10    7    8 1   
    11    7   12 1   
    12    7   16 1   
    13    8    9 1   
    14    8   17 1   
    15    8   18 1   
    16    9   10 1   
    17    9   19 1   
    18    9   20 1   
    19   10   11 1   
    20   10   21 1   
    21   10   22 1   
    22   11   12 1   
    23   11   23 1   
    24   11   24 1   
    25   12   25 1   
    26   12   26 1   
@<TRIPOS>SUBSTRUCTURE
     1 Q03         1 TEMP              0 ****  ****    0 ROOT
