@<TRIPOS>MOLECULE
Q03
   27    26     1     0     0
SMALL
bcc


@<TRIPOS>ATOM
      1 O2          0.2810   -0.0890   -0.6150 o         1 Q03     -1.181667
      2 P           1.7300   -0.3010   -0.4440 p3        1 Q03      2.519000
      3 O           2.3040   -1.6690   -0.2400 o         1 Q03     -1.181667
      4 O1          2.7330    0.6800   -0.9640 o         1 Q03     -1.181667
      5 C           2.1550    0.1630    1.7180 c2        1 Q03     -0.691000
      6 N           3.5650   -0.0380    1.4540 nz        1 Q03     -0.024000
      7 C1          1.7870    1.4050    2.4800 c3        1 Q03     -0.027000
      8 C6          2.4240    1.4440    3.8700 c3        1 Q03     -0.158000
      9 C5          1.9830    2.6610    4.6560 c3        1 Q03     -0.151500
     10 C4          0.4740    2.7350    4.7620 c3        1 Q03     -0.151000
     11 C3         -0.1660    2.6960    3.3890 c3        1 Q03     -0.151500
     12 C2          0.2690    1.4720    2.6080 c3        1 Q03     -0.158000
     13 H3          1.6820   -0.7520    2.1240 hx        1 Q03      0.109000
     14 H4          4.1760    0.0560    2.2600 hn        1 Q03      0.218000
     15 H5          3.6490   -0.9880    1.0300 hn        1 Q03      0.218000
     16 H7          2.1350    2.3180    1.9170 hc        1 Q03      0.076000
     17 H8          2.1440    0.5130    4.4280 hc        1 Q03      0.079500
     18 H9          3.5420    1.4620    3.7840 hc        1 Q03      0.079500
     19 H10         2.4310    2.6310    5.6840 hc        1 Q03      0.064750
     20 H11         2.3640    3.5870    4.1510 hc        1 Q03      0.064750
     21 H12         0.1010    1.8700    5.3720 hc        1 Q03      0.062000
     22 H13         0.1790    3.6750    5.2950 hc        1 Q03      0.062000
     23 H14        -1.2820    2.6930    3.4970 hc        1 Q03      0.064750
     24 H15         0.1150    3.6210    2.8210 hc        1 Q03      0.064750
     25 H16        -0.1940    1.4920    1.5860 hc        1 Q03      0.079500
     26 H17        -0.1010    0.5480    3.1240 hc        1 Q03      0.079500
     27 HN3         3.8210    0.6480    0.7150 hn        1 Q03      0.218000
@<TRIPOS>BOND
     1    1    2 1   
     2    2    3 1   
     3    2    4 1   
     4    5    6 1   
     5    5    7 1   
     6    5   13 1   
     7    6   14 1   
     8    6   15 1   
     9    6   27 1   
    10    7    8 1   
    11    7   12 1   
    12    7   16 1   
    13    8    9 1   
    14    8   17 1   
    15    8   18 1   
    16    9   10 1   
    17    9   19 1   
    18    9   20 1   
    19   10   11 1   
    20   10   21 1   
    21   10   22 1   
    22   11   12 1   
    23   11   23 1   
    24   11   24 1   
    25   12   25 1   
    26   12   26 1   
@<TRIPOS>SUBSTRUCTURE
     1 Q03         1 TEMP              0 ****  ****    0 ROOT
