@<TRIPOS>MOLECULE
Q04
   30    30     1     0     0
SMALL
bcc


@<TRIPOS>ATOM
      1 O           0.3300   -0.0230   -0.4790 o         1 Q04     -0.864000
      2 P           1.7950    0.0020   -0.2700 p5        1 Q04      1.338600
      3 O1          2.0810    0.0900    1.3420 oh        1 Q04     -0.784400
      4 O2          2.7210   -1.0760   -0.7050 o         1 Q04     -0.864000
      5 C           2.4180    1.5120   -0.8610 c3        1 Q04     -0.072700
      6 N           3.8380    1.5610   -0.6440 n3        1 Q04     -0.880800
      7 C1          1.9160    1.5670   -2.2950 c3        1 Q04     -0.114400
      8 C2          2.2250    2.8500   -3.0440 c3        1 Q04     -0.050700
      9 C7          1.9230    2.6690   -4.5270 c3        1 Q04     -0.075400
     10 C6          2.1840    3.9400   -5.3090 c3        1 Q04     -0.073900
     11 C5          1.3990    5.1050   -4.7440 c3        1 Q04     -0.073400
     12 C4          1.6880    5.2930   -3.2690 c3        1 Q04     -0.073900
     13 C3          1.4270    4.0210   -2.4880 c3        1 Q04     -0.075400
     14 H3          1.9640    2.3640   -0.2860 h1        1 Q04      0.070700
     15 H4          4.2320    0.6670   -0.8920 hn        1 Q04      0.333300
     16 H5          4.2680    2.2650   -1.2140 hn        1 Q04      0.333300
     17 H7          2.3570    0.6950   -2.8490 hc        1 Q04      0.065200
     18 H8          0.8010    1.4090   -2.2590 hc        1 Q04      0.065200
     19 H9          3.3200    3.0910   -2.9410 hc        1 Q04      0.032700
     20 H10         2.5570    1.8400   -4.9380 hc        1 Q04      0.044200
     21 H11         0.8500    2.3650   -4.6500 hc        1 Q04      0.044200
     22 H12         1.9060    3.7850   -6.3840 hc        1 Q04      0.027450
     23 H13         3.2800    4.1790   -5.2760 hc        1 Q04      0.027450
     24 H14         0.3020    4.9190   -4.8880 hc        1 Q04      0.027700
     25 H15         1.6580    6.0420   -5.3030 hc        1 Q04      0.027700
     26 H16         2.7580    5.6000   -3.1360 hc        1 Q04      0.027450
     27 H17         1.0480    6.1200   -2.8640 hc        1 Q04      0.027450
     28 H18         0.3330    3.7740   -2.5230 hc        1 Q04      0.044200
     29 H19         1.7020    4.1790   -1.4130 hc        1 Q04      0.044200
     30 HN3         2.8900   -0.3480    1.5780 ho        1 Q04      0.422000
@<TRIPOS>BOND
     1    1    2 1   
     2    2    3 1   
     3    2    4 1   
     4    2    5 1   
     5    3   30 1   
     6    5    6 1   
     7    5    7 1   
     8    5   14 1   
     9    6   15 1   
    10    6   16 1   
    11    7    8 1   
    12    7   17 1   
    13    7   18 1   
    14    8    9 1   
    15    8   13 1   
    16    8   19 1   
    17    9   10 1   
    18    9   20 1   
    19    9   21 1   
    20   10   11 1   
    21   10   22 1   
    22   10   23 1   
    23   11   12 1   
    24   11   24 1   
    25   11   25 1   
    26   12   13 1   
    27   12   26 1   
    28   12   27 1   
    29   13   28 1   
    30   13   29 1   
@<TRIPOS>SUBSTRUCTURE
     1 Q04         1 TEMP              0 ****  ****    0 ROOT
