@<TRIPOS>MOLECULE
Q04
   30    30     1     0     0
SMALL
bcc


@<TRIPOS>ATOM
      1 O           0.3500   -0.0360   -0.4770 o         1 Q04     -0.864000
      2 P           1.8160   -0.0070   -0.2770 p5        1 Q04      1.338600
      3 O1          2.1110    0.0770    1.3330 oh        1 Q04     -0.783400
      4 O2          2.7430   -1.0800   -0.7210 o         1 Q04     -0.864000
      5 C           2.4310    1.5070   -0.8670 c3        1 Q04     -0.072700
      6 N           3.8520    1.5610   -0.6580 n8        1 Q04     -0.880800
      7 C1          1.9200    1.5660   -2.2970 c3        1 Q04     -0.114400
      8 C2          2.2220    2.8520   -3.0450 c3        1 Q04     -0.050700
      9 C7          1.9090    2.6740   -4.5260 c3        1 Q04     -0.075400
     10 C6          2.1630    3.9480   -5.3060 c3        1 Q04     -0.073900
     11 C5          1.3790    5.1100   -4.7320 c3        1 Q04     -0.073400
     12 C4          1.6790    5.2940   -3.2590 c3        1 Q04     -0.073900
     13 C3          1.4260    4.0190   -2.4800 c3        1 Q04     -0.075400
     14 H3          1.9780    2.3570   -0.2860 h1        1 Q04      0.070700
     15 H4          4.2770    2.2680   -1.2280 hn        1 Q04      0.333300
     16 H5          4.2480    0.6690   -0.9110 hn        1 Q04      0.333300
     17 H7          0.8060    1.4050   -2.2550 hc        1 Q04      0.065200
     18 H8          2.3610    0.6960   -2.8570 hc        1 Q04      0.065200
     19 H9          3.3180    3.0940   -2.9490 hc        1 Q04      0.032700
     20 H10         2.5420    1.8480   -4.9440 hc        1 Q04      0.044200
     21 H11         0.8370    2.3680   -4.6420 hc        1 Q04      0.044200
     22 H12         3.2580    4.1890   -5.2810 hc        1 Q04      0.027450
     23 H13         1.8770    3.7960   -6.3790 hc        1 Q04      0.027450
     24 H14         1.6320    6.0490   -5.2900 hc        1 Q04      0.027700
     25 H15         0.2820    4.9220   -4.8680 hc        1 Q04      0.027700
     26 H16         2.7500    5.6030   -3.1330 hc        1 Q04      0.027450
     27 H17         1.0400    6.1190   -2.8470 hc        1 Q04      0.027450
     28 H18         0.3330    3.7700   -2.5070 hc        1 Q04      0.044200
     29 H19         1.7090    4.1750   -1.4060 hc        1 Q04      0.044200
     30 HN3         2.9240   -0.3580    1.5630 ho        1 Q04      0.422000
@<TRIPOS>BOND
     1    1    2 1   
     2    2    3 1   
     3    2    4 1   
     4    2    5 1   
     5    3   30 1   
     6    5    6 1   
     7    5    7 1   
     8    5   14 1   
     9    6   15 1   
    10    6   16 1   
    11    7    8 1   
    12    7   17 1   
    13    7   18 1   
    14    8    9 1   
    15    8   13 1   
    16    8   19 1   
    17    9   10 1   
    18    9   20 1   
    19    9   21 1   
    20   10   11 1   
    21   10   22 1   
    22   10   23 1   
    23   11   12 1   
    24   11   24 1   
    25   11   25 1   
    26   12   13 1   
    27   12   26 1   
    28   12   27 1   
    29   13   28 1   
    30   13   29 1   
@<TRIPOS>SUBSTRUCTURE
     1 Q04         1 TEMP              0 ****  ****    0 ROOT
