@<TRIPOS>MOLECULE
Q05
   51    53     1     0     0
SMALL
bcc


@<TRIPOS>ATOM
      1 F23         7.4030   -3.2930    0.1100 f         1 Q05     -0.142900
      2 C23         7.3650   -1.9390    0.1150 ca        1 Q05      0.125900
      3 C24         8.4750   -1.2100    0.5830 ca        1 Q05     -0.167000
      4 C25         8.4210    0.1800    0.5820 ca        1 Q05     -0.104000
      5 C22         6.2180   -1.2710   -0.3480 ca        1 Q05     -0.166000
      6 C21         6.1810    0.1260   -0.3420 ca        1 Q05     -0.054300
      7 C26         7.2860    0.8480    0.1250 ca        1 Q05     -0.140000
      8 C20         4.9720    0.8370   -0.8410 c3        1 Q05     -0.043100
      9 C19         3.8520    0.7810    0.2030 c3        1 Q05      0.166800
     10 N18         2.6590    1.4870   -0.2200 n3        1 Q05     -0.825200
     11 C17         1.5610    1.3460    0.7200 c3        1 Q05      0.208100
     12 C15         0.2390    1.7910    0.1640 ca        1 Q05     -0.066300
     13 C14         0.1100    3.0520   -0.4330 ca        1 Q05     -0.144000
     14 C13        -1.1270    3.4700   -0.9160 ca        1 Q05     -0.100000
     15 C12        -2.2490    2.6480   -0.8120 ca        1 Q05     -0.199000
     16 C16        -0.8690    0.9540    0.2780 ca        1 Q05     -0.152000
     17 C11        -2.1150    1.3910   -0.2120 ca        1 Q05      0.124100
     18 O09        -3.1390    0.4740   -0.0640 os        1 Q05     -0.332900
     19 C08        -4.4460    0.9520   -0.4120 c3        1 Q05      0.077100
     20 C06        -5.4180   -0.1560   -0.0760 ca        1 Q05      0.436600
     21 N01        -6.6550    0.2150    0.3230 nb        1 Q05     -0.728000
     22 C02        -7.5620   -0.7790    0.5780 ca        1 Q05      0.629200
     23 N02        -8.8890   -0.4280    0.8800 nh        1 Q05     -0.921500
     24 C03        -7.2180   -2.1620    0.4730 ca        1 Q05     -0.292300
     25 C04        -5.9300   -2.5110    0.0730 ca        1 Q05     -0.010300
     26 C05        -5.0100   -1.4940   -0.2150 ca        1 Q05     -0.264300
     27 C07        -5.5280   -3.9310   -0.0400 c3        1 Q05     -0.060800
     28 H1          9.3660   -1.7430    0.9420 ha        1 Q05      0.148000
     29 H2          9.2850    0.7570    0.9460 ha        1 Q05      0.138000
     30 H3          5.3590   -1.8520   -0.7130 ha        1 Q05      0.148000
     31 H4          7.2570    1.9480    0.1290 ha        1 Q05      0.139000
     32 H5          5.2210    1.9070   -1.0720 hc        1 Q05      0.058200
     33 H6          4.6270    0.3580   -1.7970 hc        1 Q05      0.058200
     34 H7          3.6480   -0.3060    0.4420 h1        1 Q05      0.034700
     35 H8          4.2130    1.2680    1.1530 h1        1 Q05      0.034700
     36 H9          2.3810    1.1980   -1.1390 hn        1 Q05      0.361800
     37 H11         1.4620    0.2830    1.0970 h1        1 Q05      0.040700
     38 H12         1.8060    1.9920    1.6140 h1        1 Q05      0.040700
     39 H13         0.9890    3.7080   -0.5170 ha        1 Q05      0.148000
     40 H14        -1.2250    4.4610   -1.3850 ha        1 Q05      0.134000
     41 H15        -3.2170    2.9960   -1.1990 ha        1 Q05      0.139000
     42 H16        -0.7940   -0.0390    0.7430 ha        1 Q05      0.148000
     43 H17        -4.6670    1.8930    0.1580 h1        1 Q05      0.062200
     44 H18        -4.4850    1.1530   -1.5170 h1        1 Q05      0.062200
     45 H19        -9.0390    0.5270    1.1220 hn        1 Q05      0.400300
     46 H20        -9.3350   -1.0710    1.4960 hn        1 Q05      0.400300
     47 H21        -7.9620   -2.9380    0.6940 ha        1 Q05      0.142000
     48 H22        -3.9850   -1.7280   -0.5310 ha        1 Q05      0.158000
     49 H23        -4.9600   -4.1020   -0.9880 hc        1 Q05      0.050367
     50 H24        -4.8660   -4.2080    0.8190 hc        1 Q05      0.050367
     51 H25        -6.4170   -4.6080   -0.0320 hc        1 Q05      0.050367
@<TRIPOS>BOND
     1    1    2 1   
     2    2    3 ar  
     3    2    5 ar  
     4    3    4 ar  
     5    3   28 1   
     6    4    7 ar  
     7    4   29 1   
     8    5    6 ar  
     9    5   30 1   
    10    6    7 ar  
    11    6    8 1   
    12    7   31 1   
    13    8    9 1   
    14    8   32 1   
    15    8   33 1   
    16    9   10 1   
    17    9   34 1   
    18    9   35 1   
    19   10   11 1   
    20   10   36 1   
    21   11   12 1   
    22   11   37 1   
    23   11   38 1   
    24   12   13 ar  
    25   12   16 ar  
    26   13   14 ar  
    27   13   39 1   
    28   14   15 ar  
    29   14   40 1   
    30   15   17 ar  
    31   15   41 1   
    32   16   17 ar  
    33   16   42 1   
    34   17   18 1   
    35   18   19 1   
    36   19   20 1   
    37   19   43 1   
    38   19   44 1   
    39   20   21 ar  
    40   20   26 ar  
    41   21   22 ar  
    42   22   23 1   
    43   22   24 ar  
    44   23   45 1   
    45   23   46 1   
    46   24   25 ar  
    47   24   47 1   
    48   25   26 ar  
    49   25   27 1   
    50   26   48 1   
    51   27   49 1   
    52   27   50 1   
    53   27   51 1   
@<TRIPOS>SUBSTRUCTURE
     1 Q05         1 TEMP              0 ****  ****    0 ROOT
