@<TRIPOS>MOLECULE
Q05
   53    55     1     0     0
SMALL
bcc


@<TRIPOS>ATOM
      1 F23         0.1810   -0.5660   -0.1150 f         1 Q05     -0.119900
      2 C23         1.4940   -0.3010    0.0630 ca        1 Q05      0.146900
      3 C24         1.9930   -0.0280    1.3530 ca        1 Q05     -0.133000
      4 C25         3.3480    0.2410    1.5150 ca        1 Q05     -0.089000
      5 C22         2.3580   -0.3020   -1.0460 ca        1 Q05     -0.172000
      6 C21         3.7160   -0.0240   -0.8620 ca        1 Q05     -0.104300
      7 C26         4.2100    0.2470    0.4170 ca        1 Q05     -0.127000
      8 C20         4.6340   -0.0490   -2.0340 c3        1 Q05     -0.049100
      9 C19         4.4110    1.2180   -2.8620 c3        1 Q05      0.098800
     10 N18         5.2390    1.2420   -4.1070 n4        1 Q05     -0.766000
     11 C17         4.9960    2.4790   -4.9170 c3        1 Q05      0.166100
     12 C15         5.8790    2.5330   -6.1200 ca        1 Q05     -0.143300
     13 C14         7.2550    2.7400   -5.9600 ca        1 Q05     -0.142000
     14 C13         8.0770    2.8410   -7.0800 ca        1 Q05     -0.071000
     15 C12         7.5410    2.7490   -8.3650 ca        1 Q05     -0.158000
     16 C16         5.3210    2.4330   -7.3940 ca        1 Q05     -0.119000
     17 C11         6.1620    2.5540   -8.5170 ca        1 Q05      0.130100
     18 O09         5.5070    2.4590   -9.7330 os        1 Q05     -0.333900
     19 C08         6.3310    2.6520  -10.8920 c3        1 Q05      0.073100
     20 C06         5.4070    2.6380  -12.0900 ca        1 Q05      0.444600
     21 N01         5.9410    2.2720  -13.2740 nb        1 Q05     -0.662000
     22 C02         5.1150    2.3080  -14.3570 ca        1 Q05      0.453200
     23 N02         5.7220    1.9190  -15.6510 n4        1 Q05     -0.818300
     24 C03         3.7610    2.6860  -14.3200 ca        1 Q05     -0.202300
     25 C04         3.2230    3.0550  -13.0720 ca        1 Q05      0.005700
     26 C05         4.0550    3.0330  -11.9510 ca        1 Q05     -0.177300
     27 C07         1.8020    3.4530  -12.9730 c3        1 Q05     -0.084800
     28 H1          1.3070   -0.0360    2.2150 ha        1 Q05      0.174000
     29 H2          3.7450    0.4480    2.5230 ha        1 Q05      0.162000
     30 H3          1.9570   -0.5390   -2.0420 ha        1 Q05      0.141000
     31 H4          5.2810    0.4520    0.5680 ha        1 Q05      0.141000
     32 H5          4.4230   -0.9630   -2.6530 hc        1 Q05      0.072700
     33 H6          5.7010   -0.1050   -1.6880 hc        1 Q05      0.072700
     34 H7          4.6760    2.1280   -2.2500 hx        1 Q05      0.111700
     35 H8          3.3260    1.2900   -3.1630 hx        1 Q05      0.111700
     36 H9          5.0230    0.4150   -4.6750 hn        1 Q05      0.450300
     37 H11         3.9060    2.4900   -5.2100 hx        1 Q05      0.113700
     38 H12         5.1970    3.3690   -4.2500 hx        1 Q05      0.113700
     39 H13         7.6920    2.8500   -4.9550 ha        1 Q05      0.144000
     40 H14         9.1610    3.0050   -6.9540 ha        1 Q05      0.169000
     41 H15         8.2090    2.8360   -9.2350 ha        1 Q05      0.160000
     42 H16         4.2420    2.2800   -7.5430 ha        1 Q05      0.159000
     43 H17         6.8400    3.6540  -10.8360 h1        1 Q05      0.085200
     44 H18         7.0930    1.8280  -10.9450 h1        1 Q05      0.085200
     45 H19         4.9990    1.9240  -16.3780 hn        1 Q05      0.475467
     46 H20         6.4660    2.5830  -15.9010 hn        1 Q05      0.475467
     47 H21         3.1210    2.7030  -15.2170 ha        1 Q05      0.176000
     48 H22         3.6740    3.3170  -10.9550 ha        1 Q05      0.190000
     49 H23         1.5380    4.1840  -13.7790 hc        1 Q05      0.080033
     50 H24         1.5810    3.9240  -11.9830 hc        1 Q05      0.080033
     51 H25         1.1440    2.5520  -13.0890 hc        1 Q05      0.080033
     52 H182        6.2340    1.1930   -3.8570 hn        1 Q05      0.450300
     53 H023        6.1310    0.9770  -15.5800 hn        1 Q05      0.475467
@<TRIPOS>BOND
     1    1    2 1   
     2    2    3 ar  
     3    2    5 ar  
     4    3    4 ar  
     5    3   28 1   
     6    4    7 ar  
     7    4   29 1   
     8    5    6 ar  
     9    5   30 1   
    10    6    7 ar  
    11    6    8 1   
    12    7   31 1   
    13    8    9 1   
    14    8   32 1   
    15    8   33 1   
    16    9   10 1   
    17    9   34 1   
    18    9   35 1   
    19   10   11 1   
    20   10   36 1   
    21   10   52 1   
    22   11   12 1   
    23   11   37 1   
    24   11   38 1   
    25   12   13 ar  
    26   12   16 ar  
    27   13   14 ar  
    28   13   39 1   
    29   14   15 ar  
    30   14   40 1   
    31   15   17 ar  
    32   15   41 1   
    33   16   17 ar  
    34   16   42 1   
    35   17   18 1   
    36   18   19 1   
    37   19   20 1   
    38   19   43 1   
    39   19   44 1   
    40   20   21 ar  
    41   20   26 ar  
    42   21   22 ar  
    43   22   23 1   
    44   22   24 ar  
    45   23   45 1   
    46   23   46 1   
    47   23   53 1   
    48   24   25 ar  
    49   24   47 1   
    50   25   26 ar  
    51   25   27 1   
    52   26   48 1   
    53   27   49 1   
    54   27   50 1   
    55   27   51 1   
@<TRIPOS>SUBSTRUCTURE
     1 Q05         1 TEMP              0 ****  ****    0 ROOT
