@<TRIPOS>MOLECULE
Q05
   52    54     1     0     0
SMALL
bcc


@<TRIPOS>ATOM
      1 F23         0.1960   -0.6100   -0.5350 f         1 Q05     -0.121900
      2 C23         1.5420   -0.7270   -0.4840 ca        1 Q05      0.144900
      3 C24         2.1740   -1.1030    0.7190 ca        1 Q05     -0.138000
      4 C25         3.5590   -1.2190    0.7520 ca        1 Q05     -0.092000
      5 C22         2.3060   -0.4710   -1.6370 ca        1 Q05     -0.168000
      6 C21         3.6970   -0.5890   -1.5810 ca        1 Q05     -0.097300
      7 C26         4.3230   -0.9630   -0.3880 ca        1 Q05     -0.130000
      8 C20         4.5040   -0.3390   -2.8070 c3        1 Q05     -0.051100
      9 C19         4.6010    1.1690   -3.0400 c3        1 Q05      0.098800
     10 N18         5.3560    1.5110   -4.2790 ny        1 Q05     -0.767000
     11 C17         5.4510    2.9960   -4.4930 c3        1 Q05      0.174100
     12 C15         6.1450    3.2930   -5.7790 ca        1 Q05     -0.154300
     13 C14         7.4500    3.7930   -5.7740 ca        1 Q05     -0.138000
     14 C13         8.0760    4.0930   -6.9840 ca        1 Q05     -0.078000
     15 C12         7.4210    3.8890   -8.1960 ca        1 Q05     -0.164000
     16 C16         5.4650    3.0840   -6.9800 ca        1 Q05     -0.159000
     17 C11         6.1110    3.3810   -8.1950 ca        1 Q05      0.156100
     18 O09         5.3540    3.1440   -9.3130 os        1 Q05     -0.307900
     19 C08         6.0250    3.3020  -10.5780 c3        1 Q05      0.081100
     20 C06         5.0720    2.7900  -11.6320 ca        1 Q05      0.426600
     21 N01         4.9040    1.4520  -11.7300 nb        1 Q05     -0.726000
     22 C02         4.0840    0.9930  -12.7280 ca        1 Q05      0.648200
     23 N02         3.9760   -0.3840  -12.9350 nv        1 Q05     -0.936500
     24 C03         3.3950    1.8860  -13.6110 ca        1 Q05     -0.287300
     25 C04         3.5820    3.2570  -13.4720 ca        1 Q05      0.001700
     26 C05         4.4370    3.7270  -12.4620 ca        1 Q05     -0.276300
     27 C07         2.9040    4.2130  -14.3770 c3        1 Q05     -0.066800
     28 H1          1.5650   -1.3040    1.6130 ha        1 Q05      0.169000
     29 H2          4.0580   -1.5200    1.6880 ha        1 Q05      0.157000
     30 H3          1.7960   -0.1970   -2.5720 ha        1 Q05      0.145000
     31 H4          5.4170   -1.0700   -0.3450 ha        1 Q05      0.140000
     32 H5          4.0140   -0.8380   -3.6860 hc        1 Q05      0.072200
     33 H6          5.5300   -0.7800   -2.6900 hc        1 Q05      0.072200
     34 H7          5.1220    1.6600   -2.1680 hx        1 Q05      0.109200
     35 H8          3.5650    1.6070   -3.1290 hx        1 Q05      0.109200
     36 H9          6.3020    1.1180   -4.2260 hn        1 Q05      0.450800
     37 H11         6.0060    3.4360   -3.6160 hx        1 Q05      0.108200
     38 H12         4.4000    3.4070   -4.5030 hx        1 Q05      0.108200
     39 H13         7.9810    3.9680   -4.8260 ha        1 Q05      0.143000
     40 H14         9.1010    4.5000   -6.9820 ha        1 Q05      0.159000
     41 H15         7.9300    4.1350   -9.1410 ha        1 Q05      0.163000
     42 H16         4.4280    2.7190   -7.0040 ha        1 Q05      0.150000
     43 H17         6.2380    4.3920  -10.7370 h1        1 Q05      0.061200
     44 H18         6.9810    2.7130  -10.5770 h1        1 Q05      0.061200
     45 H19         4.3060   -0.9810  -12.2130 hn        1 Q05      0.414800
     46 H20         3.1390   -0.6770  -13.3820 hn        1 Q05      0.414800
     47 H21         2.7380    1.4910  -14.3980 ha        1 Q05      0.151000
     48 H22         4.6010    4.8030  -12.3280 ha        1 Q05      0.146000
     49 H23         2.0250    3.7420  -14.8800 hc        1 Q05      0.056367
     50 H24         2.5520    5.1110  -13.8110 hc        1 Q05      0.056367
     51 H25         3.6190    4.5560  -15.1680 hc        1 Q05      0.056367
     52 H182        4.8940    1.0900   -5.0950 hn        1 Q05      0.450800
@<TRIPOS>BOND
     1    1    2 1   
     2    2    3 ar  
     3    2    5 ar  
     4    3    4 ar  
     5    3   28 1   
     6    4    7 ar  
     7    4   29 1   
     8    5    6 ar  
     9    5   30 1   
    10    6    7 ar  
    11    6    8 1   
    12    7   31 1   
    13    8    9 1   
    14    8   32 1   
    15    8   33 1   
    16    9   10 1   
    17    9   34 1   
    18    9   35 1   
    19   10   11 1   
    20   10   36 1   
    21   10   52 1   
    22   11   12 1   
    23   11   37 1   
    24   11   38 1   
    25   12   13 ar  
    26   12   16 ar  
    27   13   14 ar  
    28   13   39 1   
    29   14   15 ar  
    30   14   40 1   
    31   15   17 ar  
    32   15   41 1   
    33   16   17 ar  
    34   16   42 1   
    35   17   18 1   
    36   18   19 1   
    37   19   20 1   
    38   19   43 1   
    39   19   44 1   
    40   20   21 ar  
    41   20   26 ar  
    42   21   22 ar  
    43   22   23 1   
    44   22   24 ar  
    45   23   45 1   
    46   23   46 1   
    47   24   25 ar  
    48   24   47 1   
    49   25   26 ar  
    50   25   27 1   
    51   26   48 1   
    52   27   49 1   
    53   27   50 1   
    54   27   51 1   
@<TRIPOS>SUBSTRUCTURE
     1 Q05         1 TEMP              0 ****  ****    0 ROOT
