@<TRIPOS>MOLECULE
Q05
   52    54     1     0     0
SMALL
bcc


@<TRIPOS>ATOM
      1 F23         0.1120   -0.1880   -0.5420 f         1 Q05     -0.121900
      2 C23         1.4370   -0.4580   -0.5420 ca        1 Q05      0.144900
      3 C24         2.0540   -0.9630    0.6200 ca        1 Q05     -0.139000
      4 C25         3.4180   -1.2360    0.6010 ca        1 Q05     -0.092000
      5 C22         2.1920   -0.2330   -1.7070 ca        1 Q05     -0.168000
      6 C21         3.5620   -0.5100   -1.7020 ca        1 Q05     -0.097300
      7 C26         4.1740   -1.0120   -0.5500 ca        1 Q05     -0.130000
      8 C20         4.3580   -0.2900   -2.9420 c3        1 Q05     -0.051100
      9 C19         4.6260    1.2060   -3.1030 c3        1 Q05      0.098800
     10 N18         5.3830    1.5230   -4.3480 n4        1 Q05     -0.767000
     11 C17         5.6470    2.9950   -4.4910 c3        1 Q05      0.174100
     12 C15         6.3270    3.2800   -5.7870 ca        1 Q05     -0.153300
     13 C14         7.6660    3.6780   -5.8090 ca        1 Q05     -0.137000
     14 C13         8.2780    3.9700   -7.0290 ca        1 Q05     -0.078000
     15 C12         7.5750    3.8530   -8.2250 ca        1 Q05     -0.163000
     16 C16         5.5990    3.1600   -6.9730 ca        1 Q05     -0.159000
     17 C11         6.2320    3.4420   -8.1980 ca        1 Q05      0.157100
     18 O09         5.4250    3.3040   -9.2980 os        1 Q05     -0.308900
     19 C08         6.0800    3.3370  -10.5800 c3        1 Q05      0.081100
     20 C06         5.0820    2.7810  -11.5680 ca        1 Q05      0.423600
     21 N01         4.9130    1.4400  -11.5960 nb        1 Q05     -0.725000
     22 C02         4.0120    0.9380  -12.4980 ca        1 Q05      0.639200
     23 N02         3.7310   -0.4350  -12.4860 nh        1 Q05     -0.927500
     24 C03         3.2960    1.7860  -13.4020 ca        1 Q05     -0.282300
     25 C04         3.4990    3.1610  -13.3490 ca        1 Q05     -0.000300
     26 C05         4.4070    3.6770  -12.4100 ca        1 Q05     -0.271300
     27 C07         2.7710    4.0770  -14.2560 c3        1 Q05     -0.066800
     28 H1          1.4510   -1.1390    1.5240 ha        1 Q05      0.169000
     29 H2          3.9050   -1.6380    1.5050 ha        1 Q05      0.157000
     30 H3          1.6910    0.1440   -2.6100 ha        1 Q05      0.146000
     31 H4          5.2490   -1.2430   -0.5490 ha        1 Q05      0.140000
     32 H5          3.7870   -0.6820   -3.8280 hc        1 Q05      0.072200
     33 H6          5.3270   -0.8550   -2.8820 hc        1 Q05      0.072200
     34 H7          3.6460    1.7660   -3.1370 hx        1 Q05      0.109200
     35 H8          5.2240    1.5860   -2.2260 hx        1 Q05      0.109200
     36 H9          4.8530    1.2020   -5.1680 hn        1 Q05      0.450800
     37 H11         4.6530    3.5270   -4.4390 hx        1 Q05      0.108200
     38 H12         6.2800    3.3200   -3.6160 hx        1 Q05      0.108200
     39 H13         8.2360    3.7810   -4.8730 ha        1 Q05      0.143000
     40 H14         9.3300    4.2990   -7.0450 ha        1 Q05      0.159000
     41 H15         8.0700    4.0930   -9.1780 ha        1 Q05      0.162000
     42 H16         4.5360    2.8770   -6.9770 ha        1 Q05      0.150000
     43 H17         7.0160    2.7180  -10.5540 h1        1 Q05      0.061700
     44 H18         6.3250    4.4050  -10.8230 h1        1 Q05      0.061700
     45 H19         3.4140   -0.7920  -13.3580 hn        1 Q05      0.409300
     46 H20         4.3880   -1.0180  -12.0170 hn        1 Q05      0.409300
     47 H21         2.5870    1.3560  -14.1230 ha        1 Q05      0.151000
     48 H22         4.5820    4.7580  -12.3410 ha        1 Q05      0.147000
     49 H23         2.0410    4.6920  -13.6710 hc        1 Q05      0.056700
     50 H24         2.2090    3.5140  -15.0400 hc        1 Q05      0.056700
     51 H25         3.4870    4.7720  -14.7630 hc        1 Q05      0.056700
     52 H182        6.2770    1.0200   -4.3440 hn        1 Q05      0.450800
@<TRIPOS>BOND
     1    1    2 1   
     2    2    3 ar  
     3    2    5 ar  
     4    3    4 ar  
     5    3   28 1   
     6    4    7 ar  
     7    4   29 1   
     8    5    6 ar  
     9    5   30 1   
    10    6    7 ar  
    11    6    8 1   
    12    7   31 1   
    13    8    9 1   
    14    8   32 1   
    15    8   33 1   
    16    9   10 1   
    17    9   34 1   
    18    9   35 1   
    19   10   11 1   
    20   10   36 1   
    21   10   52 1   
    22   11   12 1   
    23   11   37 1   
    24   11   38 1   
    25   12   13 ar  
    26   12   16 ar  
    27   13   14 ar  
    28   13   39 1   
    29   14   15 ar  
    30   14   40 1   
    31   15   17 ar  
    32   15   41 1   
    33   16   17 ar  
    34   16   42 1   
    35   17   18 1   
    36   18   19 1   
    37   19   20 1   
    38   19   43 1   
    39   19   44 1   
    40   20   21 ar  
    41   20   26 ar  
    42   21   22 ar  
    43   22   23 1   
    44   22   24 ar  
    45   23   45 1   
    46   23   46 1   
    47   24   25 ar  
    48   24   47 1   
    49   25   26 ar  
    50   25   27 1   
    51   26   48 1   
    52   27   49 1   
    53   27   50 1   
    54   27   51 1   
@<TRIPOS>SUBSTRUCTURE
     1 Q05         1 TEMP              0 ****  ****    0 ROOT
