@<TRIPOS>MOLECULE
Q06
   30    29     1     0     0
SMALL
bcc


@<TRIPOS>ATOM
      1 O2         -0.1610    0.0880    0.5850 o         1 Q06     -1.183000
      2 P           1.0340   -0.3390   -0.2110 p3        1 Q06      2.520000
      3 O           1.5950    0.5160   -1.2750 o         1 Q06     -1.183000
      4 O1          1.2400   -1.8210   -0.2030 o         1 Q06     -1.183000
      5 C           2.3240    0.0130    1.5870 c2        1 Q06     -0.696000
      6 N           1.5650   -0.9910    2.3050 n4        1 Q06     -0.024000
      7 C1          3.8130   -0.1060    1.6890 c3        1 Q06     -0.072000
      8 C2          4.4800    1.0630    0.9920 c3        1 Q06     -0.147000
      9 C3          5.9910    0.9370    1.0080 c3        1 Q06     -0.100000
     10 C7          6.6710    2.2040    0.4880 c3        1 Q06     -0.157500
     11 C6          7.9220    1.7650   -0.2600 c3        1 Q06     -0.155000
     12 C5          7.7960    0.2690   -0.5200 c3        1 Q06     -0.155000
     13 C4          6.5000   -0.2030    0.1250 c3        1 Q06     -0.157500
     14 H4          1.9520    1.0340    1.7950 hx        1 Q06      0.108000
     15 H5          1.6600   -1.8700    1.7540 hn        1 Q06      0.217333
     16 H6          0.5650   -0.7000    2.2430 hn        1 Q06      0.217333
     17 H8          4.1700   -1.0650    1.2250 hc        1 Q06      0.032500
     18 H9          4.1100    1.1300   -0.0670 hc        1 Q06      0.099000
     19 H10         4.1900    2.0180    1.5060 hc        1 Q06      0.099000
     20 H11         6.3290    0.7530    2.0650 hc        1 Q06      0.066000
     21 H12         6.9250    2.8930    1.3310 hc        1 Q06      0.084500
     22 H13         5.9810    2.7530   -0.2010 hc        1 Q06      0.084500
     23 H14         8.8370    1.9770    0.3490 hc        1 Q06      0.066500
     24 H15         8.0250    2.3280   -1.2200 hc        1 Q06      0.066500
     25 H16         7.7850    0.0590   -1.6190 hc        1 Q06      0.066500
     26 H17         8.6720   -0.2760   -0.0880 hc        1 Q06      0.066500
     27 H18         6.6650   -1.1270    0.7310 hc        1 Q06      0.084500
     28 H19         5.7390   -0.4500   -0.6600 hc        1 Q06      0.084500
     29 H2          4.1480   -0.1300    2.7680 hc        1 Q06      0.032500
     30 HN3         1.8460   -1.1380    3.2700 hn        1 Q06      0.217333
@<TRIPOS>BOND
     1    1    2 1   
     2    2    3 1   
     3    2    4 1   
     4    5    6 1   
     5    5    7 1   
     6    5   14 1   
     7    6   15 1   
     8    6   16 1   
     9    6   30 1   
    10    7    8 1   
    11    7   17 1   
    12    7   29 1   
    13    8    9 1   
    14    8   18 1   
    15    8   19 1   
    16    9   10 1   
    17    9   13 1   
    18    9   20 1   
    19   10   11 1   
    20   10   21 1   
    21   10   22 1   
    22   11   12 1   
    23   11   23 1   
    24   11   24 1   
    25   12   13 1   
    26   12   25 1   
    27   12   26 1   
    28   13   27 1   
    29   13   28 1   
@<TRIPOS>SUBSTRUCTURE
     1 Q06         1 TEMP              0 ****  ****    0 ROOT
