@<TRIPOS>MOLECULE
Q06
   30    29     1     0     0
SMALL
bcc


@<TRIPOS>ATOM
      1 O2         -0.1590    0.0520    0.6190 o         1 Q06     -1.183000
      2 P           1.0340   -0.3710   -0.1830 p3        1 Q06      2.520000
      3 O           1.5810    0.4820   -1.2560 o         1 Q06     -1.183000
      4 O1          1.2510   -1.8510   -0.1670 o         1 Q06     -1.183000
      5 C           2.3330    0.0020    1.6040 c2        1 Q06     -0.696000
      6 N           1.5860   -1.0040    2.3340 nz        1 Q06     -0.024000
      7 C1          3.8230   -0.1060    1.6980 c3        1 Q06     -0.072000
      8 C2          4.4760    1.0640    0.9890 c3        1 Q06     -0.147000
      9 C3          5.9890    0.9490    0.9960 c3        1 Q06     -0.100000
     10 C7          6.6560    2.2180    0.4640 c3        1 Q06     -0.157500
     11 C6          7.9050    1.7830   -0.2900 c3        1 Q06     -0.155000
     12 C5          7.7890    0.2850   -0.5400 c3        1 Q06     -0.155000
     13 C4          6.5000   -0.1930    0.1160 c3        1 Q06     -0.157500
     14 H4          1.9540    1.0210    1.8090 hx        1 Q06      0.108000
     15 H5          1.6830   -1.8850    1.7870 hn        1 Q06      0.217333
     16 H6          0.5840   -0.7200    2.2760 hn        1 Q06      0.217333
     17 H8          4.1650   -0.1210    2.7740 hc        1 Q06      0.032500
     18 H9          4.0990    1.1210   -0.0680 hc        1 Q06      0.099000
     19 H10         4.1830    2.0190    1.4990 hc        1 Q06      0.099000
     20 H11         6.3340    0.7740    2.0510 hc        1 Q06      0.066000
     21 H12         5.9570    2.7580   -0.2250 hc        1 Q06      0.084500
     22 H13         6.9100    2.9140    1.3000 hc        1 Q06      0.084500
     23 H14         7.9980    2.3410   -1.2540 hc        1 Q06      0.066500
     24 H15         8.8220    2.0060    0.3120 hc        1 Q06      0.066500
     25 H16         7.7720    0.0680   -1.6370 hc        1 Q06      0.066500
     26 H17         8.6720   -0.2510   -0.1100 hc        1 Q06      0.066500
     27 H18         5.7360   -0.4500   -0.6620 hc        1 Q06      0.084500
     28 H19         6.6760   -1.1120    0.7270 hc        1 Q06      0.084500
     29 H2          4.1840   -1.0650    1.2360 hc        1 Q06      0.032500
     30 HN3         1.8740   -1.1430    3.2970 hn        1 Q06      0.217333
@<TRIPOS>BOND
     1    1    2 1   
     2    2    3 1   
     3    2    4 1   
     4    5    6 1   
     5    5    7 1   
     6    5   14 1   
     7    6   15 1   
     8    6   16 1   
     9    6   30 1   
    10    7    8 1   
    11    7   17 1   
    12    7   29 1   
    13    8    9 1   
    14    8   18 1   
    15    8   19 1   
    16    9   10 1   
    17    9   13 1   
    18    9   20 1   
    19   10   11 1   
    20   10   21 1   
    21   10   22 1   
    22   11   12 1   
    23   11   23 1   
    24   11   24 1   
    25   12   13 1   
    26   12   25 1   
    27   12   26 1   
    28   13   27 1   
    29   13   28 1   
@<TRIPOS>SUBSTRUCTURE
     1 Q06         1 TEMP              0 ****  ****    0 ROOT
