@<TRIPOS>MOLECULE
Q07
   26    24     1     0     0
SMALL
bcc


@<TRIPOS>ATOM
      1 O2          0.2730   -0.5630    0.3030 o         1 Q07     -1.181333
      2 P           1.7220   -0.3030    0.4100 p3        1 Q07      2.519000
      3 O           2.2880    0.5290    1.5190 o         1 Q07     -1.181333
      4 O1          2.7310   -1.2180   -0.2060 o         1 Q07     -1.181333
      5 C5          2.1330    1.3870   -1.0240 c2        1 Q07     -0.692000
      6 N           3.5430    1.2600   -0.7190 nz        1 Q07     -0.024000
      7 C3          1.7590    1.4660   -2.4790 c3        1 Q07     -0.030000
      8 C4          0.2460    1.5140   -2.5910 c3        1 Q07     -0.196000
      9 C2          2.3870    2.6800   -3.1640 c3        1 Q07     -0.170000
     10 C1          2.0380    2.7730   -4.6340 c3        1 Q07     -0.159000
     11 C           2.8310    3.8500   -5.3300 c3        1 Q07     -0.207000
     12 H3          1.6510    2.1730   -0.4110 hx        1 Q07      0.109000
     13 H4          3.6240    1.3350    0.3190 hn        1 Q07      0.217000
     14 H5          3.8070    0.2860   -0.9750 hn        1 Q07      0.217000
     15 H7          2.1240    0.5430   -3.0150 hc        1 Q07      0.075000
     16 H8         -0.1430    2.4870   -2.2070 hc        1 Q07      0.072333
     17 H9         -0.0670    1.4020   -3.6580 hc        1 Q07      0.072333
     18 H10        -0.2180    0.6890   -1.9950 hc        1 Q07      0.072333
     19 H11         3.5050    2.6310   -3.0730 hc        1 Q07      0.056000
     20 H12         2.0520    3.6130   -2.6400 hc        1 Q07      0.056000
     21 H13         2.2310    1.7840   -5.1280 hc        1 Q07      0.077500
     22 H14         0.9420    2.9880   -4.7450 hc        1 Q07      0.077500
     23 H15         3.9250    3.6310   -5.2780 hc        1 Q07      0.061000
     24 H16         2.6510    4.8420   -4.8490 hc        1 Q07      0.061000
     25 H17         2.5370    3.9200   -6.4050 hc        1 Q07      0.061000
     26 HN3         4.1520    1.9300   -1.1790 hn        1 Q07      0.217000
@<TRIPOS>BOND
     1    1    2 1   
     2    2    3 1   
     3    2    4 1   
     4    5    6 1   
     5    5    7 1   
     6    5   12 1   
     7    6   13 1   
     8    6   14 1   
     9    6   26 1   
    10    7    8 1   
    11    7    9 1   
    12    7   15 1   
    13    8   16 1   
    14    8   17 1   
    15    8   18 1   
    16    9   10 1   
    17    9   19 1   
    18    9   20 1   
    19   10   11 1   
    20   10   21 1   
    21   10   22 1   
    22   11   23 1   
    23   11   24 1   
    24   11   25 1   
@<TRIPOS>SUBSTRUCTURE
     1 Q07         1 TEMP              0 ****  ****    0 ROOT
