@<TRIPOS>MOLECULE
Q07
   26    25     1     0     0
SMALL
bcc


@<TRIPOS>ATOM
      1 O2          1.4800   -1.0590   -1.2650 o         1 Q07     -0.863000
      2 P           2.5460   -0.1800   -0.7370 p5        1 Q07      1.336600
      3 O           2.6630   -0.4270    0.8800 oh        1 Q07     -0.785400
      4 O1          3.9640   -0.2370   -1.1770 o         1 Q07     -0.863000
      5 C5          2.0100    1.4720   -0.8130 c3        1 Q07     -0.071700
      6 N           3.0580    2.3420   -0.3550 n3        1 Q07     -0.879800
      7 C3          1.4120    1.7280   -2.2010 c3        1 Q07     -0.085700
      8 C4          0.1390    2.5440   -2.0700 c3        1 Q07     -0.078100
      9 C2          2.3650    2.4170   -3.1730 c3        1 Q07     -0.076400
     10 C1          1.9460    2.2120   -4.6150 c3        1 Q07     -0.079400
     11 C           2.9120    2.8700   -5.5670 c3        1 Q07     -0.089100
     12 H3          1.1710    1.5760   -0.0650 h1        1 Q07      0.070700
     13 H4          2.8950    3.2870   -0.6480 hn        1 Q07      0.334800
     14 H5          3.5550   -0.3200    1.1860 ho        1 Q07      0.423000
     15 H7          1.1340    0.7160   -2.6240 hc        1 Q07      0.091700
     16 H8          0.3520    3.5250   -1.5810 hc        1 Q07      0.018700
     17 H9         -0.3160    2.7400   -3.0710 hc        1 Q07      0.018700
     18 H10        -0.6080    1.9940   -1.4480 hc        1 Q07      0.018700
     19 H11         3.4070    2.0170   -3.0530 hc        1 Q07      0.038700
     20 H12         2.4020    3.5160   -2.9500 hc        1 Q07      0.038700
     21 H13         0.9180    2.6290   -4.7790 hc        1 Q07      0.039200
     22 H14         1.8960    1.1120   -4.8320 hc        1 Q07      0.039200
     23 H15         3.9370    2.4440   -5.4430 hc        1 Q07      0.023033
     24 H16         2.9650    3.9700   -5.3780 hc        1 Q07      0.023033
     25 H17         2.5890    2.7100   -6.6240 hc        1 Q07      0.023033
     26 HN3         3.9320    2.0320   -0.7500 hn        1 Q07      0.334800
@<TRIPOS>BOND
     1    1    2 1   
     2    2    3 1   
     3    2    4 1   
     4    2    5 1   
     5    3   14 1   
     6    5    6 1   
     7    5    7 1   
     8    5   12 1   
     9    6   13 1   
    10    6   26 1   
    11    7    8 1   
    12    7    9 1   
    13    7   15 1   
    14    8   16 1   
    15    8   17 1   
    16    8   18 1   
    17    9   10 1   
    18    9   19 1   
    19    9   20 1   
    20   10   11 1   
    21   10   21 1   
    22   10   22 1   
    23   11   23 1   
    24   11   24 1   
    25   11   25 1   
@<TRIPOS>SUBSTRUCTURE
     1 Q07         1 TEMP              0 ****  ****    0 ROOT
