@<TRIPOS>MOLECULE
Q08
   32    30     1     0     0
SMALL
bcc


@<TRIPOS>ATOM
      1 O2          0.7450   -0.8860    0.7350 o         1 Q08     -1.183333
      2 P           2.1060   -0.3200    0.7540 p3        1 Q08      2.522000
      3 O           2.5230    0.6610    1.8080 o         1 Q08     -1.183333
      4 O1          3.2640   -1.0300    0.1250 o         1 Q08     -1.183333
      5 C7          2.1110    1.3430   -0.7470 c2        1 Q08     -0.687000
      6 N           3.5210    1.5570   -0.4860 nz        1 Q08     -0.025000
      7 C3          1.6850    1.3850   -2.1900 c3        1 Q08     -0.014000
      8 C4          2.0040    0.1320   -2.9990 c3        1 Q08     -0.148000
      9 C5          3.4790   -0.1970   -3.0870 c3        1 Q08     -0.166000
     10 C6          3.7820   -1.0430   -4.2990 c3        1 Q08     -0.203500
     11 C2          0.1760    1.6260   -2.2540 c3        1 Q08     -0.148000
     12 C1         -0.1830    3.0810   -2.0400 c3        1 Q08     -0.166000
     13 C          -1.6750    3.2940   -2.0980 c3        1 Q08     -0.203500
     14 H3          1.4900    2.0090   -0.1110 hx        1 Q08      0.107000
     15 H4          3.6090    1.7080    0.5420 hn        1 Q08      0.217333
     16 H5          3.9960    0.6570   -0.7020 hn        1 Q08      0.217333
     17 H7          2.1970    2.2520   -2.7130 hc        1 Q08      0.013000
     18 H8          1.4560   -0.7420   -2.5600 hc        1 Q08      0.082250
     19 H9          1.6050    0.2830   -4.0400 hc        1 Q08      0.082250
     20 H10         3.7870   -0.7630   -2.1620 hc        1 Q08      0.081500
     21 H11         4.0820    0.7480   -3.1420 hc        1 Q08      0.081500
     22 H12         3.5370   -0.4970   -5.2420 hc        1 Q08      0.060500
     23 H13         3.1820   -1.9850   -4.2730 hc        1 Q08      0.060500
     24 H14         4.8650   -1.3160   -4.3220 hc        1 Q08      0.060500
     25 H15        -0.2130    1.3060   -3.2570 hc        1 Q08      0.082250
     26 H16        -0.3290    0.9890   -1.4790 hc        1 Q08      0.082250
     27 H17         0.3160    3.7130   -2.8210 hc        1 Q08      0.081500
     28 H18         0.2040    3.4210   -1.0430 hc        1 Q08      0.081500
     29 H19        -1.9240    4.3700   -1.9340 hc        1 Q08      0.060500
     30 H20        -2.1850    2.6880   -1.3100 hc        1 Q08      0.060500
     31 H21        -2.0790    2.9860   -3.0920 hc        1 Q08      0.060500
     32 HN3         3.9450    2.3170   -1.0100 hn        1 Q08      0.217333
@<TRIPOS>BOND
     1    1    2 1   
     2    2    3 1   
     3    2    4 1   
     4    5    6 1   
     5    5    7 1   
     6    5   14 1   
     7    6   15 1   
     8    6   16 1   
     9    6   32 1   
    10    7    8 1   
    11    7   11 1   
    12    7   17 1   
    13    8    9 1   
    14    8   18 1   
    15    8   19 1   
    16    9   10 1   
    17    9   20 1   
    18    9   21 1   
    19   10   22 1   
    20   10   23 1   
    21   10   24 1   
    22   11   12 1   
    23   11   25 1   
    24   11   26 1   
    25   12   13 1   
    26   12   27 1   
    27   12   28 1   
    28   13   29 1   
    29   13   30 1   
    30   13   31 1   
@<TRIPOS>SUBSTRUCTURE
     1 Q08         1 TEMP              0 ****  ****    0 ROOT
