@<TRIPOS>MOLECULE
Q08
   32    30     1     0     0
SMALL
bcc


@<TRIPOS>ATOM
      1 O2          0.8360   -0.9030    0.7540 o         1 Q08     -1.183333
      2 P           2.1820   -0.3010    0.7520 p3        1 Q08      2.522000
      3 O           2.5890    0.6920    1.7960 o         1 Q08     -1.183333
      4 O1          3.3480   -0.9840    0.1060 o         1 Q08     -1.183333
      5 C7          2.1210    1.3560   -0.7540 c2        1 Q08     -0.687000
      6 N           3.5290    1.6070   -0.5150 n4        1 Q08     -0.025000
      7 C3          1.6730    1.3830   -2.1900 c3        1 Q08     -0.014000
      8 C4          2.0110    0.1370   -3.0010 c3        1 Q08     -0.148000
      9 C5          3.4930   -0.1550   -3.1110 c3        1 Q08     -0.166000
     10 C6          3.7990   -0.9960   -4.3250 c3        1 Q08     -0.203500
     11 C2          0.1570    1.5850   -2.2320 c3        1 Q08     -0.148000
     12 C1         -0.2370    3.0310   -2.0150 c3        1 Q08     -0.166000
     13 C          -1.7340    3.2050   -2.0510 c3        1 Q08     -0.203500
     14 H3          1.4940    2.0080   -0.1110 hx        1 Q08      0.107000
     15 H4          4.0240    0.7190   -0.7360 hn        1 Q08      0.217333
     16 H5          3.9250    2.3770   -1.0470 hn        1 Q08      0.217333
     17 H7          2.1540    2.2620   -2.7230 hc        1 Q08      0.013000
     18 H8          1.5930    0.2750   -4.0370 hc        1 Q08      0.082250
     19 H9          1.4930   -0.7500   -2.5520 hc        1 Q08      0.082250
     20 H10         3.8300   -0.7100   -2.1890 hc        1 Q08      0.081500
     21 H11         4.0710    0.8050   -3.1770 hc        1 Q08      0.081500
     22 H12         3.2240   -1.9520   -4.2880 hc        1 Q08      0.060500
     23 H13         4.8880   -1.2410   -4.3640 hc        1 Q08      0.060500
     24 H14         3.5260   -0.4590   -5.2660 hc        1 Q08      0.060500
     25 H15        -0.3190    0.9370   -1.4480 hc        1 Q08      0.082250
     26 H16        -0.2390    1.2520   -3.2280 hc        1 Q08      0.082250
     27 H17         0.1570    3.3840   -1.0260 hc        1 Q08      0.081500
     28 H18         0.2340    3.6730   -2.8060 hc        1 Q08      0.081500
     29 H19        -2.0080    4.2740   -1.8860 hc        1 Q08      0.060500
     30 H20        -2.2160    2.5880   -1.2540 hc        1 Q08      0.060500
     31 H21        -2.1450    2.8830   -3.0380 hc        1 Q08      0.060500
     32 HN3         3.6290    1.7640    0.5110 hn        1 Q08      0.217333
@<TRIPOS>BOND
     1    1    2 1   
     2    2    3 1   
     3    2    4 1   
     4    5    6 1   
     5    5    7 1   
     6    5   14 1   
     7    6   15 1   
     8    6   16 1   
     9    6   32 1   
    10    7    8 1   
    11    7   11 1   
    12    7   17 1   
    13    8    9 1   
    14    8   18 1   
    15    8   19 1   
    16    9   10 1   
    17    9   20 1   
    18    9   21 1   
    19   10   22 1   
    20   10   23 1   
    21   10   24 1   
    22   11   12 1   
    23   11   25 1   
    24   11   26 1   
    25   12   13 1   
    26   12   27 1   
    27   12   28 1   
    28   13   29 1   
    29   13   30 1   
    30   13   31 1   
@<TRIPOS>SUBSTRUCTURE
     1 Q08         1 TEMP              0 ****  ****    0 ROOT
