@<TRIPOS>MOLECULE
Q0B
   54    57     1     0     0
SMALL
bcc


@<TRIPOS>ATOM
      1 CL          0.5770   -1.6430    0.2510 cl        1 Q0B     -0.059400
      2 C15         2.0310   -0.7500    0.1430 ca        1 Q0B     -0.017600
      3 C16         2.8060   -0.6070    1.2920 ca        1 Q0B     -0.085000
      4 C17         3.9910    0.1340    1.2480 ca        1 Q0B     -0.063000
      5 C18         4.3980    0.7290    0.0570 ca        1 Q0B     -0.095000
      6 C19         3.6310    0.5990   -1.1010 ca        1 Q0B     -0.067000
      7 C14         2.4360   -0.1470   -1.0740 ca        1 Q0B     -0.097200
      8 N11         1.6370   -0.2240   -2.2460 na        1 Q0B     -0.015200
      9 C10         1.1860   -1.3740   -2.8810 cc        1 Q0B      0.112900
     10 N21         1.4440   -2.7140   -2.3770 n4        1 Q0B     -0.741400
     11 C12         1.1910    0.8890   -3.0140 ca        1 Q0B      0.343500
     12 C8          0.4140    0.3790   -4.1550 ca        1 Q0B      0.340800
     13 N7         -0.1440    1.1930   -5.0540 nb        1 Q0B     -0.658000
     14 C5          0.0460    2.5310   -4.8490 ca        1 Q0B      0.345300
     15 C6         -0.5200    3.4840   -5.7610 ca        1 Q0B     -0.189300
     16 C1         -0.3370    4.8250   -5.5650 ca        1 Q0B     -0.056000
     17 C2          0.4160    5.3120   -4.4590 ca        1 Q0B     -0.075000
     18 C3          0.9820    4.4550   -3.5580 ca        1 Q0B     -0.162300
     19 C4          0.8240    3.0320   -3.7090 ca        1 Q0B      0.335300
     20 N13         1.4000    2.1980   -2.7930 nb        1 Q0B     -0.562000
     21 C9          0.4240   -1.0670   -4.0440 cd        1 Q0B     -0.363000
     22 C22        -0.2020   -2.0280   -4.9100 c         1 Q0B      0.594300
     23 O23        -0.1290   -3.2540   -4.7790 o         1 Q0B     -0.496100
     24 N24        -0.9930   -1.4760   -6.0560 n4        1 Q0B     -0.642800
     25 C35        -1.7180   -2.5140   -6.8620 c3        1 Q0B      0.111800
     26 C36        -2.9850   -3.0040   -6.1820 c3        1 Q0B     -0.119400
     27 C37        -3.6950   -3.9990   -7.0960 c3        1 Q0B      0.141400
     28 O38        -4.7870   -4.4870   -6.3320 os        1 Q0B     -0.428600
     29 C39        -5.6240   -5.3810   -7.0800 c3        1 Q0B      0.130400
     30 C40        -6.7270   -5.8150   -6.1450 c3        1 Q0B     -0.101100
     31 H1          2.4790   -1.0660    2.2420 ha        1 Q0B      0.190000
     32 H2          4.5960    0.2500    2.1650 ha        1 Q0B      0.187000
     33 H3          5.3310    1.3190    0.0220 ha        1 Q0B      0.184000
     34 H4          3.9620    1.0980   -2.0280 ha        1 Q0B      0.174000
     35 H5          2.4500   -2.9270   -2.4290 hn        1 Q0B      0.495467
     36 H6          1.1270   -2.7630   -1.3650 hn        1 Q0B      0.495467
     37 H7         -1.1050    3.1180   -6.6210 ha        1 Q0B      0.167000
     38 H8         -0.7750    5.5560   -6.2690 ha        1 Q0B      0.179000
     39 H9          0.5360    6.4040   -4.3410 ha        1 Q0B      0.182000
     40 H10         1.5630    4.8360   -2.6990 ha        1 Q0B      0.184000
     41 H11        -0.3470   -0.9570   -6.6690 hn        1 Q0B      0.482800
     42 H12        -1.0120   -3.3780   -7.0380 hx        1 Q0B      0.119200
     43 H13        -1.9690   -2.0350   -7.8540 hx        1 Q0B      0.119200
     44 H14        -3.6870   -2.1570   -5.9610 hc        1 Q0B      0.080700
     45 H15        -2.7430   -3.5170   -5.2130 hc        1 Q0B      0.080700
     46 H16        -3.0130   -4.8460   -7.3760 h1        1 Q0B      0.042700
     47 H17        -4.0630   -3.4940   -8.0290 h1        1 Q0B      0.042700
     48 H18        -6.0340   -4.8400   -7.9740 h1        1 Q0B      0.039200
     49 H19        -5.0110   -6.2560   -7.4250 h1        1 Q0B      0.039200
     50 H20        -6.3040   -6.3370   -5.2540 hc        1 Q0B      0.057367
     51 H21        -7.4100   -6.5120   -6.6870 hc        1 Q0B      0.057367
     52 H22        -7.3120   -4.9320   -5.7920 hc        1 Q0B      0.057367
     53 H213        0.9200   -3.4010   -2.9460 hn        1 Q0B      0.495467
     54 H242       -1.6820   -0.8050   -5.6790 hn        1 Q0B      0.482800
@<TRIPOS>BOND
     1    1    2 1   
     2    2    3 ar  
     3    2    7 ar  
     4    3    4 ar  
     5    3   31 1   
     6    4    5 ar  
     7    4   32 1   
     8    5    6 ar  
     9    5   33 1   
    10    6    7 ar  
    11    6   34 1   
    12    7    8 1   
    13    8    9 1   
    14    8   11 1   
    15    9   10 1   
    16    9   21 2   
    17   10   35 1   
    18   10   36 1   
    19   10   53 1   
    20   11   12 ar  
    21   11   20 ar  
    22   12   13 ar  
    23   12   21 1   
    24   13   14 ar  
    25   14   15 ar  
    26   14   19 ar  
    27   15   16 ar  
    28   15   37 1   
    29   16   17 ar  
    30   16   38 1   
    31   17   18 ar  
    32   17   39 1   
    33   18   19 ar  
    34   18   40 1   
    35   19   20 ar  
    36   21   22 1   
    37   22   23 2   
    38   22   24 1   
    39   24   25 1   
    40   24   41 1   
    41   24   54 1   
    42   25   26 1   
    43   25   42 1   
    44   25   43 1   
    45   26   27 1   
    46   26   44 1   
    47   26   45 1   
    48   27   28 1   
    49   27   46 1   
    50   27   47 1   
    51   28   29 1   
    52   29   30 1   
    53   29   48 1   
    54   29   49 1   
    55   30   50 1   
    56   30   51 1   
    57   30   52 1   
@<TRIPOS>SUBSTRUCTURE
     1 Q0B         1 TEMP              0 ****  ****    0 ROOT
