@<TRIPOS>MOLECULE
Q0B
   53    56     1     0     0
SMALL
bcc


@<TRIPOS>ATOM
      1 Cl          0.4250   -1.2770    0.3330 cl        1 Q0B     -0.072400
      2 C15         1.9620   -0.5640    0.2130 ca        1 Q0B      0.003400
      3 C16         2.7360   -0.4270    1.3680 ca        1 Q0B     -0.110000
      4 C17         3.9940    0.1690    1.3020 ca        1 Q0B     -0.090000
      5 C18         4.4850    0.6320    0.0830 ca        1 Q0B     -0.113000
      6 C19         3.7300    0.5000   -1.0800 ca        1 Q0B     -0.086000
      7 C14         2.4590   -0.1060   -1.0310 ca        1 Q0B     -0.041200
      8 N11         1.6890   -0.2150   -2.2140 na        1 Q0B     -0.140200
      9 C10         1.2300   -1.4050   -2.8000 cc        1 Q0B      0.402900
     10 N21         1.5120   -2.6420   -2.3500 nv        1 Q0B     -0.805600
     11 C12         1.2110    0.8860   -2.9860 ca        1 Q0B      0.374500
     12 C8          0.4060    0.3430   -4.1140 ca        1 Q0B      0.392800
     13 N7         -0.1650    1.1290   -5.0060 nb        1 Q0B     -0.686000
     14 C5          0.0260    2.4920   -4.8270 ca        1 Q0B      0.305300
     15 C6         -0.5630    3.4130   -5.7450 ca        1 Q0B     -0.173300
     16 C1         -0.3840    4.7640   -5.5820 ca        1 Q0B     -0.095000
     17 C2          0.3830    5.2710   -4.5080 ca        1 Q0B     -0.108000
     18 C3          0.9680    4.4240   -3.6000 ca        1 Q0B     -0.150300
     19 C4          0.8100    3.0100   -3.7280 ca        1 Q0B      0.298300
     20 N13         1.4150    2.1810   -2.7920 nb        1 Q0B     -0.591000
     21 C9          0.4320   -1.1030   -3.9790 cd        1 Q0B     -0.514000
     22 C22        -0.1760   -2.0810   -4.7870 c         1 Q0B      0.600300
     23 O23        -0.1280   -3.3130   -4.6820 o         1 Q0B     -0.545100
     24 N24        -0.9940   -1.5350   -5.9470 ny        1 Q0B     -0.650800
     25 C35        -1.6830   -2.5780   -6.7580 c3        1 Q0B      0.111800
     26 C36        -2.9750   -3.0670   -6.1200 c3        1 Q0B     -0.111400
     27 C37        -3.6320   -4.0890   -7.0390 c3        1 Q0B      0.138400
     28 O38        -4.8830   -4.3910   -6.4390 os        1 Q0B     -0.423600
     29 C39        -5.6060   -5.3940   -7.1620 c3        1 Q0B      0.130400
     30 C40        -6.9050   -5.6060   -6.4210 c3        1 Q0B     -0.099100
     31 H1          2.3430   -0.7830    2.3350 ha        1 Q0B      0.169000
     32 H2          4.5950    0.2790    2.2190 ha        1 Q0B      0.162000
     33 H3          5.4760    1.1120    0.0330 ha        1 Q0B      0.161000
     34 H4          4.1250    0.8870   -2.0340 ha        1 Q0B      0.161000
     35 H5          1.1310   -3.4280   -2.8360 hn        1 Q0B      0.481800
     36 H6          2.0250   -2.7900   -1.5100 hn        1 Q0B      0.481800
     37 H7         -1.1620    3.0260   -6.5850 ha        1 Q0B      0.150000
     38 H8         -0.8400    5.4730   -6.2930 ha        1 Q0B      0.155000
     39 H9          0.5050    6.3620   -4.4060 ha        1 Q0B      0.158000
     40 H10         1.5640    4.8220   -2.7610 ha        1 Q0B      0.166000
     41 H11        -1.6920   -0.8860   -5.5620 hn        1 Q0B      0.465800
     42 H12        -0.9730   -3.4450   -6.8910 hx        1 Q0B      0.104700
     43 H13        -1.9010   -2.1240   -7.7680 hx        1 Q0B      0.104700
     44 H14        -2.7650   -3.5480   -5.1280 hc        1 Q0B      0.081200
     45 H15        -3.6900   -2.2200   -5.9490 hc        1 Q0B      0.081200
     46 H16        -3.7950   -3.6630   -8.0660 h1        1 Q0B      0.036200
     47 H17        -3.0050   -5.0160   -7.1200 h1        1 Q0B      0.036200
     48 H18        -4.9980   -6.3370   -7.1960 h1        1 Q0B      0.033200
     49 H19        -5.7880   -5.0350   -8.2100 h1        1 Q0B      0.033200
     50 H20        -6.7080   -5.9430   -5.3760 hc        1 Q0B      0.053033
     51 H21        -7.5050   -6.3840   -6.9500 hc        1 Q0B      0.053033
     52 H22        -7.4910   -4.6560   -6.3800 hc        1 Q0B      0.053033
     53 H242       -0.3600   -0.9980   -6.5500 hn        1 Q0B      0.465800
@<TRIPOS>BOND
     1    1    2 1   
     2    2    3 ar  
     3    2    7 ar  
     4    3    4 ar  
     5    3   31 1   
     6    4    5 ar  
     7    4   32 1   
     8    5    6 ar  
     9    5   33 1   
    10    6    7 ar  
    11    6   34 1   
    12    7    8 1   
    13    8    9 1   
    14    8   11 1   
    15    9   10 1   
    16    9   21 2   
    17   10   35 1   
    18   10   36 1   
    19   11   12 ar  
    20   11   20 ar  
    21   12   13 ar  
    22   12   21 1   
    23   13   14 ar  
    24   14   15 ar  
    25   14   19 ar  
    26   15   16 ar  
    27   15   37 1   
    28   16   17 ar  
    29   16   38 1   
    30   17   18 ar  
    31   17   39 1   
    32   18   19 ar  
    33   18   40 1   
    34   19   20 ar  
    35   21   22 1   
    36   22   23 2   
    37   22   24 1   
    38   24   25 1   
    39   24   41 1   
    40   24   53 1   
    41   25   26 1   
    42   25   42 1   
    43   25   43 1   
    44   26   27 1   
    45   26   44 1   
    46   26   45 1   
    47   27   28 1   
    48   27   46 1   
    49   27   47 1   
    50   28   29 1   
    51   29   30 1   
    52   29   48 1   
    53   29   49 1   
    54   30   50 1   
    55   30   51 1   
    56   30   52 1   
@<TRIPOS>SUBSTRUCTURE
     1 Q0B         1 TEMP              0 ****  ****    0 ROOT
