@<TRIPOS>MOLECULE
Q0B
   53    56     1     0     0
SMALL
bcc


@<TRIPOS>ATOM
      1 CL          0.4220   -1.2720    0.3320 cl        1 Q0B     -0.072400
      2 C15         1.9620   -0.5650    0.2130 ca        1 Q0B      0.003400
      3 C16         2.7340   -0.4280    1.3690 ca        1 Q0B     -0.110000
      4 C17         3.9950    0.1640    1.3030 ca        1 Q0B     -0.090000
      5 C18         4.4900    0.6220    0.0830 ca        1 Q0B     -0.113000
      6 C19         3.7360    0.4900   -1.0800 ca        1 Q0B     -0.086000
      7 C14         2.4620   -0.1120   -1.0320 ca        1 Q0B     -0.041200
      8 N11         1.6940   -0.2210   -2.2160 na        1 Q0B     -0.140200
      9 C10         1.2320   -1.4100   -2.7990 cc        1 Q0B      0.402900
     10 N21         1.5080   -2.6480   -2.3450 nh        1 Q0B     -0.805600
     11 C12         1.2210    0.8800   -2.9910 ca        1 Q0B      0.374500
     12 C8          0.4160    0.3380   -4.1190 ca        1 Q0B      0.392800
     13 N7         -0.1510    1.1230   -5.0140 nb        1 Q0B     -0.686000
     14 C5          0.0450    2.4860   -4.8370 ca        1 Q0B      0.305300
     15 C6         -0.5380    3.4060   -5.7590 ca        1 Q0B     -0.173300
     16 C1         -0.3550    4.7580   -5.5990 ca        1 Q0B     -0.095000
     17 C2          0.4110    5.2640   -4.5250 ca        1 Q0B     -0.108000
     18 C3          0.9930    4.4180   -3.6140 ca        1 Q0B     -0.150300
     19 C4          0.8300    3.0040   -3.7390 ca        1 Q0B      0.298300
     20 N13         1.4300    2.1750   -2.8000 nb        1 Q0B     -0.591000
     21 C9          0.4360   -1.1080   -3.9800 cd        1 Q0B     -0.514000
     22 C22        -0.1740   -2.0860   -4.7870 c         1 Q0B      0.600300
     23 O23        -0.1320   -3.3180   -4.6780 o         1 Q0B     -0.545100
     24 N24        -0.9890   -1.5400   -5.9490 n4        1 Q0B     -0.650800
     25 C35        -1.6830   -2.5820   -6.7570 c3        1 Q0B      0.111800
     26 C36        -2.9770   -3.0620   -6.1180 c3        1 Q0B     -0.111400
     27 C37        -3.6390   -4.0830   -7.0340 c3        1 Q0B      0.138400
     28 O38        -4.8940   -4.3760   -6.4330 os        1 Q0B     -0.423600
     29 C39        -5.6220   -5.3770   -7.1540 c3        1 Q0B      0.130400
     30 C40        -6.9230   -5.5770   -6.4140 c3        1 Q0B     -0.099100
     31 H1          2.3390   -0.7800    2.3360 ha        1 Q0B      0.169000
     32 H2          4.5950    0.2740    2.2210 ha        1 Q0B      0.162000
     33 H3          5.4830    1.0980    0.0340 ha        1 Q0B      0.161000
     34 H4          4.1340    0.8730   -2.0340 ha        1 Q0B      0.161000
     35 H5          2.0190   -2.7950   -1.5040 hn        1 Q0B      0.481800
     36 H6          1.1250   -3.4330   -2.8300 hn        1 Q0B      0.481800
     37 H7         -1.1380    3.0200   -6.5990 ha        1 Q0B      0.150000
     38 H8         -0.8080    5.4660   -6.3120 ha        1 Q0B      0.155000
     39 H9          0.5370    6.3550   -4.4260 ha        1 Q0B      0.158000
     40 H10         1.5890    4.8160   -2.7750 ha        1 Q0B      0.166000
     41 H11        -1.6840   -0.8860   -5.5660 hn        1 Q0B      0.465800
     42 H12        -1.8970   -2.1310   -7.7690 hx        1 Q0B      0.104700
     43 H13        -0.9770   -3.4540   -6.8860 hx        1 Q0B      0.104700
     44 H14        -3.6880   -2.2100   -5.9500 hc        1 Q0B      0.081200
     45 H15        -2.7710   -3.5410   -5.1240 hc        1 Q0B      0.081200
     46 H16        -3.7980   -3.6610   -8.0620 h1        1 Q0B      0.036200
     47 H17        -3.0180   -5.0150   -7.1090 h1        1 Q0B      0.036200
     48 H18        -5.0190   -6.3240   -7.1830 h1        1 Q0B      0.033200
     49 H19        -5.8000   -5.0210   -8.2040 h1        1 Q0B      0.033200
     50 H20        -7.5030   -4.6240   -6.3770 hc        1 Q0B      0.053033
     51 H21        -6.7300   -5.9110   -5.3670 hc        1 Q0B      0.053033
     52 H22        -7.5270   -6.3530   -6.9410 hc        1 Q0B      0.053033
     53 H242       -0.3520   -1.0080   -6.5530 hn        1 Q0B      0.465800
@<TRIPOS>BOND
     1    1    2 1   
     2    2    3 ar  
     3    2    7 ar  
     4    3    4 ar  
     5    3   31 1   
     6    4    5 ar  
     7    4   32 1   
     8    5    6 ar  
     9    5   33 1   
    10    6    7 ar  
    11    6   34 1   
    12    7    8 1   
    13    8    9 1   
    14    8   11 1   
    15    9   10 1   
    16    9   21 2   
    17   10   35 1   
    18   10   36 1   
    19   11   12 ar  
    20   11   20 ar  
    21   12   13 ar  
    22   12   21 1   
    23   13   14 ar  
    24   14   15 ar  
    25   14   19 ar  
    26   15   16 ar  
    27   15   37 1   
    28   16   17 ar  
    29   16   38 1   
    30   17   18 ar  
    31   17   39 1   
    32   18   19 ar  
    33   18   40 1   
    34   19   20 ar  
    35   21   22 1   
    36   22   23 2   
    37   22   24 1   
    38   24   25 1   
    39   24   41 1   
    40   24   53 1   
    41   25   26 1   
    42   25   42 1   
    43   25   43 1   
    44   26   27 1   
    45   26   44 1   
    46   26   45 1   
    47   27   28 1   
    48   27   46 1   
    49   27   47 1   
    50   28   29 1   
    51   29   30 1   
    52   29   48 1   
    53   29   49 1   
    54   30   50 1   
    55   30   51 1   
    56   30   52 1   
@<TRIPOS>SUBSTRUCTURE
     1 Q0B         1 TEMP              0 ****  ****    0 ROOT
