@<TRIPOS>MOLECULE
Q0K
   31    32     1     0     0
SMALL
bcc


@<TRIPOS>ATOM
      1 CAA         1.1930   -0.3090   -1.7140 c2        1 Q0K      0.026000
      2 OAC         3.2420    1.1520    4.3100 os        1 Q0K     -0.147000
      3 CAD         2.4560   -1.2090    0.0820 c1        1 Q0K     -0.053000
      4 CAE         2.6190    2.1840    3.5790 c2        1 Q0K     -0.065000
      5 CAF         2.9720   -1.5000    1.3410 c2        1 Q0K     -0.033000
      6 CAG         1.3620    2.4860    3.9080 c2        1 Q0K     -0.226000
      7 CAH         6.5510   -1.1520    2.0830 c3        1 Q0K     -0.095000
      8 NAI         7.4530    1.2150    4.6920 n2        1 Q0K     -0.087000
      9 NAJ         7.5400   -0.4760    2.9260 n2        1 Q0K     -0.043000
     10 NAK         5.2070    2.1000    5.1850 na        1 Q0K     -0.270000
     11 CAL         1.5280   -0.2860   -0.4030 c2        1 Q0K     -0.212000
     12 CAM         6.6010    1.9500    5.3720 c2        1 Q0K      0.066000
     13 CAN         4.0420   -1.0080    1.9180 c1        1 Q0K     -0.199000
     14 CAO         5.1610   -0.6200    2.4510 c2        1 Q0K     -0.048000
     15 CAP         4.6210    1.1740    4.2600 c2        1 Q0K      0.104000
     16 CAQ         6.8920    0.3600    3.7100 c2        1 Q0K     -0.009000
     17 CAR         5.3940    0.3650    3.5000 c2        1 Q0K     -0.069000
     18 HAA         1.0630    0.4590    0.2710 ha        1 Q0K      0.115000
     19 HAAA        0.4680    0.4010   -2.1420 ha        1 Q0K      0.139500
     20 HAAB        1.6300   -1.0390   -2.4150 ha        1 Q0K      0.139500
     21 HNAB        6.8610    2.6170    7.3310 hn        1 Q0K      0.276667
     22 HNAA        7.0060    3.8300    6.1760 hn        1 Q0K      0.276667
     23 HAD         3.2120    2.6170    2.7630 h4        1 Q0K      0.155000
     24 HAE         0.7970    3.2350    3.3380 ha        1 Q0K      0.144000
     25 HAF         2.4620   -2.3740    1.8190 ha        1 Q0K      0.197000
     26 HAG         0.8270    1.9990    4.7330 ha        1 Q0K      0.144000
     27 HAH         6.6240   -2.2590    2.2640 h1        1 Q0K      0.146500
     28 HNAJ        6.7960   -0.9450    1.0050 h1        1 Q0K      0.146500
     29 HNAK        4.6310    2.3230    5.9730 hn        1 Q0K      0.242000
     30 HAB3        8.2500    2.7250    6.3980 hn        1 Q0K      0.276667
     31 NAB         7.2260    2.8530    6.4030 n4        1 Q0K     -0.038000
@<TRIPOS>BOND
     1    1   11 1   
     2    1   19 1   
     3    1   20 1   
     4    2    4 1   
     5    2   15 1   
     6    3    5 1   
     7    3   11 1   
     8    4    6 1   
     9    4   23 1   
    10    5   13 1   
    11    5   25 1   
    12    6   24 1   
    13    6   26 1   
    14    7    9 1   
    15    7   14 1   
    16    7   27 1   
    17    7   28 1   
    18    8   12 1   
    19    8   16 1   
    20    9   16 1   
    21   10   12 1   
    22   10   15 1   
    23   10   29 1   
    24   11   18 1   
    25   12   31 1   
    26   13   14 1   
    27   14   17 1   
    28   15   17 1   
    29   16   17 1   
    30   21   31 1   
    31   22   31 1   
    32   30   31 1   
@<TRIPOS>SUBSTRUCTURE
     1 Q0K         1 TEMP              0 ****  ****    0 ROOT
