@<TRIPOS>MOLECULE
Q0K
   31    32     1     0     0
SMALL
bcc


@<TRIPOS>ATOM
      1 CAA         1.1710   -0.2010   -1.7890 c2        1 Q0K     -0.164000
      2 OAC         3.7690    2.9410    4.7940 o         1 Q0K     -0.529500
      3 CAD         2.0150    0.0890    0.4910 ce        1 Q0K     -0.070000
      4 CAE         1.4070   -1.6360    3.5780 c1        1 Q0K     -0.085500
      5 CAF         2.7630    0.7640    1.3740 c2        1 Q0K     -0.214200
      6 CAG         2.0790   -0.7090    3.2320 c1        1 Q0K     -0.184100
      7 CAH         5.1550   -0.8910    2.7600 c3        1 Q0K      0.065000
      8 NAI         7.4660    1.0170    4.7990 nc        1 Q0K     -0.606000
      9 NAJ         6.4850   -0.6970    3.3410 n2        1 Q0K     -0.458900
     10 NAK         5.9360    2.8120    5.4610 ns        1 Q0K     -0.530400
     11 CAL         1.9230    0.4630   -0.9070 ce        1 Q0K     -0.169000
     12 CAM         7.1560    2.1300    5.4300 cd        1 Q0K      0.557800
     13 CAN         2.8500    0.4420    2.8340 c3        1 Q0K      0.091800
     14 CAO         4.2780    0.2700    3.2190 c2        1 Q0K      0.071600
     15 CAP         4.8160    2.2940    4.7300 c         1 Q0K      0.763700
     16 CAQ         6.4260    0.4210    4.0510 cc        1 Q0K      0.606600
     17 CAR         5.0670    1.0640    4.0050 cc        1 Q0K     -0.375800
     18 HAA         2.5100    1.3450   -1.2160 ha        1 Q0K      0.129000
     19 HAAA        0.5680   -1.0790   -1.5190 ha        1 Q0K      0.124000
     20 HAAB        1.1110    0.1000   -2.8440 ha        1 Q0K      0.124000
     21 HNAB        8.0260    2.7830    7.2130 hn        1 Q0K      0.483800
     22 HNAA        8.4880    3.6780    5.8670 hn        1 Q0K      0.483800
     23 HAD         3.3440    1.6520    1.0760 ha        1 Q0K      0.134000
     24 HAE         0.8060   -2.4570    3.8850 ha        1 Q0K      0.181500
     25 HAF         1.4230   -0.7920    0.8020 ha        1 Q0K      0.137000
     26 HAG         2.4400    1.3450    3.4000 hc        1 Q0K      0.113700
     27 HAH         4.7370   -1.8780    3.1060 h1        1 Q0K      0.148200
     28 HNAJ        5.2380   -0.9160    1.6360 h1        1 Q0K      0.148200
     29 HNAK        5.8050    3.6540    5.9790 hn        1 Q0K      0.350500
     30 HAB3        9.1320    2.1500    6.1230 hn        1 Q0K      0.483800
     31 NAB         8.2870    2.7370    6.2220 nz        1 Q0K     -0.810600
@<TRIPOS>BOND
     1    1   11 2   
     2    1   19 1   
     3    1   20 1   
     4    2   15 2   
     5    3    5 2   
     6    3   11 1   
     7    3   25 1   
     8    4    6 3   
     9    4   24 1   
    10    5   13 1   
    11    5   23 1   
    12    6   13 1   
    13    7    9 1   
    14    7   14 1   
    15    7   27 1   
    16    7   28 1   
    17    8   12 2   
    18    8   16 1   
    19    9   16 2   
    20   10   12 1   
    21   10   15 1   
    22   10   29 1   
    23   11   18 1   
    24   12   31 1   
    25   13   14 1   
    26   13   26 1   
    27   14   17 2   
    28   15   17 1   
    29   16   17 1   
    30   21   31 1   
    31   22   31 1   
    32   30   31 1   
@<TRIPOS>SUBSTRUCTURE
     1 Q0K         1 TEMP              0 ****  ****    0 ROOT
