@<TRIPOS>MOLECULE
Q10
   43    44     1     0     0
SMALL
bcc


@<TRIPOS>ATOM
      1 N14        -0.0720   -0.5340    0.4840 n4        1 Q10     -0.838600
      2 C13         1.3850   -0.2440    0.3210 c3        1 Q10      0.103800
      3 C12         2.1550   -0.4350    1.6160 c3        1 Q10     -0.127400
      4 C11         3.6320   -0.1390    1.3660 c3        1 Q10      0.140400
      5 O10         4.2730   -0.4650    2.5970 os        1 Q10     -0.332900
      6 C25         5.6010   -0.0600    2.7040 ca        1 Q10      0.130100
      7 C24         6.3870    0.3400    1.6170 ca        1 Q10     -0.234000
      8 C23         7.7180    0.6870    1.8470 ca        1 Q10     -0.056000
      9 C22         8.2640    0.6400    3.1260 ca        1 Q10     -0.218000
     10 C26         6.1130   -0.1190    4.0040 ca        1 Q10     -0.178000
     11 C21         7.4600    0.2330    4.2020 ca        1 Q10      0.169100
     12 O09         7.8780    0.1600    5.5110 os        1 Q10     -0.321900
     13 C08         9.2850    0.3740    5.7280 c3        1 Q10      0.077100
     14 C06         9.5280    0.1300    7.1990 ca        1 Q10      0.432600
     15 N01        10.6410   -0.5620    7.5300 nb        1 Q10     -0.728000
     16 C02        10.9030   -0.7330    8.8650 ca        1 Q10      0.643200
     17 N02        12.1070   -1.3360    9.2460 nh        1 Q10     -0.929500
     18 C03        10.0160   -0.2470    9.8770 ca        1 Q10     -0.292300
     19 C04         8.8700    0.4470    9.4990 ca        1 Q10     -0.005300
     20 C05         8.6180    0.6480    8.1340 ca        1 Q10     -0.271300
     21 C07         7.9390    0.9810   10.5190 c3        1 Q10     -0.062800
     22 H1         -0.4770    0.0900    1.1900 hn        1 Q10      0.463467
     23 H2         -0.2040   -1.5030    0.7940 hn        1 Q10      0.463467
     24 H4          1.4840    0.8210   -0.0400 hx        1 Q10      0.115200
     25 H5          1.7840   -0.9360   -0.4770 hx        1 Q10      0.115200
     26 H6          2.0610   -1.4880    1.9960 hc        1 Q10      0.087200
     27 H7          1.7790    0.2530    2.4190 hc        1 Q10      0.087200
     28 H8          4.0400   -0.7890    0.5470 h1        1 Q10      0.053700
     29 H9          3.7900    0.9420    1.1110 h1        1 Q10      0.053700
     30 H10         5.9820    0.3760    0.5980 ha        1 Q10      0.129000
     31 H11         8.3480    1.0030    1.0000 ha        1 Q10      0.144000
     32 H12         9.3160    0.9200    3.2790 ha        1 Q10      0.153000
     33 H13         5.4900   -0.4400    4.8490 ha        1 Q10      0.167000
     34 H14         9.5350    1.4410    5.4830 h1        1 Q10      0.065200
     35 H15         9.8740   -0.3240    5.0770 h1        1 Q10      0.065200
     36 H16        12.0700   -1.8050   10.1230 hn        1 Q10      0.410300
     37 H17        12.6070   -1.8230    8.5360 hn        1 Q10      0.410300
     38 H18        10.2430   -0.4100   10.9390 ha        1 Q10      0.147000
     39 H19         7.7230    1.1850    7.7950 ha        1 Q10      0.150000
     40 H20         8.0070    0.4000   11.4710 hc        1 Q10      0.051700
     41 H21         8.1940    2.0490   10.7400 hc        1 Q10      0.051700
     42 H22         6.8840    0.9420   10.1520 hc        1 Q10      0.051700
     43 H143       -0.5610   -0.3970   -0.4060 hn        1 Q10      0.463467
@<TRIPOS>BOND
     1    1    2 1   
     2    1   22 1   
     3    1   23 1   
     4    1   43 1   
     5    2    3 1   
     6    2   24 1   
     7    2   25 1   
     8    3    4 1   
     9    3   26 1   
    10    3   27 1   
    11    4    5 1   
    12    4   28 1   
    13    4   29 1   
    14    5    6 1   
    15    6    7 ar  
    16    6   10 ar  
    17    7    8 ar  
    18    7   30 1   
    19    8    9 ar  
    20    8   31 1   
    21    9   11 ar  
    22    9   32 1   
    23   10   11 ar  
    24   10   33 1   
    25   11   12 1   
    26   12   13 1   
    27   13   14 1   
    28   13   34 1   
    29   13   35 1   
    30   14   15 ar  
    31   14   20 ar  
    32   15   16 ar  
    33   16   17 1   
    34   16   18 ar  
    35   17   36 1   
    36   17   37 1   
    37   18   19 ar  
    38   18   38 1   
    39   19   20 ar  
    40   19   21 1   
    41   20   39 1   
    42   21   40 1   
    43   21   41 1   
    44   21   42 1   
@<TRIPOS>SUBSTRUCTURE
     1 Q10         1 TEMP              0 ****  ****    0 ROOT
