@<TRIPOS>MOLECULE
Q10
   42    43     1     0     0
SMALL
bcc


@<TRIPOS>ATOM
      1 N14        -8.2550    1.7110    0.4790 n3        1 Q10     -0.914800
      2 C13        -7.3240    0.6230    0.3060 c3        1 Q10      0.161800
      3 C12        -5.8660    1.0760    0.3030 c3        1 Q10     -0.091400
      4 C11        -4.9710   -0.1190    0.0280 c3        1 Q10      0.130400
      5 O10        -3.6290    0.3740    0.1230 os        1 Q10     -0.328900
      6 C25        -2.6280   -0.5510   -0.1010 ca        1 Q10      0.158100
      7 C24        -2.8480   -1.9020   -0.4040 ca        1 Q10     -0.237000
      8 C23        -1.7500   -2.7360   -0.6080 ca        1 Q10     -0.062000
      9 C22        -0.4480   -2.2520   -0.5170 ca        1 Q10     -0.237000
     10 C26        -1.3290   -0.0320   -0.0000 ca        1 Q10     -0.189000
     11 C21        -0.2450   -0.8980   -0.2120 ca        1 Q10      0.158100
     12 O09         0.9930   -0.2940   -0.1050 os        1 Q10     -0.329900
     13 C08         2.1210   -1.1720   -0.2340 c3        1 Q10      0.078100
     14 C06         3.3560   -0.3220   -0.0410 ca        1 Q10      0.436600
     15 N01         4.4300   -0.9240    0.5160 nb        1 Q10     -0.728000
     16 C02         5.5730   -0.1820    0.6480 ca        1 Q10      0.628200
     17 N02         6.7420   -0.8080    1.1140 nh        1 Q10     -0.921500
     18 C03         5.6330    1.1910    0.2560 ca        1 Q10     -0.292300
     19 C04         4.5040    1.7860   -0.3010 ca        1 Q10     -0.010300
     20 C05         3.3420    1.0180   -0.4620 ca        1 Q10     -0.263300
     21 C07         4.5170    3.2070   -0.7160 c3        1 Q10     -0.060800
     22 H1         -9.1820    1.3590    0.6100 hn        1 Q10      0.351800
     23 H2         -8.0040    2.2830    1.2610 hn        1 Q10      0.351800
     24 H4         -7.4390   -0.1770    1.0990 h1        1 Q10      0.024700
     25 H5         -7.5580    0.1380   -0.6850 h1        1 Q10      0.024700
     26 H6         -5.6980    1.8580   -0.4830 hc        1 Q10      0.064700
     27 H7         -5.5900    1.5290    1.2900 hc        1 Q10      0.064700
     28 H8         -5.1270   -0.9280    0.7890 h1        1 Q10      0.040700
     29 H9         -5.1490   -0.5300   -1.0010 h1        1 Q10      0.040700
     30 H10        -3.8640   -2.3100   -0.4830 ha        1 Q10      0.138000
     31 H11        -1.9160   -3.7980   -0.8460 ha        1 Q10      0.133000
     32 H12         0.3980   -2.9310   -0.6840 ha        1 Q10      0.140000
     33 H13        -1.1630    1.0270    0.2390 ha        1 Q10      0.164000
     34 H14         2.0480   -1.9880    0.5320 h1        1 Q10      0.062700
     35 H15         2.1340   -1.6120   -1.2680 h1        1 Q10      0.062700
     36 H16         6.6120   -1.6980    1.5440 hn        1 Q10      0.399800
     37 H17         7.3350   -0.1980    1.6320 hn        1 Q10      0.399800
     38 H18         6.5600    1.7660    0.3840 ha        1 Q10      0.142000
     39 H19         2.4310    1.4520   -0.8950 ha        1 Q10      0.159000
     40 H20         4.1240    3.3110   -1.7580 hc        1 Q10      0.050367
     41 H21         3.8650    3.8090   -0.0350 hc        1 Q10      0.050367
     42 H22         5.5500    3.6320   -0.6830 hc        1 Q10      0.050367
@<TRIPOS>BOND
     1    1    2 1   
     2    1   22 1   
     3    1   23 1   
     4    2    3 1   
     5    2   24 1   
     6    2   25 1   
     7    3    4 1   
     8    3   26 1   
     9    3   27 1   
    10    4    5 1   
    11    4   28 1   
    12    4   29 1   
    13    5    6 1   
    14    6    7 ar  
    15    6   10 ar  
    16    7    8 ar  
    17    7   30 1   
    18    8    9 ar  
    19    8   31 1   
    20    9   11 ar  
    21    9   32 1   
    22   10   11 ar  
    23   10   33 1   
    24   11   12 1   
    25   12   13 1   
    26   13   14 1   
    27   13   34 1   
    28   13   35 1   
    29   14   15 ar  
    30   14   20 ar  
    31   15   16 ar  
    32   16   17 1   
    33   16   18 ar  
    34   17   36 1   
    35   17   37 1   
    36   18   19 ar  
    37   18   38 1   
    38   19   20 ar  
    39   19   21 1   
    40   20   39 1   
    41   21   40 1   
    42   21   41 1   
    43   21   42 1   
@<TRIPOS>SUBSTRUCTURE
     1 Q10         1 TEMP              0 ****  ****    0 ROOT
