@<TRIPOS>MOLECULE
Q10
   43    44     1     0     0
SMALL
bcc


@<TRIPOS>ATOM
      1 N14         0.2720    1.4480    0.6190 nz        1 Q10     -0.838600
      2 C13         1.6130    0.8330    0.3820 c3        1 Q10      0.103800
      3 C12         2.2850    0.4080    1.6760 c3        1 Q10     -0.131400
      4 C11         3.6380   -0.2220    1.3550 c3        1 Q10      0.140400
      5 O10         4.1120   -0.7250    2.6030 os        1 Q10     -0.332900
      6 C25         5.5000   -0.7870    2.7170 ca        1 Q10      0.118100
      7 C24         6.3360   -1.0880    1.6340 ca        1 Q10     -0.222000
      8 C23         7.7070   -1.1980    1.8580 ca        1 Q10     -0.061000
      9 C22         8.2430   -1.0140    3.1310 ca        1 Q10     -0.212000
     10 C26         6.0000   -0.5890    4.0060 ca        1 Q10     -0.171000
     11 C21         7.3880   -0.7150    4.2020 ca        1 Q10      0.164100
     12 O09         7.7950   -0.5330    5.5040 os        1 Q10     -0.319900
     13 C08         9.2170   -0.4390    5.7080 c3        1 Q10      0.077100
     14 C06         9.3990   -0.0420    7.1540 ca        1 Q10      0.430600
     15 N01        10.1700    1.0370    7.4110 nb        1 Q10     -0.726000
     16 C02        10.3540    1.3810    8.7250 ca        1 Q10      0.638200
     17 N02        11.0610    2.5530    9.0260 nv        1 Q10     -0.927500
     18 C03         9.7800    0.6210    9.7920 ca        1 Q10     -0.289300
     19 C04         8.9900   -0.4840    9.4910 ca        1 Q10     -0.005300
     20 C05         8.7910   -0.8280    8.1460 ca        1 Q10     -0.268300
     21 C07         8.3600   -1.2820   10.5670 c3        1 Q10     -0.062800
     22 H1         -0.3430    0.7770    1.0930 hn        1 Q10      0.463133
     23 H2         -0.1540    1.7220   -0.2720 hn        1 Q10      0.463133
     24 H4          1.4650   -0.0600   -0.2930 hx        1 Q10      0.114200
     25 H5          2.2480    1.5950   -0.1580 hx        1 Q10      0.114200
     26 H6          2.4470    1.2860    2.3570 hc        1 Q10      0.086700
     27 H7          1.6630   -0.3450    2.2300 hc        1 Q10      0.086700
     28 H8          4.3430    0.5350    0.9230 h1        1 Q10      0.055700
     29 H9          3.5220   -1.0830    0.6450 h1        1 Q10      0.055700
     30 H10         5.9220   -1.2510    0.6310 ha        1 Q10      0.132000
     31 H11         8.3760   -1.4390    1.0180 ha        1 Q10      0.144000
     32 H12         9.3280   -1.1130    3.2840 ha        1 Q10      0.152000
     33 H13         5.3360   -0.3610    4.8500 ha        1 Q10      0.167000
     34 H14         9.6750   -1.4490    5.5350 h1        1 Q10      0.063700
     35 H15         9.6520    0.3120    4.9980 h1        1 Q10      0.063700
     36 H16        11.5260    2.5310    9.9050 hn        1 Q10      0.407800
     37 H17        11.6000    2.9470    8.2870 hn        1 Q10      0.407800
     38 H18         9.9530    0.9140   10.8370 ha        1 Q10      0.147000
     39 H19         8.1670   -1.6860    7.8650 ha        1 Q10      0.150000
     40 H20         8.3840   -2.3710   10.3160 hc        1 Q10      0.052700
     41 H21         7.2900   -0.9740   10.6890 hc        1 Q10      0.052700
     42 H22         8.8820   -1.1300   11.5430 hc        1 Q10      0.052700
     43 H143        0.3670    2.2780    1.2150 hn        1 Q10      0.463133
@<TRIPOS>BOND
     1    1    2 1   
     2    1   22 1   
     3    1   23 1   
     4    1   43 1   
     5    2    3 1   
     6    2   24 1   
     7    2   25 1   
     8    3    4 1   
     9    3   26 1   
    10    3   27 1   
    11    4    5 1   
    12    4   28 1   
    13    4   29 1   
    14    5    6 1   
    15    6    7 ar  
    16    6   10 ar  
    17    7    8 ar  
    18    7   30 1   
    19    8    9 ar  
    20    8   31 1   
    21    9   11 ar  
    22    9   32 1   
    23   10   11 ar  
    24   10   33 1   
    25   11   12 1   
    26   12   13 1   
    27   13   14 1   
    28   13   34 1   
    29   13   35 1   
    30   14   15 ar  
    31   14   20 ar  
    32   15   16 ar  
    33   16   17 1   
    34   16   18 ar  
    35   17   36 1   
    36   17   37 1   
    37   18   19 ar  
    38   18   38 1   
    39   19   20 ar  
    40   19   21 1   
    41   20   39 1   
    42   21   40 1   
    43   21   41 1   
    44   21   42 1   
@<TRIPOS>SUBSTRUCTURE
     1 Q10         1 TEMP              0 ****  ****    0 ROOT
