@<TRIPOS>MOLECULE
Q10
   44    45     1     0     0
SMALL
bcc


@<TRIPOS>ATOM
      1 N14        -0.0920    0.3560    0.3900 n4        1 Q10     -0.837600
      2 C13         1.3810    0.1460    0.2660 c3        1 Q10      0.102800
      3 C12         2.0940    0.2250    1.6070 c3        1 Q10     -0.124400
      4 C11         3.5870   -0.0000    1.3870 c3        1 Q10      0.137400
      5 O10         4.1650    0.0930    2.6910 os        1 Q10     -0.328900
      6 C25         5.5390   -0.0940    2.7530 ca        1 Q10      0.143100
      7 C24         6.3550   -0.3430    1.6430 ca        1 Q10     -0.219000
      8 C23         7.7250   -0.5120    1.8370 ca        1 Q10     -0.049000
      9 C22         8.2860   -0.4390    3.1100 ca        1 Q10     -0.215000
     10 C26         6.0690   -0.0110    4.0490 ca        1 Q10     -0.170000
     11 C21         7.4520   -0.1890    4.2070 ca        1 Q10      0.149100
     12 O09         7.8880   -0.1060    5.5220 os        1 Q10     -0.338900
     13 C08         9.3060   -0.1950    5.7010 c3        1 Q10      0.074100
     14 C06         9.5680   -0.0420    7.1840 ca        1 Q10      0.449600
     15 N01        10.8120    0.3250    7.5560 nb        1 Q10     -0.665000
     16 C02        11.0480    0.4260    8.8930 ca        1 Q10      0.448200
     17 N02        12.4220    0.8230    9.2800 n4        1 Q10     -0.817300
     18 C03        10.0950    0.1840    9.8990 ca        1 Q10     -0.206300
     19 C04         8.8020   -0.1920    9.4880 ca        1 Q10      0.000700
     20 C05         8.5390   -0.3060    8.1210 ca        1 Q10     -0.174300
     21 C07         7.7580   -0.4710   10.4970 c3        1 Q10     -0.081800
     22 H1         -0.2850    1.2800    0.7930 hn        1 Q10      0.466800
     23 H2         -0.5340    0.2960   -0.5340 hn        1 Q10      0.466800
     24 H4          1.5440   -0.8680   -0.2030 hx        1 Q10      0.116700
     25 H5          1.7810    0.9370   -0.4350 hx        1 Q10      0.116700
     26 H6          1.9460    1.2280    2.0880 hc        1 Q10      0.088200
     27 H7          1.7110   -0.5550    2.3180 hc        1 Q10      0.088200
     28 H8          4.0200    0.7920    0.7200 h1        1 Q10      0.057700
     29 H9          3.7820   -1.0170    0.9540 h1        1 Q10      0.057700
     30 H10         5.9420   -0.4060    0.6280 ha        1 Q10      0.141000
     31 H11         8.3750   -0.7090    0.9690 ha        1 Q10      0.154000
     32 H12         9.3690   -0.5800    3.2310 ha        1 Q10      0.148000
     33 H13         5.4210    0.1870    4.9130 ha        1 Q10      0.168000
     34 H14         9.8130    0.6150    5.1100 h1        1 Q10      0.083700
     35 H15         9.6670   -1.2060    5.3670 h1        1 Q10      0.083700
     36 H16        13.0970    0.1270    8.9360 hn        1 Q10      0.473133
     37 H17        12.4810    0.8840   10.3010 hn        1 Q10      0.473133
     38 H18        10.3230    0.2790   10.9720 ha        1 Q10      0.172000
     39 H19         7.5370   -0.5960    7.7570 ha        1 Q10      0.196000
     40 H20         7.8510    0.2180   11.3730 hc        1 Q10      0.077700
     41 H21         6.7350   -0.3540   10.0600 hc        1 Q10      0.077700
     42 H22         7.8620   -1.5250   10.8680 hc        1 Q10      0.077700
     43 H143       -0.5010   -0.3580    1.0030 hn        1 Q10      0.466800
     44 H023       12.6510    1.7370    8.8670 hn        1 Q10      0.473133
@<TRIPOS>BOND
     1    1    2 1   
     2    1   22 1   
     3    1   23 1   
     4    1   43 1   
     5    2    3 1   
     6    2   24 1   
     7    2   25 1   
     8    3    4 1   
     9    3   26 1   
    10    3   27 1   
    11    4    5 1   
    12    4   28 1   
    13    4   29 1   
    14    5    6 1   
    15    6    7 ar  
    16    6   10 ar  
    17    7    8 ar  
    18    7   30 1   
    19    8    9 ar  
    20    8   31 1   
    21    9   11 ar  
    22    9   32 1   
    23   10   11 ar  
    24   10   33 1   
    25   11   12 1   
    26   12   13 1   
    27   13   14 1   
    28   13   34 1   
    29   13   35 1   
    30   14   15 ar  
    31   14   20 ar  
    32   15   16 ar  
    33   16   17 1   
    34   16   18 ar  
    35   17   36 1   
    36   17   37 1   
    37   17   44 1   
    38   18   19 ar  
    39   18   38 1   
    40   19   20 ar  
    41   19   21 1   
    42   20   39 1   
    43   21   40 1   
    44   21   41 1   
    45   21   42 1   
@<TRIPOS>SUBSTRUCTURE
     1 Q10         1 TEMP              0 ****  ****    0 ROOT
