@<TRIPOS>MOLECULE
Q11
   34    36     1     0     0
SMALL
bcc


@<TRIPOS>ATOM
      1 C1         -3.4000    1.0400    0.3690 ca        1 Q11      0.724200
      2 N2         -4.3310    0.1580   -0.0490 nb        1 Q11     -0.825000
      3 C3         -3.8780   -1.1140   -0.4340 ca        1 Q11      0.899900
      4 N4         -2.5740   -1.5070   -0.5060 nb        1 Q11     -0.790000
      5 C5         -1.6320   -0.5930   -0.0970 ca        1 Q11      0.479600
      6 C6         -1.9760    0.7110    0.3710 ca        1 Q11     -0.328600
      7 C7         -0.2470   -0.9590   -0.1380 ca        1 Q11     -0.194300
      8 C8          0.7300   -0.0770    0.2790 cp        1 Q11      0.015000
      9 C9          0.3650    1.2100    0.7520 ca        1 Q11     -0.134000
     10 C10        -0.9550    1.5890    0.7970 ca        1 Q11     -0.084000
     11 N11        -3.8250    2.2720    0.8470 nh        1 Q11     -0.945500
     12 N12        -4.8710   -2.0630   -0.7210 nh        1 Q11     -0.923500
     13 C13         2.1360   -0.4800    0.2600 cp        1 Q11     -0.070000
     14 C14         2.4900   -1.7570    0.7150 ca        1 Q11     -0.087000
     15 C15         3.8160   -2.1840    0.7120 ca        1 Q11     -0.164000
     16 C16         4.8180   -1.3360    0.2470 ca        1 Q11     -0.090000
     17 C17         4.5000   -0.0600   -0.2120 ca        1 Q11     -0.206000
     18 C18         3.1670    0.3710   -0.2030 ca        1 Q11      0.139100
     19 O19         2.7790    1.6290   -0.6230 os        1 Q11     -0.325900
     20 C20         3.7580    2.3900   -1.3210 c3        1 Q11      0.112700
     21 H7          0.0240   -1.9590   -0.5110 ha        1 Q11      0.153000
     22 H9          1.1600    1.9020    1.0720 ha        1 Q11      0.148000
     23 H10        -1.2030    2.5890    1.1840 ha        1 Q11      0.124000
     24 HN11       -4.7790    2.5200    0.7170 hn        1 Q11      0.422800
     25 HN1A       -3.1690    3.0140    0.8050 hn        1 Q11      0.422800
     26 HN12       -5.7710   -1.7030   -0.9410 hn        1 Q11      0.420800
     27 HN1B       -4.5780   -2.8510   -1.2530 hn        1 Q11      0.420800
     28 H14         1.6990   -2.4300    1.0850 ha        1 Q11      0.143000
     29 H15         4.0680   -3.1910    1.0760 ha        1 Q11      0.136000
     30 H16         5.8660   -1.6700    0.2420 ha        1 Q11      0.133000
     31 H17         5.3010    0.5990   -0.5750 ha        1 Q11      0.138000
     32 H20         3.1870    3.2880   -1.6700 h1        1 Q11      0.045033
     33 H20A        4.5820    2.6940   -0.6310 h1        1 Q11      0.045033
     34 H20B        4.1640    1.8200   -2.1910 h1        1 Q11      0.045033
@<TRIPOS>BOND
     1    1    2 ar  
     2    1    6 ar  
     3    1   11 1   
     4    2    3 ar  
     5    3    4 ar  
     6    3   12 1   
     7    4    5 ar  
     8    5    6 ar  
     9    5    7 ar  
    10    6   10 ar  
    11    7    8 ar  
    12    7   21 1   
    13    8    9 ar  
    14    8   13 1   
    15    9   10 ar  
    16    9   22 1   
    17   10   23 1   
    18   11   24 1   
    19   11   25 1   
    20   12   26 1   
    21   12   27 1   
    22   13   14 ar  
    23   13   18 ar  
    24   14   15 ar  
    25   14   28 1   
    26   15   16 ar  
    27   15   29 1   
    28   16   17 ar  
    29   16   30 1   
    30   17   18 ar  
    31   17   31 1   
    32   18   19 1   
    33   19   20 1   
    34   20   32 1   
    35   20   33 1   
    36   20   34 1   
@<TRIPOS>SUBSTRUCTURE
     1 Q11         1 TEMP              0 ****  ****    0 ROOT
