@<TRIPOS>MOLECULE
Q11
   34    36     1     0     0
SMALL
bcc


@<TRIPOS>ATOM
      1 C1          0.0310    0.0190   -0.0530 ca        1 Q11      0.724200
      2 N2          1.3790   -0.0350   -0.0900 nb        1 Q11     -0.825000
      3 C3          2.0460   -0.1430    1.1410 ca        1 Q11      0.899900
      4 N4          1.4590   -0.1100    2.3710 nb        1 Q11     -0.790000
      5 C5          0.0870   -0.0350    2.3970 ca        1 Q11      0.479600
      6 C6         -0.7040    0.0200    1.2090 ca        1 Q11     -0.328600
      7 C7         -0.5830   -0.0130    3.6630 ca        1 Q11     -0.194300
      8 C8         -1.9600    0.0470    3.7340 cp        1 Q11      0.015000
      9 C9         -2.7280    0.0890    2.5410 ca        1 Q11     -0.134000
     10 C10        -2.1110    0.0730    1.3130 ca        1 Q11     -0.084000
     11 N11        -0.6620    0.0280   -1.2560 nh        1 Q11     -0.946500
     12 N12         3.4330   -0.3490    1.0750 nh        1 Q11     -0.923500
     13 C13        -2.6270    0.0360    5.0360 cp        1 Q11     -0.070000
     14 C14        -2.1860   -0.8530    6.0250 ca        1 Q11     -0.087000
     15 C15        -2.7900   -0.8940    7.2800 ca        1 Q11     -0.164000
     16 C16        -3.8520   -0.0400    7.5700 ca        1 Q11     -0.091000
     17 C17        -4.3150    0.8550    6.6080 ca        1 Q11     -0.206000
     18 C18        -3.7100    0.8920    5.3440 ca        1 Q11      0.139100
     19 O19        -4.1290    1.7370    4.3330 os        1 Q11     -0.325900
     20 C20        -5.0340    2.7690    4.7090 c3        1 Q11      0.112700
     21 H7          0.0240   -0.0420    4.5820 ha        1 Q11      0.153000
     22 H9         -3.8250    0.1440    2.6190 ha        1 Q11      0.148000
     23 H10        -2.7390    0.0920    0.4090 ha        1 Q11      0.124000
     24 HN11       -1.5710    0.4210   -1.2400 hn        1 Q11      0.423300
     25 HN1A       -0.1420    0.1560   -2.0940 hn        1 Q11      0.423300
     26 HN12        3.8750   -0.0900    0.2240 hn        1 Q11      0.420800
     27 HN1B        3.9420   -0.1460    1.9050 hn        1 Q11      0.420800
     28 H14        -1.3480   -1.5300    5.7980 ha        1 Q11      0.143000
     29 H15        -2.4270   -1.6020    8.0390 ha        1 Q11      0.136000
     30 H16        -4.3300   -0.0700    8.5600 ha        1 Q11      0.133000
     31 H17        -5.1530    1.5230    6.8490 ha        1 Q11      0.138000
     32 H20        -4.6240    3.3750    5.5530 h1        1 Q11      0.045033
     33 H20A       -5.1190    3.3900    3.7810 h1        1 Q11      0.045033
     34 H20B       -6.0270    2.3370    4.9830 h1        1 Q11      0.045033
@<TRIPOS>BOND
     1    1    2 ar  
     2    1    6 ar  
     3    1   11 1   
     4    2    3 ar  
     5    3    4 ar  
     6    3   12 1   
     7    4    5 ar  
     8    5    6 ar  
     9    5    7 ar  
    10    6   10 ar  
    11    7    8 ar  
    12    7   21 1   
    13    8    9 ar  
    14    8   13 1   
    15    9   10 ar  
    16    9   22 1   
    17   10   23 1   
    18   11   24 1   
    19   11   25 1   
    20   12   26 1   
    21   12   27 1   
    22   13   14 ar  
    23   13   18 ar  
    24   14   15 ar  
    25   14   28 1   
    26   15   16 ar  
    27   15   29 1   
    28   16   17 ar  
    29   16   30 1   
    30   17   18 ar  
    31   17   31 1   
    32   18   19 1   
    33   19   20 1   
    34   20   32 1   
    35   20   33 1   
    36   20   34 1   
@<TRIPOS>SUBSTRUCTURE
     1 Q11         1 TEMP              0 ****  ****    0 ROOT
