@<TRIPOS>MOLECULE
Q11
   34    30     1     0     0
SMALL
bcc


@<TRIPOS>ATOM
      1 C1          1.3900   -0.4480   -3.5420 c1        1 Q11      0.200000
      2 N2          2.7450   -0.4690   -3.5700 n1        1 Q11     -0.296000
      3 C3          3.4580   -0.4480   -2.3980 c1        1 Q11      0.179000
      4 N4          2.8000   -0.4050   -1.1920 n1        1 Q11     -0.262000
      5 C5          1.4370   -0.3840   -1.1580 c1        1 Q11      0.085000
      6 C6          0.7240   -0.4050   -2.3260 c1        1 Q11     -0.196000
      7 C7          0.7660   -0.4060    0.0730 c2        1 Q11     -0.129000
      8 C8         -0.6400   -0.4490    0.1080 c1        1 Q11      0.015000
      9 C9         -1.3620   -0.4710   -1.0740 c1        1 Q11     -0.134000
     10 C10        -0.7030   -0.4500   -2.2880 c2        1 Q11     -0.084000
     11 N11         0.6430   -0.4150   -4.7820 n3        1 Q11     -0.342000
     12 N12         4.8760   -0.5090   -2.4290 n3        1 Q11     -0.319000
     13 C13        -1.1090   -0.4450    1.6160 c2        1 Q11     -0.070000
     14 C14        -1.0790   -1.6180    2.3500 c2        1 Q11     -0.088000
     15 C15        -1.3420   -1.5920    3.7270 c1        1 Q11     -0.164000
     16 C16        -1.6340   -0.3900    4.3570 c1        1 Q11     -0.148000
     17 C17        -1.6650    0.7870    3.6240 c1        1 Q11     -0.148000
     18 C18        -1.4020    0.7620    2.2460 c1        1 Q11      0.094000
     19 O19        -1.3900    1.9970    1.4850 os        1 Q11     -0.209000
     20 C20        -2.3090    2.9790    1.9640 c3        1 Q11     -0.077000
     21 H7          1.2690   -0.3920    0.8980 ha        1 Q11      0.153000
     22 H9         -2.3110   -0.5000   -1.0500 ha        1 Q11      0.148000
     23 H10        -1.2080   -0.4660   -3.1110 ha        1 Q11      0.123000
     24 HN11        0.0000   -1.0820   -4.9610 hn        1 Q11      0.217000
     25 HN1A        0.8660    0.2020   -5.4390 hn        1 Q11      0.217000
     26 HN12        5.3040   -0.4470   -3.2010 hn        1 Q11      0.215000
     27 HN1B        5.3360   -0.5900   -1.6670 hn        1 Q11      0.215000
     28 H14        -0.8790   -2.4470    1.9180 ha        1 Q11      0.143000
     29 H15        -1.3200   -2.3970    4.2280 ha        1 Q11      0.136000
     30 H16        -1.8180   -0.3730    5.3220 ha        1 Q11      0.135500
     31 H17        -1.8760    1.6580    4.0810 ha        1 Q11      0.135500
     32 H20        -1.8570    3.5700    2.5780 h1        1 Q11      0.084667
     33 H20A       -2.6670    3.5080    1.1910 h1        1 Q11      0.084667
     34 H20B       -3.0450    2.5360    2.4220 h1        1 Q11      0.084667
@<TRIPOS>BOND
     1    1    6 1   
     2    1   11 1   
     3    2    3 1   
     4    3   12 1   
     5    4    5 1   
     6    5    7 1   
     7    6   10 1   
     8    7    8 1   
     9    7   21 1   
    10    8   13 1   
    11    9   10 1   
    12    9   22 1   
    13   10   23 1   
    14   11   24 1   
    15   11   25 1   
    16   12   26 1   
    17   12   27 1   
    18   13   14 1   
    19   13   18 1   
    20   14   15 1   
    21   14   28 1   
    22   15   29 1   
    23   16   17 1   
    24   16   30 1   
    25   17   31 1   
    26   18   19 1   
    27   19   20 1   
    28   20   32 1   
    29   20   33 1   
    30   20   34 1   
@<TRIPOS>SUBSTRUCTURE
     1 Q11         1 TEMP              0 ****  ****    0 ROOT
