@<TRIPOS>MOLECULE
Q11
   34    36     1     0     0
SMALL
bcc


@<TRIPOS>ATOM
      1 C1          0.0370    0.0360   -0.0530 ca        1 Q11      0.721200
      2 N2          1.3840   -0.0230   -0.0890 nb        1 Q11     -0.822000
      3 C3          2.0530   -0.0640    1.1450 ca        1 Q11      0.897900
      4 N4          1.4640   -0.0300    2.3740 nb        1 Q11     -0.788000
      5 C5          0.0900    0.0070    2.3970 ca        1 Q11      0.478600
      6 C6         -0.7000    0.0410    1.2080 ca        1 Q11     -0.326600
      7 C7         -0.5820    0.0160    3.6620 ca        1 Q11     -0.194300
      8 C8         -1.9600    0.0570    3.7310 cp        1 Q11      0.015000
      9 C9         -2.7260    0.1020    2.5370 ca        1 Q11     -0.134000
     10 C10        -2.1070    0.0950    1.3100 ca        1 Q11     -0.084000
     11 N11        -0.6490    0.1610   -1.2550 nv        1 Q11     -0.944500
     12 N12         3.4480   -0.2210    1.0850 nv        1 Q11     -0.921500
     13 C13        -2.6290    0.0320    5.0320 cp        1 Q11     -0.070000
     14 C14        -2.1780   -0.8560    6.0180 ca        1 Q11     -0.088000
     15 C15        -2.7820   -0.9110    7.2720 ca        1 Q11     -0.164000
     16 C16        -3.8530   -0.0700    7.5650 ca        1 Q11     -0.090000
     17 C17        -4.3260    0.8240    6.6080 ca        1 Q11     -0.206000
     18 C18        -3.7210    0.8740    5.3440 ca        1 Q11      0.139100
     19 O19        -4.1510    1.7180    4.3380 os        1 Q11     -0.325900
     20 C20        -5.0540    2.7490    4.7220 c3        1 Q11      0.112700
     21 H7          0.0240   -0.0060    4.5820 ha        1 Q11      0.153000
     22 H9         -3.8230    0.1570    2.6140 ha        1 Q11      0.148000
     23 H10        -2.7330    0.1410    0.4060 ha        1 Q11      0.123000
     24 HN11       -0.1400    0.0150   -2.0970 hn        1 Q11      0.421800
     25 HN1A       -1.5910   -0.1480   -1.2580 hn        1 Q11      0.421800
     26 HN12        3.8800    0.0510    0.2320 hn        1 Q11      0.419800
     27 HN1B        3.9450    0.0170    1.9120 hn        1 Q11      0.419800
     28 H14        -1.3310   -1.5220    5.7880 ha        1 Q11      0.143000
     29 H15        -2.4100   -1.6180    8.0280 ha        1 Q11      0.136000
     30 H16        -4.3310   -0.1100    8.5550 ha        1 Q11      0.133000
     31 H17        -5.1720    1.4810    6.8510 ha        1 Q11      0.138000
     32 H20        -6.0470    2.3150    4.9960 h1        1 Q11      0.045367
     33 H20A       -5.1410    3.3740    3.7970 h1        1 Q11      0.045367
     34 H20B       -4.6410    3.3500    5.5670 h1        1 Q11      0.045367
@<TRIPOS>BOND
     1    1    2 ar  
     2    1    6 ar  
     3    1   11 1   
     4    2    3 ar  
     5    3    4 ar  
     6    3   12 1   
     7    4    5 ar  
     8    5    6 ar  
     9    5    7 ar  
    10    6   10 ar  
    11    7    8 ar  
    12    7   21 1   
    13    8    9 ar  
    14    8   13 1   
    15    9   10 ar  
    16    9   22 1   
    17   10   23 1   
    18   11   24 1   
    19   11   25 1   
    20   12   26 1   
    21   12   27 1   
    22   13   14 ar  
    23   13   18 ar  
    24   14   15 ar  
    25   14   28 1   
    26   15   16 ar  
    27   15   29 1   
    28   16   17 ar  
    29   16   30 1   
    30   17   18 ar  
    31   17   31 1   
    32   18   19 1   
    33   19   20 1   
    34   20   32 1   
    35   20   33 1   
    36   20   34 1   
@<TRIPOS>SUBSTRUCTURE
     1 Q11         1 TEMP              0 ****  ****    0 ROOT
