@<TRIPOS>MOLECULE
Q11
   36    38     1     0     0
SMALL
bcc


@<TRIPOS>ATOM
      1 C1          0.0560    0.0930   -0.0240 ca        1 Q11      0.554200
      2 N2          1.3930   -0.0220   -0.0990 nb        1 Q11     -0.694000
      3 C3          2.0380   -0.1390    1.1270 ca        1 Q11      0.707900
      4 N4          1.4780   -0.1530    2.3520 nb        1 Q11     -0.590000
      5 C5          0.1090   -0.0330    2.4120 ca        1 Q11      0.451600
      6 C6         -0.6850    0.1000    1.2010 ca        1 Q11     -0.232600
      7 C7         -0.5450   -0.0300    3.6710 ca        1 Q11     -0.179300
      8 C8         -1.9310    0.0970    3.7590 cp        1 Q11      0.116000
      9 C9         -2.6890    0.2250    2.5550 ca        1 Q11     -0.014000
     10 C10        -2.0850    0.2250    1.3190 ca        1 Q11     -0.149000
     11 N11        -0.6750    0.2200   -1.3050 n4        1 Q11     -0.830300
     12 N12         3.5240   -0.2650    1.0620 n4        1 Q11     -0.810300
     13 C13        -2.5880    0.0780    5.0480 cp        1 Q11     -0.166000
     14 C14        -2.0790   -0.7510    6.0730 ca        1 Q11     -0.063000
     15 C15        -2.6790   -0.8020    7.3200 ca        1 Q11     -0.153000
     16 C16        -3.8060   -0.0130    7.5880 ca        1 Q11     -0.022000
     17 C17        -4.3290    0.8190    6.6070 ca        1 Q11     -0.203000
     18 C18        -3.7320    0.8660    5.3370 ca        1 Q11      0.189100
     19 O19        -4.1890    1.6710    4.3200 os        1 Q11     -0.358900
     20 C20        -5.2460    2.5810    4.6410 c3        1 Q11      0.109700
     21 H7          0.0600   -0.1130    4.5940 ha        1 Q11      0.197000
     22 H9         -3.7920    0.3230    2.6320 ha        1 Q11      0.206000
     23 H10        -2.7200    0.3210    0.4240 ha        1 Q11      0.144000
     24 HN11       -1.3420   -0.5620   -1.3830 hn        1 Q11      0.490467
     25 HN1A       -1.1910    1.1120   -1.3030 hn        1 Q11      0.490467
     26 HN12        3.9180    0.5700    0.6060 hn        1 Q11      0.493800
     27 HN1B        3.9120   -0.3480    2.0160 hn        1 Q11      0.493800
     28 H14        -1.2040   -1.3870    5.8670 ha        1 Q11      0.138000
     29 H15        -2.2750   -1.4640    8.1030 ha        1 Q11      0.166000
     30 H16        -4.2800   -0.0550    8.5840 ha        1 Q11      0.169000
     31 H17        -5.2130    1.4350    6.8330 ha        1 Q11      0.168000
     32 H20        -4.9410    3.2580    5.4750 h1        1 Q11      0.065700
     33 H20A       -5.3800    3.1580    3.6900 h1        1 Q11      0.065700
     34 H20B       -6.1750    2.0180    4.8980 h1        1 Q11      0.065700
     35 H113       -0.0360    0.2010   -2.1150 hn        1 Q11      0.490467
     36 H123        3.7730   -1.1030    0.5180 hn        1 Q11      0.493800
@<TRIPOS>BOND
     1    1    2 ar  
     2    1    6 ar  
     3    1   11 1   
     4    2    3 ar  
     5    3    4 ar  
     6    3   12 1   
     7    4    5 ar  
     8    5    6 ar  
     9    5    7 ar  
    10    6   10 ar  
    11    7    8 ar  
    12    7   21 1   
    13    8    9 ar  
    14    8   13 1   
    15    9   10 ar  
    16    9   22 1   
    17   10   23 1   
    18   11   24 1   
    19   11   25 1   
    20   11   35 1   
    21   12   26 1   
    22   12   27 1   
    23   12   36 1   
    24   13   14 ar  
    25   13   18 ar  
    26   14   15 ar  
    27   14   28 1   
    28   15   16 ar  
    29   15   29 1   
    30   16   17 ar  
    31   16   30 1   
    32   17   18 ar  
    33   17   31 1   
    34   18   19 1   
    35   19   20 1   
    36   20   32 1   
    37   20   33 1   
    38   20   34 1   
@<TRIPOS>SUBSTRUCTURE
     1 Q11         1 TEMP              0 ****  ****    0 ROOT
