@<TRIPOS>MOLECULE
Q12
   43    45     1     0     0
SMALL
bcc


@<TRIPOS>ATOM
      1 C1          0.0680   -0.0440   -0.0540 ca        1 Q12      0.540200
      2 N2          1.4110    0.0170   -0.0850 nb        1 Q12     -0.685000
      3 C3          2.0220    0.1110    1.1590 ca        1 Q12      0.695900
      4 N4          1.4230    0.1480    2.3670 nb        1 Q12     -0.584000
      5 C5          0.0530    0.0800    2.3810 ca        1 Q12      0.439600
      6 C6         -0.7120   -0.0200    1.1490 ca        1 Q12     -0.213600
      7 C7         -2.1140   -0.0800    1.2210 ca        1 Q12     -0.173000
      8 C8         -2.7810   -0.0630    2.4380 ca        1 Q12      0.055700
      9 C9         -2.0370    0.0060    3.6640 cp        1 Q12      0.091000
     10 C10        -0.6490    0.0930    3.6160 ca        1 Q12     -0.164300
     11 N11        -0.6250   -0.1440   -1.3580 n4        1 Q12     -0.828300
     12 N12         3.5120    0.1770    1.1410 n4        1 Q12     -0.808300
     13 C13        -4.2610   -0.0870    2.4400 c3        1 Q12     -0.099800
     14 C14        -2.6900    0.0010    4.9610 cp        1 Q12     -0.144000
     15 C15        -3.6920   -0.9250    5.2680 ca        1 Q12     -0.066000
     16 C16        -4.2770   -0.9520    6.5330 ca        1 Q12     -0.202000
     17 C17        -3.8790   -0.0360    7.5110 ca        1 Q12      0.184100
     18 C18        -2.8570    0.9210    7.2010 ca        1 Q12      0.113100
     19 C19        -2.2680    0.9230    5.9460 ca        1 Q12     -0.162000
     20 O20        -2.5430    1.7740    8.2310 os        1 Q12     -0.281900
     21 C21        -1.5920    2.7970    7.9450 c3        1 Q12      0.105700
     22 O22        -4.3810    0.0410    8.7750 os        1 Q12     -0.274900
     23 C23        -5.4040   -0.8960    9.1240 c3        1 Q12      0.100700
     24 H7         -2.7200   -0.1300    0.3020 ha        1 Q12      0.142000
     25 H10        -0.0770    0.1570    4.5630 ha        1 Q12      0.200000
     26 HN11       -1.2520    0.6670   -1.4600 hn        1 Q12      0.489467
     27 HN1A       -1.1820   -1.0110   -1.3690 hn        1 Q12      0.489467
     28 HN12        3.8720    0.2450    2.1070 hn        1 Q12      0.493133
     29 HN1B        3.8120    1.0050    0.6070 hn        1 Q12      0.493133
     30 H13        -4.6270   -1.1480    2.4540 hc        1 Q12      0.089700
     31 H13A       -4.6750    0.4100    1.5270 hc        1 Q12      0.089700
     32 H13B       -4.6710    0.4340    3.3440 hc        1 Q12      0.089700
     33 H15        -4.0110   -1.6700    4.5220 ha        1 Q12      0.137000
     34 H16        -5.0520   -1.7010    6.7570 ha        1 Q12      0.167000
     35 H19        -1.4870    1.6590    5.7030 ha        1 Q12      0.142000
     36 H21        -1.5430    3.3690    8.9090 h1        1 Q12      0.054367
     37 H21A       -0.5980    2.3520    7.6990 h1        1 Q12      0.054367
     38 H21B       -1.9510    3.4510    7.1150 h1        1 Q12      0.054367
     39 H23        -5.0140   -1.9410    9.0580 h1        1 Q12      0.065033
     40 H23A       -6.2990   -0.7580    8.4710 h1        1 Q12      0.065033
     41 H23B       -5.6370   -0.6230   10.1860 h1        1 Q12      0.065033
     42 H113        0.0400   -0.1590   -2.1460 hn        1 Q12      0.489467
     43 H123        3.8870   -0.6730    0.6970 hn        1 Q12      0.493133
@<TRIPOS>BOND
     1    1    2 ar  
     2    1    6 ar  
     3    1   11 1   
     4    2    3 ar  
     5    3    4 ar  
     6    3   12 1   
     7    4    5 ar  
     8    5    6 ar  
     9    5   10 ar  
    10    6    7 ar  
    11    7    8 ar  
    12    7   24 1   
    13    8    9 ar  
    14    8   13 1   
    15    9   10 ar  
    16    9   14 1   
    17   10   25 1   
    18   11   26 1   
    19   11   27 1   
    20   11   42 1   
    21   12   28 1   
    22   12   29 1   
    23   12   43 1   
    24   13   30 1   
    25   13   31 1   
    26   13   32 1   
    27   14   15 ar  
    28   14   19 ar  
    29   15   16 ar  
    30   15   33 1   
    31   16   17 ar  
    32   16   34 1   
    33   17   18 ar  
    34   17   22 1   
    35   18   19 ar  
    36   18   20 1   
    37   19   35 1   
    38   20   21 1   
    39   21   36 1   
    40   21   37 1   
    41   21   38 1   
    42   22   23 1   
    43   23   39 1   
    44   23   40 1   
    45   23   41 1   
@<TRIPOS>SUBSTRUCTURE
     1 Q12         1 TEMP              0 ****  ****    0 ROOT
