@<TRIPOS>MOLECULE
Q12
   41    43     1     0     0
SMALL
bcc


@<TRIPOS>ATOM
      1 C1          0.0650    0.0190   -0.0730 ca        1 Q12      0.723200
      2 N2          1.4130    0.0240   -0.0810 nb        1 Q12     -0.822000
      3 C3          2.0590    0.0350    1.1660 ca        1 Q12      0.901900
      4 N4          1.4430    0.0590    2.3830 nb        1 Q12     -0.788000
      5 C5          0.0700    0.0280    2.3770 ca        1 Q12      0.477600
      6 C6         -0.6980    0.0090    1.1740 ca        1 Q12     -0.325600
      7 C7         -2.1050   -0.0020    1.2470 ca        1 Q12     -0.082000
      8 C8         -2.7670   -0.0090    2.4600 ca        1 Q12     -0.096300
      9 C9         -2.0120   -0.0040    3.6680 cp        1 Q12      0.007000
     10 C10        -0.6330    0.0220    3.6230 ca        1 Q12     -0.190300
     11 N11        -0.6010    0.0930   -1.2900 nv        1 Q12     -0.944500
     12 N12         3.4590   -0.0550    1.1350 nv        1 Q12     -0.924500
     13 C13        -4.2500   -0.0140    2.4820 c3        1 Q12     -0.052800
     14 C14        -2.6740   -0.0150    4.9770 cp        1 Q12     -0.046000
     15 C15        -3.6030   -1.0010    5.3080 ca        1 Q12     -0.112000
     16 C16        -4.2050   -1.0200    6.5670 ca        1 Q12     -0.184000
     17 C17        -3.8840   -0.0430    7.5090 ca        1 Q12      0.108100
     18 C18        -2.9380    0.9660    7.1790 ca        1 Q12      0.100100
     19 C19        -2.3380    0.9700    5.9220 ca        1 Q12     -0.165000
     20 O20        -2.6890    1.8890    8.1750 os        1 Q12     -0.304900
     21 C21        -1.7280    2.8920    7.8670 c3        1 Q12      0.109700
     22 O22        -4.4200    0.0420    8.7780 os        1 Q12     -0.302900
     23 C23        -5.3430   -0.9820    9.1320 c3        1 Q12      0.110700
     24 H7         -2.7100    0.0090    0.3270 ha        1 Q12      0.124000
     25 H10        -0.0510    0.0310    4.5600 ha        1 Q12      0.155000
     26 HN11       -0.0680   -0.0370   -2.1200 hn        1 Q12      0.422800
     27 HN1A       -1.5270   -0.2610   -1.3090 hn        1 Q12      0.422800
     28 HN12        3.8980    0.2130    0.2860 hn        1 Q12      0.422800
     29 HN1B        3.9310    0.2070    1.9700 hn        1 Q12      0.422800
     30 H13        -4.6630    0.5050    1.5820 hc        1 Q12      0.046033
     31 H13A       -4.6390    0.5000    3.3960 hc        1 Q12      0.046033
     32 H13B       -4.6300   -1.0670    2.4840 hc        1 Q12      0.046033
     33 H15        -3.8620   -1.7780    4.5730 ha        1 Q12      0.139000
     34 H16        -4.9310   -1.8100    6.8060 ha        1 Q12      0.140000
     35 H19        -1.6000    1.7400    5.6530 ha        1 Q12      0.148000
     36 H21        -2.0670    3.5140    7.0030 h1        1 Q12      0.044700
     37 H21A       -1.6870    3.5050    8.8030 h1        1 Q12      0.044700
     38 H21B       -0.7310    2.4340    7.6520 h1        1 Q12      0.044700
     39 H23        -6.2400   -0.9540    8.4650 h1        1 Q12      0.044033
     40 H23A       -5.6250   -0.7210   10.1830 h1        1 Q12      0.044033
     41 H23B       -4.8570   -1.9870    9.0910 h1        1 Q12      0.044033
@<TRIPOS>BOND
     1    1    2 ar  
     2    1    6 ar  
     3    1   11 1   
     4    2    3 ar  
     5    3    4 ar  
     6    3   12 1   
     7    4    5 ar  
     8    5    6 ar  
     9    5   10 ar  
    10    6    7 ar  
    11    7    8 ar  
    12    7   24 1   
    13    8    9 ar  
    14    8   13 1   
    15    9   10 ar  
    16    9   14 1   
    17   10   25 1   
    18   11   26 1   
    19   11   27 1   
    20   12   28 1   
    21   12   29 1   
    22   13   30 1   
    23   13   31 1   
    24   13   32 1   
    25   14   15 ar  
    26   14   19 ar  
    27   15   16 ar  
    28   15   33 1   
    29   16   17 ar  
    30   16   34 1   
    31   17   18 ar  
    32   17   22 1   
    33   18   19 ar  
    34   18   20 1   
    35   19   35 1   
    36   20   21 1   
    37   21   36 1   
    38   21   37 1   
    39   21   38 1   
    40   22   23 1   
    41   23   39 1   
    42   23   40 1   
    43   23   41 1   
@<TRIPOS>SUBSTRUCTURE
     1 Q12         1 TEMP              0 ****  ****    0 ROOT
