@<TRIPOS>MOLECULE
Q12
   41    43     1     0     0
SMALL
bcc


@<TRIPOS>ATOM
      1 C1         -4.4080    0.7470   -0.2790 ca        1 Q12      0.723200
      2 N2         -5.1490   -0.3180    0.0870 nb        1 Q12     -0.822000
      3 C3         -4.4580   -1.4490    0.5500 ca        1 Q12      0.900900
      4 N4         -3.1040   -1.5580    0.6800 nb        1 Q12     -0.788000
      5 C5         -2.3600   -0.4750    0.2830 ca        1 Q12      0.477600
      6 C6         -2.9480    0.7260   -0.2170 ca        1 Q12     -0.325600
      7 C7         -2.1180    1.7980   -0.6030 ca        1 Q12     -0.082000
      8 C8         -0.7420    1.7200   -0.5080 ca        1 Q12     -0.095300
      9 C9         -0.1430    0.5290   -0.0050 cp        1 Q12      0.007000
     10 C10        -0.9330   -0.5370    0.3740 ca        1 Q12     -0.190300
     11 N11        -5.0680    1.9080   -0.6600 nh        1 Q12     -0.944500
     12 N12        -5.2420   -2.5780    0.8340 nh        1 Q12     -0.922500
     13 C13         0.0860    2.8740   -0.9330 c3        1 Q12     -0.052800
     14 C14         1.3130    0.4020    0.1130 cp        1 Q12     -0.046000
     15 C15         2.0640    1.3370    0.8250 ca        1 Q12     -0.112000
     16 C16         3.4470    1.1910    0.9560 ca        1 Q12     -0.184000
     17 C17         4.0930    0.1040    0.3680 ca        1 Q12      0.108100
     18 C18         3.3330   -0.8540   -0.3590 ca        1 Q12      0.100100
     19 C19         1.9540   -0.7020   -0.4770 ca        1 Q12     -0.166000
     20 O20         4.0620   -1.8910   -0.9060 os        1 Q12     -0.304900
     21 C21         3.3120   -2.8730   -1.6130 c3        1 Q12      0.109700
     22 O22         5.4500   -0.1380    0.4260 os        1 Q12     -0.302900
     23 C23         6.2160    0.7970    1.1770 c3        1 Q12      0.110700
     24 H7         -2.5580    2.7320   -0.9870 ha        1 Q12      0.124000
     25 H10        -0.4670   -1.4590    0.7610 ha        1 Q12      0.156000
     26 HN11       -6.0470    1.8550   -0.8230 hn        1 Q12      0.423300
     27 HN1A       -4.5640    2.5330   -1.2420 hn        1 Q12      0.423300
     28 HN12       -6.2050   -2.4080    1.0150 hn        1 Q12      0.421800
     29 HN1B       -4.8130   -3.2740    1.3990 hn        1 Q12      0.421800
     30 H13         0.2540    3.5650   -0.0690 hc        1 Q12      0.045700
     31 H13A        1.0830    2.5360   -1.3100 hc        1 Q12      0.045700
     32 H13B       -0.4220    3.4510   -1.7460 hc        1 Q12      0.045700
     33 H15         1.5650    2.1980    1.2950 ha        1 Q12      0.139000
     34 H16         4.0160    1.9380    1.5260 ha        1 Q12      0.140000
     35 H19         1.3520   -1.4370   -1.0300 ha        1 Q12      0.148000
     36 H21         2.5730   -3.3700   -0.9390 h1        1 Q12      0.044700
     37 H21A        2.7950   -2.4180   -2.4930 h1        1 Q12      0.044700
     38 H21B        4.0940   -3.6010   -1.9480 h1        1 Q12      0.044700
     39 H23         5.8830    0.8170    2.2430 h1        1 Q12      0.044033
     40 H23A        7.2590    0.3980    1.0970 h1        1 Q12      0.044033
     41 H23B        6.1490    1.8170    0.7260 h1        1 Q12      0.044033
@<TRIPOS>BOND
     1    1    2 ar  
     2    1    6 ar  
     3    1   11 1   
     4    2    3 ar  
     5    3    4 ar  
     6    3   12 1   
     7    4    5 ar  
     8    5    6 ar  
     9    5   10 ar  
    10    6    7 ar  
    11    7    8 ar  
    12    7   24 1   
    13    8    9 ar  
    14    8   13 1   
    15    9   10 ar  
    16    9   14 1   
    17   10   25 1   
    18   11   26 1   
    19   11   27 1   
    20   12   28 1   
    21   12   29 1   
    22   13   30 1   
    23   13   31 1   
    24   13   32 1   
    25   14   15 ar  
    26   14   19 ar  
    27   15   16 ar  
    28   15   33 1   
    29   16   17 ar  
    30   16   34 1   
    31   17   18 ar  
    32   17   22 1   
    33   18   19 ar  
    34   18   20 1   
    35   19   35 1   
    36   20   21 1   
    37   21   36 1   
    38   21   37 1   
    39   21   38 1   
    40   22   23 1   
    41   23   39 1   
    42   23   40 1   
    43   23   41 1   
@<TRIPOS>SUBSTRUCTURE
     1 Q12         1 TEMP              0 ****  ****    0 ROOT
