@<TRIPOS>MOLECULE
Q12
   41    43     1     0     0
SMALL
bcc


@<TRIPOS>ATOM
      1 C1          0.0700   -0.0150   -0.0710 ca        1 Q12      0.726200
      2 N2          1.4180    0.0100   -0.0780 nb        1 Q12     -0.825000
      3 C3          2.0610    0.1080    1.1670 ca        1 Q12      0.902900
      4 N4          1.4460    0.0890    2.3850 nb        1 Q12     -0.789000
      5 C5          0.0730    0.0430    2.3790 ca        1 Q12      0.478600
      6 C6         -0.6940    0.0040    1.1760 ca        1 Q12     -0.326600
      7 C7         -2.1010   -0.0060    1.2480 ca        1 Q12     -0.082000
      8 C8         -2.7640   -0.0090    2.4600 ca        1 Q12     -0.096300
      9 C9         -2.0100    0.0000    3.6680 cp        1 Q12      0.007000
     10 C10        -0.6310    0.0330    3.6250 ca        1 Q12     -0.191300
     11 N11        -0.5950   -0.0170   -1.2890 nh        1 Q12     -0.946500
     12 N12         3.4520    0.2830    1.1320 nh        1 Q12     -0.924500
     13 C13        -4.2460   -0.0130    2.4810 c3        1 Q12     -0.052800
     14 C14        -2.6720   -0.0100    4.9780 cp        1 Q12     -0.046000
     15 C15        -3.6010   -0.9970    5.3090 ca        1 Q12     -0.113000
     16 C16        -4.2040   -1.0140    6.5680 ca        1 Q12     -0.184000
     17 C17        -3.8830   -0.0370    7.5090 ca        1 Q12      0.107100
     18 C18        -2.9370    0.9720    7.1790 ca        1 Q12      0.101100
     19 C19        -2.3370    0.9750    5.9220 ca        1 Q12     -0.165000
     20 O20        -2.6870    1.8950    8.1740 os        1 Q12     -0.304900
     21 C21        -1.7330    2.9040    7.8620 c3        1 Q12      0.109700
     22 O22        -4.4190    0.0480    8.7780 os        1 Q12     -0.302900
     23 C23        -5.3480   -0.9710    9.1290 c3        1 Q12      0.110700
     24 H7         -2.7050    0.0050    0.3270 ha        1 Q12      0.125000
     25 H10        -0.0500    0.0500    4.5610 ha        1 Q12      0.155000
     26 HN11       -1.5150   -0.3860   -1.2940 hn        1 Q12      0.424300
     27 HN1A       -0.0600   -0.1550   -2.1150 hn        1 Q12      0.424300
     28 HN12        3.9090    0.0220    0.2900 hn        1 Q12      0.422800
     29 HN1B        3.9400    0.0790    1.9740 hn        1 Q12      0.422800
     30 H13        -4.6360    0.5020    3.3940 hc        1 Q12      0.045700
     31 H13A       -4.6280   -1.0650    2.4840 hc        1 Q12      0.045700
     32 H13B       -4.6590    0.5050    1.5800 hc        1 Q12      0.045700
     33 H15        -3.8610   -1.7740    4.5740 ha        1 Q12      0.138000
     34 H16        -4.9290   -1.8040    6.8070 ha        1 Q12      0.140000
     35 H19        -1.5980    1.7450    5.6530 ha        1 Q12      0.149000
     36 H21        -1.6940    3.5190    8.7970 h1        1 Q12      0.045033
     37 H21A       -2.0790    3.5220    6.9980 h1        1 Q12      0.045033
     38 H21B       -0.7350    2.4520    7.6460 h1        1 Q12      0.045033
     39 H23        -5.6320   -0.7080   10.1800 h1        1 Q12      0.044033
     40 H23A       -4.8670   -1.9780    9.0910 h1        1 Q12      0.044033
     41 H23B       -6.2420   -0.9380    8.4600 h1        1 Q12      0.044033
@<TRIPOS>BOND
     1    1    2 ar  
     2    1    6 ar  
     3    1   11 1   
     4    2    3 ar  
     5    3    4 ar  
     6    3   12 1   
     7    4    5 ar  
     8    5    6 ar  
     9    5   10 ar  
    10    6    7 ar  
    11    7    8 ar  
    12    7   24 1   
    13    8    9 ar  
    14    8   13 1   
    15    9   10 ar  
    16    9   14 1   
    17   10   25 1   
    18   11   26 1   
    19   11   27 1   
    20   12   28 1   
    21   12   29 1   
    22   13   30 1   
    23   13   31 1   
    24   13   32 1   
    25   14   15 ar  
    26   14   19 ar  
    27   15   16 ar  
    28   15   33 1   
    29   16   17 ar  
    30   16   34 1   
    31   17   18 ar  
    32   17   22 1   
    33   18   19 ar  
    34   18   20 1   
    35   19   35 1   
    36   20   21 1   
    37   21   36 1   
    38   21   37 1   
    39   21   38 1   
    40   22   23 1   
    41   23   39 1   
    42   23   40 1   
    43   23   41 1   
@<TRIPOS>SUBSTRUCTURE
     1 Q12         1 TEMP              0 ****  ****    0 ROOT
