@<TRIPOS>MOLECULE
Q13
   53    54     1     0     0
SMALL
bcc


@<TRIPOS>ATOM
      1 N22         5.1270   -3.1700   -0.1530 nv        1 Q13     -0.931500
      2 C22         4.7390   -1.8420    0.1290 ca        1 Q13      0.620200
      3 C23         3.9570   -1.5730    1.2910 ca        1 Q13     -0.281300
      4 C24         3.6360   -0.2540    1.6040 ca        1 Q13      0.018700
      5 C27         2.8200    0.0700    2.7960 c3        1 Q13     -0.074800
      6 C25         4.0880    0.7690    0.7570 ca        1 Q13     -0.267300
      7 N21         5.1920   -0.8410   -0.6880 nb        1 Q13     -0.796000
      8 C26         4.8540    0.4300   -0.3700 ca        1 Q13      0.399600
      9 C16         5.2680    1.5670   -1.2770 c3        1 Q13      0.079100
     10 O15         6.5160    1.3680   -1.9250 os        1 Q13     -0.435600
     11 C13         6.4590    0.6070   -3.1390 c3        1 Q13      0.130100
     12 C14         6.4360    1.5680   -4.3140 c3        1 Q13     -0.123100
     13 C11         7.7500   -0.2480   -3.1620 c3        1 Q13      0.107500
     14 N12         8.0230   -0.8890   -1.8370 nz        1 Q13     -0.816600
     15 C10         7.6730   -1.3130   -4.2710 c3        1 Q13      0.113400
     16 O09         8.9950   -1.8060   -4.4410 os        1 Q13     -0.420600
     17 C08         9.0930   -3.1980   -4.7200 c3        1 Q13      0.077100
     18 C06         9.3600   -4.0280   -3.4840 ca        1 Q13      0.411600
     19 N01         8.7580   -3.7010   -2.3170 nb        1 Q13     -0.813000
     20 C02         9.0530   -4.4600   -1.2140 ca        1 Q13      0.633200
     21 N02         8.5500   -4.0540    0.0330 nv        1 Q13     -0.935500
     22 C03         9.9250   -5.5880   -1.2870 ca        1 Q13     -0.287300
     23 C04        10.5110   -5.9170   -2.5060 ca        1 Q13      0.020700
     24 C05        10.2290   -5.1210   -3.6270 ca        1 Q13     -0.272300
     25 C07        11.4270   -7.0740   -2.6260 c3        1 Q13     -0.073800
     26 H1          5.2470   -3.3740   -1.1230 hn        1 Q13      0.400800
     27 H2          4.5480   -3.8410    0.3060 hn        1 Q13      0.400800
     28 H3          3.6110   -2.3950    1.9350 ha        1 Q13      0.158000
     29 H4          3.2430    0.9550    3.3330 hc        1 Q13      0.065033
     30 H5          1.7740    0.3190    2.4820 hc        1 Q13      0.065033
     31 H6          2.7780   -0.7920    3.5070 hc        1 Q13      0.065033
     32 H7          3.8420    1.8180    0.9740 ha        1 Q13      0.159000
     33 H8          5.4450    2.4940   -0.6600 h1        1 Q13      0.084200
     34 H9          4.4530    1.7560   -2.0260 h1        1 Q13      0.084200
     35 H10         5.5560   -0.0610   -3.1620 h1        1 Q13      0.081700
     36 H11         6.3350    1.0130   -5.2760 hc        1 Q13      0.064033
     37 H12         7.3650    2.1870   -4.3410 hc        1 Q13      0.064033
     38 H13         5.5630    2.2570   -4.2040 hc        1 Q13      0.064033
     39 H14         8.6300    0.4340   -3.3740 hx        1 Q13      0.121700
     40 H15         8.9800   -1.2570   -1.8330 hn        1 Q13      0.468800
     41 H16         7.3690   -1.6640   -1.6770 hn        1 Q13      0.468800
     42 H18         6.9420   -2.1240   -4.0170 h1        1 Q13      0.074700
     43 H19         7.3680   -0.8150   -5.2310 h1        1 Q13      0.074700
     44 H20         9.9820   -3.2650   -5.4100 h1        1 Q13      0.080700
     45 H21         8.1770   -3.5810   -5.2420 h1        1 Q13      0.080700
     46 H22         7.6670   -3.5940    0.0250 hn        1 Q13      0.408800
     47 H23         8.6210   -4.7570    0.7370 hn        1 Q13      0.408800
     48 H24        10.1390   -6.1860   -0.3890 ha        1 Q13      0.157000
     49 H25        10.6870   -5.3510   -4.5990 ha        1 Q13      0.157000
     50 H26        12.4820   -6.7120   -2.7300 hc        1 Q13      0.063700
     51 H27        11.1750   -7.6810   -3.5310 hc        1 Q13      0.063700
     52 H28        11.3690   -7.7360   -1.7270 hc        1 Q13      0.063700
     53 H123        7.8990   -0.1910   -1.0950 hn        1 Q13      0.468800
@<TRIPOS>BOND
     1    1    2 1   
     2    1   26 1   
     3    1   27 1   
     4    2    3 ar  
     5    2    7 ar  
     6    3    4 ar  
     7    3   28 1   
     8    4    5 1   
     9    4    6 ar  
    10    5   29 1   
    11    5   30 1   
    12    5   31 1   
    13    6    8 ar  
    14    6   32 1   
    15    7    8 ar  
    16    8    9 1   
    17    9   10 1   
    18    9   33 1   
    19    9   34 1   
    20   10   11 1   
    21   11   12 1   
    22   11   13 1   
    23   11   35 1   
    24   12   36 1   
    25   12   37 1   
    26   12   38 1   
    27   13   14 1   
    28   13   15 1   
    29   13   39 1   
    30   14   40 1   
    31   14   41 1   
    32   14   53 1   
    33   15   16 1   
    34   15   42 1   
    35   15   43 1   
    36   16   17 1   
    37   17   18 1   
    38   17   44 1   
    39   17   45 1   
    40   18   19 ar  
    41   18   24 ar  
    42   19   20 ar  
    43   20   21 1   
    44   20   22 ar  
    45   21   46 1   
    46   21   47 1   
    47   22   23 ar  
    48   22   48 1   
    49   23   24 ar  
    50   23   25 1   
    51   24   49 1   
    52   25   50 1   
    53   25   51 1   
    54   25   52 1   
@<TRIPOS>SUBSTRUCTURE
     1 Q13         1 TEMP              0 ****  ****    0 ROOT
