@<TRIPOS>MOLECULE
Q13
   55    56     1     0     0
SMALL
bcc


@<TRIPOS>ATOM
      1 N22         0.0450    1.0820   -1.9080 n4        1 Q13     -0.820300
      2 C22         1.2150    0.8500   -1.0310 ca        1 Q13      0.459200
      3 C23         1.3310    1.5910    0.1600 ca        1 Q13     -0.194300
      4 C24         2.4360    1.3250    0.9920 ca        1 Q13      0.015700
      5 C27         2.5960    2.0660    2.2610 c3        1 Q13     -0.089800
      6 C25         3.3460    0.3400    0.5970 ca        1 Q13     -0.190300
      7 N21         2.1040   -0.1000   -1.4400 nb        1 Q13     -0.659000
      8 C26         3.1460   -0.3520   -0.6200 ca        1 Q13      0.398600
      9 C16         4.0750   -1.4930   -0.9830 c3        1 Q13      0.084100
     10 O15         5.4420   -1.1570   -0.7550 os        1 Q13     -0.456600
     11 C13         6.1820   -0.7330   -1.9020 c3        1 Q13      0.126100
     12 C14         6.2990    0.7780   -1.9170 c3        1 Q13     -0.139100
     13 C11         7.5850   -1.3950   -1.8180 c3        1 Q13      0.107500
     14 N12         8.2180   -1.1930   -0.4740 n4        1 Q13     -0.829600
     15 C10         7.5000   -2.8910   -2.1700 c3        1 Q13      0.107400
     16 O09         8.8390   -3.3870   -2.1570 os        1 Q13     -0.461600
     17 C08         8.8950   -4.7790   -2.5100 c3        1 Q13      0.082100
     18 C06        10.3360   -5.1310   -2.8010 ca        1 Q13      0.430600
     19 N01        10.7570   -6.3590   -2.4330 nb        1 Q13     -0.656000
     20 C02        12.0300   -6.7030   -2.7790 ca        1 Q13      0.462200
     21 N02        12.4670   -8.0690   -2.4070 n4        1 Q13     -0.820300
     22 C03        12.9260   -5.8620   -3.4650 ca        1 Q13     -0.195300
     23 C04        12.4700   -4.5790   -3.8250 ca        1 Q13      0.015700
     24 C05        11.1620   -4.2150   -3.4920 ca        1 Q13     -0.191300
     25 C07        13.3690   -3.6600   -4.5570 c3        1 Q13     -0.088800
     26 H1         -0.3250    2.0240   -1.7350 hn        1 Q13      0.480133
     27 H2         -0.6810    0.3840   -1.6940 hn        1 Q13      0.480133
     28 H3          0.5940    2.3550    0.4610 ha        1 Q13      0.187000
     29 H4          2.4670    3.1670    2.0970 hc        1 Q13      0.086367
     30 H5          1.8190    1.7340    2.9990 hc        1 Q13      0.086367
     31 H6          3.6040    1.8900    2.7120 hc        1 Q13      0.086367
     32 H7          4.2130    0.0880    1.2270 ha        1 Q13      0.176000
     33 H8          3.9110   -1.8520   -2.0330 h1        1 Q13      0.096700
     34 H9          3.8820   -2.3360   -0.2570 h1        1 Q13      0.096700
     35 H10         5.7020   -1.0940   -2.8560 h1        1 Q13      0.098700
     36 H11         6.9810    1.1110   -2.7370 hc        1 Q13      0.070700
     37 H12         5.2910    1.2280   -2.0980 hc        1 Q13      0.070700
     38 H13         6.6740    1.1700   -0.9410 hc        1 Q13      0.070700
     39 H14         8.2580   -0.8860   -2.5750 hx        1 Q13      0.130700
     40 H15         7.5800   -1.5310    0.2580 hn        1 Q13      0.471800
     41 H16         9.0980   -1.7230   -0.4310 hn        1 Q13      0.471800
     42 H18         6.8710   -3.4520   -1.4290 h1        1 Q13      0.082200
     43 H19         7.0590   -2.9930   -3.1980 h1        1 Q13      0.082200
     44 H20         8.4750   -5.3770   -1.6560 h1        1 Q13      0.084200
     45 H21         8.2890   -4.9620   -3.4410 h1        1 Q13      0.084200
     46 H22        13.4920   -8.1140   -2.4320 hn        1 Q13      0.480467
     47 H23        12.0780   -8.7450   -3.0780 hn        1 Q13      0.480467
     48 H24        13.9510   -6.1700   -3.7280 ha        1 Q13      0.186000
     49 H25        10.7650   -3.2250   -3.7660 ha        1 Q13      0.175000
     50 H26        14.3620   -3.5850   -4.0430 hc        1 Q13      0.085367
     51 H27        13.5470   -4.0440   -5.5960 hc        1 Q13      0.085367
     52 H28        12.9310   -2.6350   -4.6340 hc        1 Q13      0.085367
     53 H223        0.3050    0.9950   -2.9000 hn        1 Q13      0.480133
     54 H123        8.4010   -0.1960   -0.3220 hn        1 Q13      0.471800
     55 H023       12.1370   -8.3130   -1.4630 hn        1 Q13      0.480467
@<TRIPOS>BOND
     1    1    2 1   
     2    1   26 1   
     3    1   27 1   
     4    1   53 1   
     5    2    3 ar  
     6    2    7 ar  
     7    3    4 ar  
     8    3   28 1   
     9    4    5 1   
    10    4    6 ar  
    11    5   29 1   
    12    5   30 1   
    13    5   31 1   
    14    6    8 ar  
    15    6   32 1   
    16    7    8 ar  
    17    8    9 1   
    18    9   10 1   
    19    9   33 1   
    20    9   34 1   
    21   10   11 1   
    22   11   12 1   
    23   11   13 1   
    24   11   35 1   
    25   12   36 1   
    26   12   37 1   
    27   12   38 1   
    28   13   14 1   
    29   13   15 1   
    30   13   39 1   
    31   14   40 1   
    32   14   41 1   
    33   14   54 1   
    34   15   16 1   
    35   15   42 1   
    36   15   43 1   
    37   16   17 1   
    38   17   18 1   
    39   17   44 1   
    40   17   45 1   
    41   18   19 ar  
    42   18   24 ar  
    43   19   20 ar  
    44   20   21 1   
    45   20   22 ar  
    46   21   46 1   
    47   21   47 1   
    48   21   55 1   
    49   22   23 ar  
    50   22   48 1   
    51   23   24 ar  
    52   23   25 1   
    53   24   49 1   
    54   25   50 1   
    55   25   51 1   
    56   25   52 1   
@<TRIPOS>SUBSTRUCTURE
     1 Q13         1 TEMP              0 ****  ****    0 ROOT
