@<TRIPOS>MOLECULE
Q13
   53    54     1     0     0
SMALL
bcc


@<TRIPOS>ATOM
      1 N22         5.0070   -3.2190   -0.3640 nh        1 Q13     -0.931500
      2 C22         4.6250   -1.9010   -0.0290 ca        1 Q13      0.620200
      3 C23         3.7700   -1.6840    1.0930 ca        1 Q13     -0.281300
      4 C24         3.4530   -0.3790    1.4630 ca        1 Q13      0.018700
      5 C27         2.5650   -0.1080    2.6150 c3        1 Q13     -0.074800
      6 C25         3.9800    0.6820    0.7110 ca        1 Q13     -0.267300
      7 N21         5.1500   -0.8640   -0.7520 nb        1 Q13     -0.796000
      8 C26         4.8150    0.3930   -0.3820 ca        1 Q13      0.399600
      9 C16         5.3100    1.5720   -1.1890 c3        1 Q13      0.079100
     10 O15         6.5950    1.3830   -1.7640 os        1 Q13     -0.435600
     11 C13         6.6050    0.6970   -3.0230 c3        1 Q13      0.130100
     12 C14         6.6790    1.7260   -4.1360 c3        1 Q13     -0.123100
     13 C11         7.8790   -0.1850   -3.0120 c3        1 Q13      0.107500
     14 N12         8.0510   -0.9080   -1.7130 n4        1 Q13     -0.816600
     15 C10         7.8560   -1.1810   -4.1860 c3        1 Q13      0.113400
     16 O09         9.1780   -1.6920   -4.2980 os        1 Q13     -0.420600
     17 C08         9.2680   -3.0670   -4.6530 c3        1 Q13      0.077100
     18 C06         9.4360   -3.9750   -3.4540 ca        1 Q13      0.411600
     19 N01         8.7640   -3.7030   -2.3120 nb        1 Q13     -0.813000
     20 C02         8.9700   -4.5320   -1.2400 ca        1 Q13      0.633200
     21 N02         8.3920   -4.1890   -0.0060 nh        1 Q13     -0.935500
     22 C03         9.8240   -5.6740   -1.3230 ca        1 Q13     -0.287300
     23 C04        10.4840   -5.9430   -2.5180 ca        1 Q13      0.020700
     24 C05        10.2920   -5.0760   -3.6060 ca        1 Q13     -0.272300
     25 C07        11.3830   -7.1120   -2.6480 c3        1 Q13     -0.073800
     26 H1          5.1880   -3.3680   -1.3350 hn        1 Q13      0.400800
     27 H2          4.3850   -3.9030    0.0140 hn        1 Q13      0.400800
     28 H3          3.3670   -2.5350    1.6610 ha        1 Q13      0.158000
     29 H4          1.5480    0.1870    2.2480 hc        1 Q13      0.064700
     30 H5          2.9690    0.7320    3.2340 hc        1 Q13      0.064700
     31 H6          2.4550   -1.0100    3.2660 hc        1 Q13      0.064700
     32 H7          3.7400    1.7220    0.9730 ha        1 Q13      0.159000
     33 H8          5.4620    2.4560   -0.5060 h1        1 Q13      0.084200
     34 H9          4.5510    1.8230   -1.9780 h1        1 Q13      0.084200
     35 H10         5.6930    0.0520   -3.1450 h1        1 Q13      0.081700
     36 H11         7.6190    2.3240   -4.0640 hc        1 Q13      0.064033
     37 H12         5.8130    2.4270   -4.0430 hc        1 Q13      0.064033
     38 H13         6.6340    1.2310   -5.1340 hc        1 Q13      0.064033
     39 H14         8.7840    0.4890   -3.1240 hx        1 Q13      0.121700
     40 H15         7.8900   -0.2520   -0.9400 hn        1 Q13      0.468800
     41 H16         7.3730   -1.6760   -1.6430 hn        1 Q13      0.468800
     42 H18         7.0950   -1.9880   -4.0290 h1        1 Q13      0.074700
     43 H19         7.6260   -0.6200   -5.1320 h1        1 Q13      0.074700
     44 H20         8.3830   -3.3980   -5.2570 h1        1 Q13      0.080700
     45 H21        10.2000   -3.1130   -5.2860 h1        1 Q13      0.080700
     46 H22         7.5210   -3.7090   -0.0450 hn        1 Q13      0.408800
     47 H23         8.4030   -4.9340    0.6570 hn        1 Q13      0.408800
     48 H24         9.9660   -6.3270   -0.4500 ha        1 Q13      0.157000
     49 H25        10.8100   -5.2590   -4.5580 ha        1 Q13      0.157000
     50 H26        11.2720   -7.8110   -1.7840 hc        1 Q13      0.063700
     51 H27        11.1620   -7.6720   -3.5910 hc        1 Q13      0.063700
     52 H28        12.4480   -6.7670   -2.6880 hc        1 Q13      0.063700
     53 H123        8.9980   -1.2970   -1.6680 hn        1 Q13      0.468800
@<TRIPOS>BOND
     1    1    2 1   
     2    1   26 1   
     3    1   27 1   
     4    2    3 ar  
     5    2    7 ar  
     6    3    4 ar  
     7    3   28 1   
     8    4    5 1   
     9    4    6 ar  
    10    5   29 1   
    11    5   30 1   
    12    5   31 1   
    13    6    8 ar  
    14    6   32 1   
    15    7    8 ar  
    16    8    9 1   
    17    9   10 1   
    18    9   33 1   
    19    9   34 1   
    20   10   11 1   
    21   11   12 1   
    22   11   13 1   
    23   11   35 1   
    24   12   36 1   
    25   12   37 1   
    26   12   38 1   
    27   13   14 1   
    28   13   15 1   
    29   13   39 1   
    30   14   40 1   
    31   14   41 1   
    32   14   53 1   
    33   15   16 1   
    34   15   42 1   
    35   15   43 1   
    36   16   17 1   
    37   17   18 1   
    38   17   44 1   
    39   17   45 1   
    40   18   19 ar  
    41   18   24 ar  
    42   19   20 ar  
    43   20   21 1   
    44   20   22 ar  
    45   21   46 1   
    46   21   47 1   
    47   22   23 ar  
    48   22   48 1   
    49   23   24 ar  
    50   23   25 1   
    51   24   49 1   
    52   25   50 1   
    53   25   51 1   
    54   25   52 1   
@<TRIPOS>SUBSTRUCTURE
     1 Q13         1 TEMP              0 ****  ****    0 ROOT
