@<TRIPOS>MOLECULE
Q13
   52    53     1     0     0
SMALL
bcc


@<TRIPOS>ATOM
      1 N22         6.9610    1.8580   -1.5370 nh        1 Q13     -0.922500
      2 C22         5.9960    1.3100   -0.6740 ca        1 Q13      0.630200
      3 C23         5.7740    1.9250    0.5960 ca        1 Q13     -0.295300
      4 C24         4.7490    1.4480    1.4080 ca        1 Q13     -0.010300
      5 C27         4.4700    2.0740    2.7210 c3        1 Q13     -0.060800
      6 C25         3.9740    0.3700    0.9610 ca        1 Q13     -0.266300
      7 N21         5.2480    0.2470   -1.1060 nb        1 Q13     -0.732000
      8 C26         4.2580   -0.1920   -0.2960 ca        1 Q13      0.439600
      9 C16         3.4590   -1.3790   -0.7840 c3        1 Q13      0.079100
     10 O15         2.2090   -1.3770   -0.0950 os        1 Q13     -0.433600
     11 C13         1.2520   -2.2700   -0.6730 c3        1 Q13      0.097100
     12 C14         1.6780   -3.7150   -0.5040 c3        1 Q13     -0.131100
     13 C11        -0.0920   -1.9820    0.0520 c3        1 Q13      0.173500
     14 N12        -0.0730   -2.1830    1.4840 n3        1 Q13     -0.885800
     15 C10        -0.5410   -0.5580   -0.3340 c3        1 Q13      0.140400
     16 O09        -1.9610   -0.5390   -0.2160 os        1 Q13     -0.417600
     17 C08        -2.4910    0.7700   -0.4280 c3        1 Q13      0.078100
     18 C06        -3.9930    0.6830   -0.2950 ca        1 Q13      0.439600
     19 N01        -4.7190    1.6370   -0.9210 nb        1 Q13     -0.731000
     20 C02        -6.0810    1.5820   -0.7930 ca        1 Q13      0.622200
     21 N02        -6.8720    2.4940   -1.5180 nh        1 Q13     -0.920500
     22 C03        -6.7280    0.5810   -0.0070 ca        1 Q13     -0.294300
     23 C04        -5.9520   -0.3850    0.6290 ca        1 Q13     -0.014300
     24 C05        -4.5590   -0.3390    0.4880 ca        1 Q13     -0.260300
     25 C07        -6.5860   -1.4550    1.4350 c3        1 Q13     -0.059800
     26 H1          7.7450    2.2430   -1.0590 hn        1 Q13      0.400300
     27 H2          7.2070    1.2970   -2.3230 hn        1 Q13      0.400300
     28 H3          6.3940    2.7720    0.9200 ha        1 Q13      0.142000
     29 H4          3.6200    2.7960    2.6220 hc        1 Q13      0.049700
     30 H5          4.1840    1.3000    3.4750 hc        1 Q13      0.049700
     31 H6          5.3600    2.6310    3.1020 hc        1 Q13      0.049700
     32 H7          3.1540   -0.0310    1.5710 ha        1 Q13      0.156000
     33 H8          3.2870   -1.3270   -1.8930 h1        1 Q13      0.052200
     34 H9          4.0100   -2.3260   -0.5360 h1        1 Q13      0.052200
     35 H10         1.1360   -2.0350   -1.7680 h1        1 Q13      0.048700
     36 H11         2.4880   -3.9660   -1.2320 hc        1 Q13      0.046367
     37 H12         2.0690   -3.8960    0.5260 hc        1 Q13      0.046367
     38 H13         0.8110   -4.3930   -0.6880 hc        1 Q13      0.046367
     39 H14        -0.8490   -2.7080   -0.3740 h1        1 Q13      0.081700
     40 H15         0.2800   -3.0970    1.6940 hn        1 Q13      0.349800
     41 H16         0.5150   -1.5010    1.9250 hn        1 Q13      0.349800
     42 H18        -0.0780    0.2170    0.3310 h1        1 Q13      0.037200
     43 H19        -0.2580   -0.3420   -1.3990 h1        1 Q13      0.037200
     44 H20        -2.0890    1.4710    0.3540 h1        1 Q13      0.048700
     45 H21        -2.1870    1.1350   -1.4460 h1        1 Q13      0.048700
     46 H22        -6.3820    3.2730   -1.9020 hn        1 Q13      0.396300
     47 H23        -7.7070    2.7510   -1.0390 hn        1 Q13      0.396300
     48 H24        -7.8220    0.5660    0.0850 ha        1 Q13      0.140000
     49 H25        -3.9110   -1.0850    0.9700 ha        1 Q13      0.167000
     50 H26        -6.6960   -2.3790    0.8130 hc        1 Q13      0.049033
     51 H27        -5.9570   -1.7050    2.3240 hc        1 Q13      0.049033
     52 H28        -7.6000   -1.1470    1.7890 hc        1 Q13      0.049033
@<TRIPOS>BOND
     1    1    2 1   
     2    1   26 1   
     3    1   27 1   
     4    2    3 ar  
     5    2    7 ar  
     6    3    4 ar  
     7    3   28 1   
     8    4    5 1   
     9    4    6 ar  
    10    5   29 1   
    11    5   30 1   
    12    5   31 1   
    13    6    8 ar  
    14    6   32 1   
    15    7    8 ar  
    16    8    9 1   
    17    9   10 1   
    18    9   33 1   
    19    9   34 1   
    20   10   11 1   
    21   11   12 1   
    22   11   13 1   
    23   11   35 1   
    24   12   36 1   
    25   12   37 1   
    26   12   38 1   
    27   13   14 1   
    28   13   15 1   
    29   13   39 1   
    30   14   40 1   
    31   14   41 1   
    32   15   16 1   
    33   15   42 1   
    34   15   43 1   
    35   16   17 1   
    36   17   18 1   
    37   17   44 1   
    38   17   45 1   
    39   18   19 ar  
    40   18   24 ar  
    41   19   20 ar  
    42   20   21 1   
    43   20   22 ar  
    44   21   46 1   
    45   21   47 1   
    46   22   23 ar  
    47   22   48 1   
    48   23   24 ar  
    49   23   25 1   
    50   24   49 1   
    51   25   50 1   
    52   25   51 1   
    53   25   52 1   
@<TRIPOS>SUBSTRUCTURE
     1 Q13         1 TEMP              0 ****  ****    0 ROOT
