@<TRIPOS>MOLECULE
Q14
   55    56     1     0     0
SMALL
bcc


@<TRIPOS>ATOM
      1 N22        -0.0230   -0.3070    0.8670 n4        1 Q14     -0.820300
      2 C22         1.4200   -0.5200    0.6090 ca        1 Q14      0.461200
      3 C23         2.1430   -1.3860    1.4520 ca        1 Q14     -0.196300
      4 C24         3.5180   -1.5500    1.1950 ca        1 Q14      0.015700
      5 C27         4.3230   -2.4440    2.0550 c3        1 Q14     -0.089800
      6 C25         4.0890   -0.8450    0.1310 ca        1 Q14     -0.189300
      7 N21         1.9570    0.1630   -0.4420 nb        1 Q14     -0.658000
      8 C26         3.2800    0.0020   -0.6600 ca        1 Q14      0.426600
      9 C28         3.9040    0.8230   -1.7670 c3        1 Q14      0.078100
     10 O29         4.9230    0.0200   -2.3800 os        1 Q14     -0.459600
     11 C12         5.7080    0.7330   -3.3420 c3        1 Q14      0.134100
     12 C13         6.3780   -0.3630   -4.1970 c3        1 Q14      0.093800
     13 N14         5.4030   -1.2630   -4.8730 n4        1 Q14     -0.833600
     14 C11         6.7940    1.5750   -2.6790 c3        1 Q14     -0.120400
     15 C10         7.2270    2.7230   -3.5790 c3        1 Q14      0.134400
     16 O09         8.3790    3.3010   -2.9650 os        1 Q14     -0.425600
     17 C08         8.7840    4.5020   -3.6320 c3        1 Q14      0.075100
     18 C06        10.0720    4.9820   -3.0010 ca        1 Q14      0.442600
     19 N01        10.7300    5.9700   -3.6470 nb        1 Q14     -0.665000
     20 C02        11.8750    6.4270   -3.0690 ca        1 Q14      0.458200
     21 N02        12.5780    7.5180   -3.7850 n4        1 Q14     -0.818300
     22 C03        12.4140    5.9400   -1.8640 ca        1 Q14     -0.202300
     23 C05        10.5340    4.4280   -1.7840 ca        1 Q14     -0.182300
     24 C04        11.7140    4.9070   -1.2110 ca        1 Q14      0.007700
     25 C07        12.2380    4.3600    0.0600 c3        1 Q14     -0.084800
     26 H1         -0.5410   -0.1900   -0.0150 hn        1 Q14      0.480133
     27 H2         -0.1430    0.5420    1.4360 hn        1 Q14      0.480133
     28 H3          1.6760   -1.9270    2.2920 ha        1 Q14      0.186000
     29 H4          3.8500   -3.4580    2.1220 hc        1 Q14      0.085700
     30 H5          5.3620   -2.5640    1.6600 hc        1 Q14      0.085700
     31 H6          4.3880   -2.0240    3.0930 hc        1 Q14      0.085700
     32 H7          5.1630   -0.9390   -0.0970 ha        1 Q14      0.181000
     33 H8          4.3600    1.7460   -1.3150 h1        1 Q14      0.080200
     34 H9          3.1530    1.1170   -2.5510 h1        1 Q14      0.080200
     35 H10         5.0370    1.3810   -3.9750 h1        1 Q14      0.072700
     36 H11         7.0280   -1.0060   -3.5320 hx        1 Q14      0.128200
     37 H12         7.0210    0.1290   -4.9830 hx        1 Q14      0.128200
     38 H13         4.7610   -1.6560   -4.1710 hn        1 Q14      0.471133
     39 H14         4.8530   -0.7470   -5.5680 hn        1 Q14      0.471133
     40 H16         6.4060    1.9900   -1.7110 hc        1 Q14      0.089200
     41 H17         7.6840    0.9430   -2.4200 hc        1 Q14      0.089200
     42 H18         7.5030    2.3550   -4.6040 h1        1 Q14      0.041200
     43 H19         6.4130    3.4910   -3.6700 h1        1 Q14      0.041200
     44 H20         7.9870    5.2850   -3.4980 h1        1 Q14      0.075700
     45 H21         8.9310    4.2930   -4.7270 h1        1 Q14      0.075700
     46 H22        12.8020    7.2230   -4.7450 hn        1 Q14      0.477467
     47 H23        13.4440    7.7470   -3.2860 hn        1 Q14      0.477467
     48 H24        13.3450    6.3320   -1.4240 ha        1 Q14      0.180000
     49 H25         9.9580    3.6220   -1.3010 ha        1 Q14      0.185000
     50 H26        12.2790    5.1630    0.8400 hc        1 Q14      0.080367
     51 H27        11.5940    3.5300    0.4420 hc        1 Q14      0.080367
     52 H28        13.2760    3.9640   -0.0850 hc        1 Q14      0.080367
     53 H223       -0.3980   -1.1160    1.3770 hn        1 Q14      0.480133
     54 H143        5.8990   -2.0290   -5.3440 hn        1 Q14      0.471133
     55 H023       11.9760    8.3520   -3.8280 hn        1 Q14      0.477467
@<TRIPOS>BOND
     1    1    2 1   
     2    1   26 1   
     3    1   27 1   
     4    1   53 1   
     5    2    3 ar  
     6    2    7 ar  
     7    3    4 ar  
     8    3   28 1   
     9    4    5 1   
    10    4    6 ar  
    11    5   29 1   
    12    5   30 1   
    13    5   31 1   
    14    6    8 ar  
    15    6   32 1   
    16    7    8 ar  
    17    8    9 1   
    18    9   10 1   
    19    9   33 1   
    20    9   34 1   
    21   10   11 1   
    22   11   12 1   
    23   11   14 1   
    24   11   35 1   
    25   12   13 1   
    26   12   36 1   
    27   12   37 1   
    28   13   38 1   
    29   13   39 1   
    30   13   54 1   
    31   14   15 1   
    32   14   40 1   
    33   14   41 1   
    34   15   16 1   
    35   15   42 1   
    36   15   43 1   
    37   16   17 1   
    38   17   18 1   
    39   17   44 1   
    40   17   45 1   
    41   18   19 ar  
    42   18   23 ar  
    43   19   20 ar  
    44   20   21 1   
    45   20   22 ar  
    46   21   46 1   
    47   21   47 1   
    48   21   55 1   
    49   22   24 ar  
    50   22   48 1   
    51   23   24 ar  
    52   23   49 1   
    53   24   25 1   
    54   25   50 1   
    55   25   51 1   
    56   25   52 1   
@<TRIPOS>SUBSTRUCTURE
     1 Q14         1 TEMP              0 ****  ****    0 ROOT
