@<TRIPOS>MOLECULE
Q14
   52    53     1     0     0
SMALL
bcc


@<TRIPOS>ATOM
      1 N22         6.0840    2.3730    1.6760 nh        1 Q14     -0.920500
      2 C22         5.2500    1.7900    0.7030 ca        1 Q14      0.624200
      3 C23         4.7880    2.5940   -0.3820 ca        1 Q14     -0.296300
      4 C24         3.8810    2.0500   -1.2880 ca        1 Q14     -0.013300
      5 C27         3.3590    2.8620   -2.4120 c3        1 Q14     -0.059800
      6 C25         3.4610    0.7260   -1.1150 ca        1 Q14     -0.267300
      7 N21         4.8490    0.4900    0.8670 nb        1 Q14     -0.729000
      8 C26         3.9690   -0.0090   -0.0280 ca        1 Q14      0.432600
      9 C28         3.5520   -1.4550    0.1350 c3        1 Q14      0.084100
     10 O29         2.2010   -1.5660   -0.3150 os        1 Q14     -0.426600
     11 C12         1.4310   -2.5420    0.3880 c3        1 Q14      0.149100
     12 C13         1.7960   -3.9630   -0.0890 c3        1 Q14      0.125800
     13 N14         3.0190   -4.4600    0.4900 n3        1 Q14     -0.921800
     14 C11        -0.0280   -2.2510    0.0460 c3        1 Q14     -0.083400
     15 C10        -0.4480   -0.9030    0.6040 c3        1 Q14      0.132400
     16 O09        -1.8270   -0.7410    0.2670 os        1 Q14     -0.431600
     17 C08        -2.3260    0.5260    0.6950 c3        1 Q14      0.079100
     18 C06        -3.7960    0.5890    0.3480 ca        1 Q14      0.441600
     19 N01        -4.5270    1.5310    0.9860 nb        1 Q14     -0.732000
     20 C02        -5.8590    1.6170    0.6780 ca        1 Q14      0.626200
     21 N02        -6.6690    2.5120    1.4010 nh        1 Q14     -0.921500
     22 C03        -6.4650    0.7730   -0.3010 ca        1 Q14     -0.296300
     23 C05        -4.3250   -0.2820   -0.6190 ca        1 Q14     -0.263300
     24 C04        -5.6840   -0.1840   -0.9440 ca        1 Q14     -0.013300
     25 C07        -6.2790   -1.0950   -1.9490 c3        1 Q14     -0.059800
     26 H1          6.5230    1.7330    2.3030 hn        1 Q14      0.397300
     27 H2          6.7100    3.0490    1.2990 hn        1 Q14      0.397300
     28 H3          5.1330    3.6310   -0.4930 ha        1 Q14      0.140000
     29 H4          3.1780    2.2240   -3.3120 hc        1 Q14      0.048367
     30 H5          2.3880    3.3340   -2.1160 hc        1 Q14      0.048367
     31 H6          4.0740    3.6740   -2.6890 hc        1 Q14      0.048367
     32 H7          2.7420    0.2600   -1.8020 ha        1 Q14      0.157000
     33 H8          4.1900   -2.1000   -0.5290 h1        1 Q14      0.064200
     34 H9          3.6580   -1.7990    1.1980 h1        1 Q14      0.064200
     35 H10         1.5940   -2.4350    1.4970 h1        1 Q14      0.044700
     36 H11         0.9120   -4.6330    0.1240 h1        1 Q14      0.038200
     37 H12         1.9330   -3.9260   -1.2070 h1        1 Q14      0.038200
     38 H13         2.9510   -4.5170    1.4870 hn        1 Q14      0.351800
     39 H14         3.2390   -5.3640    0.1210 hn        1 Q14      0.351800
     40 H16        -0.1650   -2.2530   -1.0660 hc        1 Q14      0.063200
     41 H17        -0.6770   -3.0550    0.4770 hc        1 Q14      0.063200
     42 H18        -0.3300   -0.8730    1.7200 h1        1 Q14      0.038700
     43 H19         0.1600   -0.0790    0.1450 h1        1 Q14      0.038700
     44 H20        -2.1650    0.6390    1.8010 h1        1 Q14      0.050700
     45 H21        -1.7780    1.3450    0.1530 h1        1 Q14      0.050700
     46 H22        -6.1810    3.1960    1.9380 hn        1 Q14      0.397300
     47 H23        -7.4130    2.8910    0.8590 hn        1 Q14      0.397300
     48 H24        -7.5340    0.8690   -0.5340 ha        1 Q14      0.140000
     49 H25        -3.6790   -1.0280   -1.1020 ha        1 Q14      0.161000
     50 H26        -5.5630   -1.2810   -2.7870 hc        1 Q14      0.048700
     51 H27        -6.5210   -2.0780   -1.4710 hc        1 Q14      0.048700
     52 H28        -7.2220   -0.6690   -2.3740 hc        1 Q14      0.048700
@<TRIPOS>BOND
     1    1    2 1   
     2    1   26 1   
     3    1   27 1   
     4    2    3 ar  
     5    2    7 ar  
     6    3    4 ar  
     7    3   28 1   
     8    4    5 1   
     9    4    6 ar  
    10    5   29 1   
    11    5   30 1   
    12    5   31 1   
    13    6    8 ar  
    14    6   32 1   
    15    7    8 ar  
    16    8    9 1   
    17    9   10 1   
    18    9   33 1   
    19    9   34 1   
    20   10   11 1   
    21   11   12 1   
    22   11   14 1   
    23   11   35 1   
    24   12   13 1   
    25   12   36 1   
    26   12   37 1   
    27   13   38 1   
    28   13   39 1   
    29   14   15 1   
    30   14   40 1   
    31   14   41 1   
    32   15   16 1   
    33   15   42 1   
    34   15   43 1   
    35   16   17 1   
    36   17   18 1   
    37   17   44 1   
    38   17   45 1   
    39   18   19 ar  
    40   18   23 ar  
    41   19   20 ar  
    42   20   21 1   
    43   20   22 ar  
    44   21   46 1   
    45   21   47 1   
    46   22   24 ar  
    47   22   48 1   
    48   23   24 ar  
    49   23   49 1   
    50   24   25 1   
    51   25   50 1   
    52   25   51 1   
    53   25   52 1   
@<TRIPOS>SUBSTRUCTURE
     1 Q14         1 TEMP              0 ****  ****    0 ROOT
