@<TRIPOS>MOLECULE
Q14
   53    54     1     0     0
SMALL
bcc


@<TRIPOS>ATOM
      1 N22         1.7830   -1.9290   -2.2110 nv        1 Q14     -0.931500
      2 C22         2.1800   -1.0280   -1.2040 ca        1 Q14      0.638200
      3 C23         1.2510   -0.6320   -0.1970 ca        1 Q14     -0.282300
      4 C24         1.6810    0.1930    0.8390 ca        1 Q14      0.030700
      5 C27         0.7490    0.6360    1.9000 c3        1 Q14     -0.077800
      6 C25         3.0210    0.6130    0.8560 ca        1 Q14     -0.268300
      7 N21         3.4880   -0.6190   -1.1790 nb        1 Q14     -0.828000
      8 C26         3.8860    0.1820   -0.1630 ca        1 Q14      0.414600
      9 C28         5.3080    0.6940   -0.0920 c3        1 Q14      0.072100
     10 O29         6.2710   -0.1250   -0.7380 os        1 Q14     -0.427600
     11 C12         6.4200    0.0960   -2.1430 c3        1 Q14      0.131100
     12 C13         6.5190   -1.2990   -2.8050 c3        1 Q14      0.094800
     13 N14         5.5260   -2.2540   -2.2540 nz        1 Q14     -0.859600
     14 C11         7.7140    0.8500   -2.4190 c3        1 Q14     -0.110400
     15 C10         7.5460    2.3390   -2.1650 c3        1 Q14      0.136400
     16 O09         8.7650    2.9430   -2.5780 os        1 Q14     -0.417600
     17 C08         8.7810    4.3510   -2.3110 c3        1 Q14      0.079100
     18 C06        10.1740    4.8460   -2.6220 ca        1 Q14      0.435600
     19 N01        10.7130    5.7400   -1.7650 nb        1 Q14     -0.732000
     20 C02        11.9510    6.2420   -2.0740 ca        1 Q14      0.645200
     21 N02        12.4880    7.2590   -1.2770 nv        1 Q14     -0.930500
     22 C03        12.6750    5.8080   -3.2300 ca        1 Q14     -0.293300
     23 C05        10.8170    4.3810   -3.7800 ca        1 Q14     -0.273300
     24 C04        12.0950    4.8720   -4.0810 ca        1 Q14     -0.004300
     25 C07        12.8070    4.4150   -5.2970 c3        1 Q14     -0.062800
     26 H1          2.1660   -1.7560   -3.1150 hn        1 Q14      0.406300
     27 H2          0.7950   -2.0790   -2.2340 hn        1 Q14      0.406300
     28 H3          0.2070   -0.9780   -0.2350 ha        1 Q14      0.163000
     29 H4          1.2270    0.5400    2.9070 hc        1 Q14      0.068367
     30 H5          0.4800    1.7120    1.7420 hc        1 Q14      0.068367
     31 H6         -0.1930    0.0330    1.8940 hc        1 Q14      0.068367
     32 H7          3.3870    1.2680    1.6590 ha        1 Q14      0.163000
     33 H8          5.3370    1.7430   -0.4950 h1        1 Q14      0.088200
     34 H9          5.6470    0.6880    0.9840 h1        1 Q14      0.088200
     35 H10         5.5360    0.6520   -2.5620 h1        1 Q14      0.078700
     36 H11         7.5510   -1.7220   -2.6390 hx        1 Q14      0.105700
     37 H12         6.3410   -1.1850   -3.9110 hx        1 Q14      0.105700
     38 H13         5.8600   -2.6050   -1.3520 hn        1 Q14      0.470133
     39 H14         5.3740   -3.0340   -2.8910 hn        1 Q14      0.470133
     40 H16         8.5330    0.4560   -1.7610 hc        1 Q14      0.081200
     41 H17         8.0230    0.6920   -3.4860 hc        1 Q14      0.081200
     42 H18         7.3630    2.5360   -1.0750 h1        1 Q14      0.030200
     43 H19         6.6930    2.7600   -2.7630 h1        1 Q14      0.030200
     44 H20         8.0460    4.8590   -2.9920 h1        1 Q14      0.052200
     45 H21         8.4940    4.5370   -1.2420 h1        1 Q14      0.052200
     46 H22        13.4810    7.2990   -1.2740 hn        1 Q14      0.411300
     47 H23        12.0610    7.4070   -0.3900 hn        1 Q14      0.411300
     48 H24        13.6710    6.2160   -3.4470 ha        1 Q14      0.148000
     49 H25        10.3270    3.6390   -4.4230 ha        1 Q14      0.147000
     50 H26        12.5190    5.0580   -6.1670 hc        1 Q14      0.052033
     51 H27        13.9150    4.4820   -5.1630 hc        1 Q14      0.052033
     52 H28        12.5420    3.3570   -5.5390 hc        1 Q14      0.052033
     53 H143        4.6220   -1.7380   -2.0680 hn        1 Q14      0.470133
@<TRIPOS>BOND
     1    1    2 1   
     2    1   26 1   
     3    1   27 1   
     4    2    3 ar  
     5    2    7 ar  
     6    3    4 ar  
     7    3   28 1   
     8    4    5 1   
     9    4    6 ar  
    10    5   29 1   
    11    5   30 1   
    12    5   31 1   
    13    6    8 ar  
    14    6   32 1   
    15    7    8 ar  
    16    8    9 1   
    17    9   10 1   
    18    9   33 1   
    19    9   34 1   
    20   10   11 1   
    21   11   12 1   
    22   11   14 1   
    23   11   35 1   
    24   12   13 1   
    25   12   36 1   
    26   12   37 1   
    27   13   38 1   
    28   13   39 1   
    29   13   53 1   
    30   14   15 1   
    31   14   40 1   
    32   14   41 1   
    33   15   16 1   
    34   15   42 1   
    35   15   43 1   
    36   16   17 1   
    37   17   18 1   
    38   17   44 1   
    39   17   45 1   
    40   18   19 ar  
    41   18   23 ar  
    42   19   20 ar  
    43   20   21 1   
    44   20   22 ar  
    45   21   46 1   
    46   21   47 1   
    47   22   24 ar  
    48   22   48 1   
    49   23   24 ar  
    50   23   49 1   
    51   24   25 1   
    52   25   50 1   
    53   25   51 1   
    54   25   52 1   
@<TRIPOS>SUBSTRUCTURE
     1 Q14         1 TEMP              0 ****  ****    0 ROOT
