@<TRIPOS>MOLECULE
Q14
   53    54     1     0     0
SMALL
bcc


@<TRIPOS>ATOM
      1 N22         1.6210   -0.3680   -1.2080 nh        1 Q14     -0.928500
      2 C22         2.7190    0.1270   -0.4670 ca        1 Q14      0.615200
      3 C23         2.5630    0.4440    0.9140 ca        1 Q14     -0.280300
      4 C24         3.6780    0.8440    1.6490 ca        1 Q14      0.019700
      5 C27         3.5570    1.1990    3.0810 c3        1 Q14     -0.075800
      6 C25         4.9220    0.9180    1.0040 ca        1 Q14     -0.261300
      7 N21         3.9330    0.2030   -1.0940 nb        1 Q14     -0.812000
      8 C26         5.0020    0.5870   -0.3590 ca        1 Q14      0.402600
      9 C28         6.3570    0.7020   -1.0220 c3        1 Q14      0.073100
     10 O29         6.6010   -0.3150   -1.9870 os        1 Q14     -0.432600
     11 C12         6.1630   -0.0170   -3.3150 c3        1 Q14      0.133100
     12 C13         5.5800   -1.3350   -3.8760 c3        1 Q14      0.091800
     13 N14         4.5800   -1.9470   -2.9620 n4        1 Q14     -0.826600
     14 C11         7.3480    0.3790   -4.1870 c3        1 Q14     -0.113400
     15 C10         7.7830    1.8050   -3.8880 c3        1 Q14      0.133400
     16 O09         8.8640    2.0790   -4.7730 os        1 Q14     -0.414600
     17 C08         9.1710    3.4620   -4.9010 c3        1 Q14      0.083100
     18 C06         9.6940    4.0650   -3.6160 ca        1 Q14      0.396600
     19 N01         8.7910    4.5150   -2.7150 nb        1 Q14     -0.742000
     20 C02         9.2710    5.0720   -1.5600 ca        1 Q14      0.622200
     21 N02         8.3580    5.4570   -0.5600 nh        1 Q14     -0.922500
     22 C03        10.6720    5.2000   -1.3080 ca        1 Q14     -0.285300
     23 C05        11.0830    4.1490   -3.4330 ca        1 Q14     -0.265300
     24 C04        11.5770    4.7310   -2.2560 ca        1 Q14     -0.001300
     25 C07        13.0360    4.8540   -2.0400 c3        1 Q14     -0.066800
     26 H1          0.7570   -0.2710   -0.7160 hn        1 Q14      0.399800
     27 H2          1.5610   -0.0160   -2.1400 hn        1 Q14      0.399800
     28 H3          1.5780    0.3720    1.3970 ha        1 Q14      0.160000
     29 H4          4.4370    0.8200    3.6580 hc        1 Q14      0.065700
     30 H5          3.5210    2.3140    3.1910 hc        1 Q14      0.065700
     31 H6          2.6270    0.7720    3.5290 hc        1 Q14      0.065700
     32 H7          5.8190    1.2310    1.5570 ha        1 Q14      0.162000
     33 H8          6.4660    1.7260   -1.4700 h1        1 Q14      0.092700
     34 H9          7.1670    0.5310   -0.2570 h1        1 Q14      0.092700
     35 H10         5.3790    0.7880   -3.3170 h1        1 Q14      0.084700
     36 H11         6.4200   -2.0760   -4.0140 hx        1 Q14      0.109700
     37 H12         5.0910   -1.1320   -4.8690 hx        1 Q14      0.109700
     38 H13         4.9870   -1.9920   -2.0150 hn        1 Q14      0.467133
     39 H14         4.3340   -2.8870   -3.2750 hn        1 Q14      0.467133
     40 H16         8.2100   -0.3140   -3.9990 hc        1 Q14      0.076200
     41 H17         7.0660    0.2950   -5.2690 hc        1 Q14      0.076200
     42 H18         8.1460    1.8860   -2.8280 h1        1 Q14      0.044200
     43 H19         6.9440    2.5300   -4.0530 h1        1 Q14      0.044200
     44 H20         9.9780    3.4740   -5.6850 h1        1 Q14      0.068700
     45 H21         8.2700    4.0220   -5.2710 h1        1 Q14      0.068700
     46 H22         7.4250    5.6150   -0.8720 hn        1 Q14      0.399800
     47 H23         8.7050    6.1880    0.0220 hn        1 Q14      0.399800
     48 H24        11.0300    5.6590   -0.3760 ha        1 Q14      0.149000
     49 H25        11.7720    3.7650   -4.1980 ha        1 Q14      0.151000
     50 H26        13.4380    5.7090   -2.6410 hc        1 Q14      0.056700
     51 H27        13.5620    3.9220   -2.3650 hc        1 Q14      0.056700
     52 H28        13.2740    5.0390   -0.9640 hc        1 Q14      0.056700
     53 H143        3.7330   -1.3670   -2.9160 hn        1 Q14      0.467133
@<TRIPOS>BOND
     1    1    2 1   
     2    1   26 1   
     3    1   27 1   
     4    2    3 ar  
     5    2    7 ar  
     6    3    4 ar  
     7    3   28 1   
     8    4    5 1   
     9    4    6 ar  
    10    5   29 1   
    11    5   30 1   
    12    5   31 1   
    13    6    8 ar  
    14    6   32 1   
    15    7    8 ar  
    16    8    9 1   
    17    9   10 1   
    18    9   33 1   
    19    9   34 1   
    20   10   11 1   
    21   11   12 1   
    22   11   14 1   
    23   11   35 1   
    24   12   13 1   
    25   12   36 1   
    26   12   37 1   
    27   13   38 1   
    28   13   39 1   
    29   13   53 1   
    30   14   15 1   
    31   14   40 1   
    32   14   41 1   
    33   15   16 1   
    34   15   42 1   
    35   15   43 1   
    36   16   17 1   
    37   17   18 1   
    38   17   44 1   
    39   17   45 1   
    40   18   19 ar  
    41   18   23 ar  
    42   19   20 ar  
    43   20   21 1   
    44   20   22 ar  
    45   21   46 1   
    46   21   47 1   
    47   22   24 ar  
    48   22   48 1   
    49   23   24 ar  
    50   23   49 1   
    51   24   25 1   
    52   25   50 1   
    53   25   51 1   
    54   25   52 1   
@<TRIPOS>SUBSTRUCTURE
     1 Q14         1 TEMP              0 ****  ****    0 ROOT
