@<TRIPOS>MOLECULE
Q15
   49    51     1     0     0
SMALL
bcc


@<TRIPOS>ATOM
      1 N02         0.3820    1.1940    0.2720 nh        1 Q15     -0.921500
      2 C02         1.6810    0.6740    0.1360 ca        1 Q15      0.628200
      3 C03         2.3590    0.1920    1.2980 ca        1 Q15     -0.292300
      4 C04         3.6030   -0.4170    1.1510 ca        1 Q15     -0.010300
      5 C07         4.3450   -0.9240    2.3280 c3        1 Q15     -0.060800
      6 N01         2.2300    0.5810   -1.1150 nb        1 Q15     -0.728000
      7 C06         3.4330   -0.0270   -1.2250 ca        1 Q15      0.436600
      8 C05         4.1520   -0.5380   -0.1320 ca        1 Q15     -0.263300
      9 C08         3.9970   -0.1760   -2.6190 c3        1 Q15      0.078100
     10 O09         5.4260   -0.1280   -2.4940 os        1 Q15     -0.329900
     11 C11         6.1290   -0.1980   -3.6800 ca        1 Q15      0.157100
     12 C16         7.5170   -0.0530   -3.5360 ca        1 Q15     -0.190000
     13 C15         8.3190   -0.1260   -4.6850 ca        1 Q15      0.158100
     14 C14         7.7540   -0.3350   -5.9520 ca        1 Q15     -0.237000
     15 C13         6.3720   -0.4730   -6.0610 ca        1 Q15     -0.061000
     16 C12         5.5480   -0.4080   -4.9390 ca        1 Q15     -0.237000
     17 O28         9.6710    0.0230   -4.4460 os        1 Q15     -0.329900
     18 C27        10.5200   -0.0230   -5.6010 c3        1 Q15      0.131400
     19 C24        11.9410    0.1810   -5.0870 c3        1 Q15     -0.069700
     20 C23        12.1790    1.6320   -4.7020 c3        1 Q15     -0.074900
     21 C22        13.6290    1.8480   -4.2750 c3        1 Q15      0.164300
     22 N21        14.5880    1.3810   -5.2570 n3        1 Q15     -0.821200
     23 C26        14.3680    0.0150   -5.6910 c3        1 Q15      0.164300
     24 C25        12.9360   -0.2470   -6.1540 c3        1 Q15     -0.074900
     25 H1          0.2400    1.6760    1.1320 hn        1 Q15      0.399800
     26 H2          0.0260    1.6810   -0.5210 hn        1 Q15      0.399800
     27 H3          1.8990    0.2900    2.2900 ha        1 Q15      0.142000
     28 H4          4.7350   -1.9530    2.1290 hc        1 Q15      0.050367
     29 H5          3.6940   -0.9610    3.2360 hc        1 Q15      0.050367
     30 H6          5.2160   -0.2560    2.5450 hc        1 Q15      0.050367
     31 H7          5.1320   -1.0090   -0.2880 ha        1 Q15      0.159000
     32 H8          3.6930   -1.1740   -3.0360 h1        1 Q15      0.062700
     33 H9          3.6540    0.6470   -3.3010 h1        1 Q15      0.062700
     34 H10         7.9650    0.1130   -2.5480 ha        1 Q15      0.163000
     35 H11         8.3790   -0.3910   -6.8520 ha        1 Q15      0.138000
     36 H12         5.9220   -0.6370   -7.0520 ha        1 Q15      0.133000
     37 H13         4.4630   -0.5220   -5.0540 ha        1 Q15      0.140000
     38 H14        10.2270    0.7880   -6.3170 h1        1 Q15      0.042200
     39 H15        10.4170   -1.0250   -6.0960 h1        1 Q15      0.042200
     40 H16        12.0830   -0.4620   -4.1730 hc        1 Q15      0.066700
     41 H17        11.9370    2.2980   -5.5710 hc        1 Q15      0.051700
     42 H18        11.5020    1.9100   -3.8550 hc        1 Q15      0.051700
     43 H19        13.7760    1.3490   -3.2700 h1        1 Q15      0.028200
     44 H20        13.8080    2.9510   -4.1340 h1        1 Q15      0.028200
     45 H21        15.5200    1.4770   -4.8970 hn        1 Q15      0.362800
     46 H23        15.0700   -0.1780   -6.5510 h1        1 Q15      0.028200
     47 H24        14.6140   -0.7320   -4.8780 h1        1 Q15      0.028200
     48 H25        12.8260   -1.3410   -6.3690 hc        1 Q15      0.051700
     49 H26        12.7350    0.3140   -7.1040 hc        1 Q15      0.051700
@<TRIPOS>BOND
     1    1    2 1   
     2    1   25 1   
     3    1   26 1   
     4    2    3 ar  
     5    2    6 ar  
     6    3    4 ar  
     7    3   27 1   
     8    4    5 1   
     9    4    8 ar  
    10    5   28 1   
    11    5   29 1   
    12    5   30 1   
    13    6    7 ar  
    14    7    8 ar  
    15    7    9 1   
    16    8   31 1   
    17    9   10 1   
    18    9   32 1   
    19    9   33 1   
    20   10   11 1   
    21   11   12 ar  
    22   11   16 ar  
    23   12   13 ar  
    24   12   34 1   
    25   13   14 ar  
    26   13   17 1   
    27   14   15 ar  
    28   14   35 1   
    29   15   16 ar  
    30   15   36 1   
    31   16   37 1   
    32   17   18 1   
    33   18   19 1   
    34   18   38 1   
    35   18   39 1   
    36   19   20 1   
    37   19   24 1   
    38   19   40 1   
    39   20   21 1   
    40   20   41 1   
    41   20   42 1   
    42   21   22 1   
    43   21   43 1   
    44   21   44 1   
    45   22   23 1   
    46   22   45 1   
    47   23   24 1   
    48   23   46 1   
    49   23   47 1   
    50   24   48 1   
    51   24   49 1   
@<TRIPOS>SUBSTRUCTURE
     1 Q15         1 TEMP              0 ****  ****    0 ROOT
