@<TRIPOS>MOLECULE
Q15
   50    52     1     0     0
SMALL
bcc


@<TRIPOS>ATOM
      1 N02         1.0120    1.9010    0.2230 n4        1 Q15     -0.816300
      2 C02         2.1260    0.9360    0.0750 ca        1 Q15      0.440200
      3 C03         2.7220    0.3930    1.2270 ca        1 Q15     -0.210300
      4 C04         3.7790   -0.5170    1.0400 ca        1 Q15     -0.005300
      5 C07         4.4640   -1.1150    2.2070 c3        1 Q15     -0.079800
      6 N01         2.4950    0.6490   -1.2040 nb        1 Q15     -0.668000
      7 C06         3.5070   -0.2280   -1.3620 ca        1 Q15      0.449600
      8 C05         4.1710   -0.8310   -0.2630 ca        1 Q15     -0.169300
      9 C08         3.9210   -0.5900   -2.7730 c3        1 Q15      0.074100
     10 O09         5.2750   -1.0400   -2.6990 os        1 Q15     -0.346900
     11 C11         6.0250   -0.8090   -3.8500 ca        1 Q15      0.123100
     12 C16         7.3810   -0.5470   -3.6380 ca        1 Q15     -0.176000
     13 C15         8.2100   -0.3920   -4.7660 ca        1 Q15      0.163100
     14 C14         7.6830   -0.4820   -6.0630 ca        1 Q15     -0.214000
     15 C13         6.3240   -0.7380   -6.2340 ca        1 Q15     -0.061000
     16 C12         5.4810   -0.9060   -5.1370 ca        1 Q15     -0.219000
     17 O28         9.5300   -0.1440   -4.4690 os        1 Q15     -0.325900
     18 C27        10.4120    0.0070   -5.5930 c3        1 Q15      0.129400
     19 C24        11.7990    0.2540   -5.0110 c3        1 Q15     -0.069700
     20 C23        11.9080    1.6560   -4.4340 c3        1 Q15     -0.075400
     21 C22        13.3290    1.9320   -3.9440 c3        1 Q15      0.165300
     22 N21        14.3330    1.6830   -4.9590 n3        1 Q15     -0.822200
     23 C26        14.2420    0.3690   -5.5630 c3        1 Q15      0.165300
     24 C25        12.8460    0.0480   -6.0950 c3        1 Q15     -0.075400
     25 H1          0.1770    1.5470   -0.2600 hn        1 Q15      0.469800
     26 H2          0.8070    2.0290    1.2180 hn        1 Q15      0.469800
     27 H3          2.3940    0.6520    2.2450 ha        1 Q15      0.166000
     28 H4          3.7980   -1.1330    3.1050 hc        1 Q15      0.076033
     29 H5          5.3770   -0.5150    2.4570 hc        1 Q15      0.076033
     30 H6          4.7880   -2.1630    1.9820 hc        1 Q15      0.076033
     31 H7          4.9980   -1.5380   -0.4570 ha        1 Q15      0.203000
     32 H8          3.2840   -1.4460   -3.1300 h1        1 Q15      0.083200
     33 H9          3.8170    0.2820   -3.4710 h1        1 Q15      0.083200
     34 H10         7.8000   -0.4800   -2.6260 ha        1 Q15      0.162000
     35 H11         8.3270   -0.3570   -6.9440 ha        1 Q15      0.151000
     36 H12         5.9110   -0.8150   -7.2520 ha        1 Q15      0.145000
     37 H13         4.4150   -1.1250   -5.2830 ha        1 Q15      0.137000
     38 H14        10.0730    0.8740   -6.2190 h1        1 Q15      0.046200
     39 H15        10.3980   -0.9350   -6.2020 h1        1 Q15      0.046200
     40 H16        11.9750   -0.4900   -4.1830 hc        1 Q15      0.066700
     41 H17        11.1980    1.7650   -3.5750 hc        1 Q15      0.050950
     42 H18        11.6240    2.4090   -5.2150 hc        1 Q15      0.050950
     43 H19        13.5040    1.3150   -3.0130 h1        1 Q15      0.030950
     44 H20        13.4100    3.0170   -3.6530 h1        1 Q15      0.030950
     45 H21        15.2500    1.8230   -4.5780 hn        1 Q15      0.368800
     46 H23        14.9720    0.3450   -6.4220 h1        1 Q15      0.030950
     47 H24        14.5370   -0.4510   -4.8420 h1        1 Q15      0.030950
     48 H25        12.6140    0.7060   -6.9720 hc        1 Q15      0.050950
     49 H26        12.8330   -1.0150   -6.4470 hc        1 Q15      0.050950
     50 H023        1.2770    2.8030   -0.1940 hn        1 Q15      0.469800
@<TRIPOS>BOND
     1    1    2 1   
     2    1   25 1   
     3    1   26 1   
     4    1   50 1   
     5    2    3 ar  
     6    2    6 ar  
     7    3    4 ar  
     8    3   27 1   
     9    4    5 1   
    10    4    8 ar  
    11    5   28 1   
    12    5   29 1   
    13    5   30 1   
    14    6    7 ar  
    15    7    8 ar  
    16    7    9 1   
    17    8   31 1   
    18    9   10 1   
    19    9   32 1   
    20    9   33 1   
    21   10   11 1   
    22   11   12 ar  
    23   11   16 ar  
    24   12   13 ar  
    25   12   34 1   
    26   13   14 ar  
    27   13   17 1   
    28   14   15 ar  
    29   14   35 1   
    30   15   16 ar  
    31   15   36 1   
    32   16   37 1   
    33   17   18 1   
    34   18   19 1   
    35   18   38 1   
    36   18   39 1   
    37   19   20 1   
    38   19   24 1   
    39   19   40 1   
    40   20   21 1   
    41   20   41 1   
    42   20   42 1   
    43   21   22 1   
    44   21   43 1   
    45   21   44 1   
    46   22   23 1   
    47   22   45 1   
    48   23   24 1   
    49   23   46 1   
    50   23   47 1   
    51   24   48 1   
    52   24   49 1   
@<TRIPOS>SUBSTRUCTURE
     1 Q15         1 TEMP              0 ****  ****    0 ROOT
