@<TRIPOS>MOLECULE
Q15
   49    51     1     0     0
SMALL
bcc


@<TRIPOS>ATOM
      1 N02         7.6760   -0.4610   -1.0490 nh        1 Q15     -0.921500
      2 C02         6.4470    0.0750   -0.6250 ca        1 Q15      0.628200
      3 C03         6.3700    1.4690   -0.3180 ca        1 Q15     -0.292300
      4 C04         5.1840    1.9830    0.1990 ca        1 Q15     -0.010300
      5 C07         5.0640    3.4190    0.5430 c3        1 Q15     -0.060800
      6 N01         5.3800   -0.7660   -0.4510 nb        1 Q15     -0.728000
      7 C06         4.2470   -0.2380    0.0650 ca        1 Q15      0.436600
      8 C05         4.1000    1.1180    0.4020 ca        1 Q15     -0.263300
      9 C08         3.0990   -1.1910    0.3050 c3        1 Q15      0.078100
     10 O09         1.8920   -0.4360    0.1220 os        1 Q15     -0.329900
     11 C11         0.7180   -1.1520    0.2540 ca        1 Q15      0.157100
     12 C16        -0.4420   -0.4120   -0.0220 ca        1 Q15     -0.190000
     13 C15        -1.6860   -1.0500    0.0990 ca        1 Q15      0.158100
     14 C14        -1.7760   -2.3960    0.4830 ca        1 Q15     -0.237000
     15 C13        -0.6050   -3.1030    0.7480 ca        1 Q15     -0.061000
     16 C12         0.6450   -2.4990    0.6390 ca        1 Q15     -0.237000
     17 O28        -2.7690   -0.2440   -0.1910 os        1 Q15     -0.329900
     18 C27        -4.0570   -0.8640   -0.0800 c3        1 Q15      0.131400
     19 C24        -5.0750    0.2120   -0.4440 c3        1 Q15     -0.069700
     20 C23        -5.2230    1.2260    0.6790 c3        1 Q15     -0.074900
     21 C22        -6.3070    2.2480    0.3460 c3        1 Q15      0.164300
     22 N21        -7.5750    1.6390   -0.0070 n3        1 Q15     -0.821200
     23 C26        -7.4730    0.6290   -1.0420 c3        1 Q15      0.164300
     24 C25        -6.4170   -0.4350   -0.7440 c3        1 Q15     -0.074900
     25 H1          7.6360   -1.3840   -1.4240 hn        1 Q15      0.399800
     26 H2          8.2100    0.1710   -1.6020 hn        1 Q15      0.399800
     27 H3          7.2370    2.1230   -0.4800 ha        1 Q15      0.142000
     28 H4          4.0810    3.8240    0.1980 hc        1 Q15      0.050367
     29 H5          5.1250    3.5480    1.6530 hc        1 Q15      0.050367
     30 H6          5.8810    4.0190    0.0730 hc        1 Q15      0.050367
     31 H7          3.1460    1.4860    0.8030 ha        1 Q15      0.159000
     32 H8          3.1120   -2.0540   -0.4120 h1        1 Q15      0.062700
     33 H9          3.1460   -1.5660    1.3630 h1        1 Q15      0.062700
     34 H10        -0.3780    0.6410   -0.3260 ha        1 Q15      0.163000
     35 H11        -2.7480   -2.8970    0.5770 ha        1 Q15      0.138000
     36 H12        -0.6690   -4.1600    1.0500 ha        1 Q15      0.133000
     37 H13         1.5510   -3.0790    0.8560 ha        1 Q15      0.140000
     38 H14        -4.1180   -1.7250   -0.7960 h1        1 Q15      0.042200
     39 H15        -4.2100   -1.2290    0.9690 h1        1 Q15      0.042200
     40 H16        -4.7100    0.7470   -1.3660 hc        1 Q15      0.066700
     41 H17        -5.4800    0.6980    1.6340 hc        1 Q15      0.051700
     42 H18        -4.2500    1.7600    0.8320 hc        1 Q15      0.051700
     43 H19        -6.4890    2.8940    1.2510 h1        1 Q15      0.028200
     44 H20        -5.9160    2.9190   -0.4760 h1        1 Q15      0.028200
     45 H21        -8.2270    2.3480   -0.2870 hn        1 Q15      0.362800
     46 H23        -8.4800    0.1300   -1.1190 h1        1 Q15      0.028200
     47 H24        -7.2380    1.0800   -2.0520 h1        1 Q15      0.028200
     48 H25        -6.3310   -1.1100   -1.6340 hc        1 Q15      0.051700
     49 H26        -6.7400   -1.0570    0.1310 hc        1 Q15      0.051700
@<TRIPOS>BOND
     1    1    2 1   
     2    1   25 1   
     3    1   26 1   
     4    2    3 ar  
     5    2    6 ar  
     6    3    4 ar  
     7    3   27 1   
     8    4    5 1   
     9    4    8 ar  
    10    5   28 1   
    11    5   29 1   
    12    5   30 1   
    13    6    7 ar  
    14    7    8 ar  
    15    7    9 1   
    16    8   31 1   
    17    9   10 1   
    18    9   32 1   
    19    9   33 1   
    20   10   11 1   
    21   11   12 ar  
    22   11   16 ar  
    23   12   13 ar  
    24   12   34 1   
    25   13   14 ar  
    26   13   17 1   
    27   14   15 ar  
    28   14   35 1   
    29   15   16 ar  
    30   15   36 1   
    31   16   37 1   
    32   17   18 1   
    33   18   19 1   
    34   18   38 1   
    35   18   39 1   
    36   19   20 1   
    37   19   24 1   
    38   19   40 1   
    39   20   21 1   
    40   20   41 1   
    41   20   42 1   
    42   21   22 1   
    43   21   43 1   
    44   21   44 1   
    45   22   23 1   
    46   22   45 1   
    47   23   24 1   
    48   23   46 1   
    49   23   47 1   
    50   24   48 1   
    51   24   49 1   
@<TRIPOS>SUBSTRUCTURE
     1 Q15         1 TEMP              0 ****  ****    0 ROOT
