@<TRIPOS>MOLECULE
Q15
   49    51     1     0     0
SMALL
bcc


@<TRIPOS>ATOM
      1 N02         0.3750    1.1550    0.2690 nv        1 Q15     -0.921500
      2 C02         1.6770    0.6420    0.1330 ca        1 Q15      0.628200
      3 C03         2.3580    0.1650    1.2950 ca        1 Q15     -0.292300
      4 C04         3.6050   -0.4370    1.1500 ca        1 Q15     -0.010300
      5 C07         4.3400   -0.9570    2.3250 c3        1 Q15     -0.060800
      6 N01         2.2270    0.5510   -1.1180 nb        1 Q15     -0.728000
      7 C06         3.4330   -0.0500   -1.2270 ca        1 Q15      0.436600
      8 C05         4.1560   -0.5550   -0.1340 ca        1 Q15     -0.263300
      9 C08         3.9990   -0.1940   -2.6210 c3        1 Q15      0.078100
     10 O09         5.4270   -0.1400   -2.4950 os        1 Q15     -0.329900
     11 C11         6.1320   -0.2080   -3.6820 ca        1 Q15      0.157100
     12 C16         7.5190   -0.0580   -3.5360 ca        1 Q15     -0.190000
     13 C15         8.3220   -0.1270   -4.6850 ca        1 Q15      0.158100
     14 C14         7.7580   -0.3380   -5.9520 ca        1 Q15     -0.237000
     15 C13         6.3770   -0.4800   -6.0620 ca        1 Q15     -0.061000
     16 C12         5.5520   -0.4190   -4.9410 ca        1 Q15     -0.237000
     17 O28         9.6730    0.0250   -4.4450 os        1 Q15     -0.329900
     18 C27        10.5230   -0.0170   -5.5990 c3        1 Q15      0.131400
     19 C24        11.9430    0.1910   -5.0850 c3        1 Q15     -0.069700
     20 C23        12.1760    1.6430   -4.6990 c3        1 Q15     -0.074900
     21 C22        13.6260    1.8630   -4.2700 c3        1 Q15      0.164300
     22 N21        14.5870    1.4000   -5.2530 n7        1 Q15     -0.821200
     23 C26        14.3710    0.0340   -5.6870 c3        1 Q15      0.164300
     24 C25        12.9400   -0.2330   -6.1520 c3        1 Q15     -0.074900
     25 H1          0.2310    1.6370    1.1280 hn        1 Q15      0.399800
     26 H2          0.0180    1.6400   -0.5250 hn        1 Q15      0.399800
     27 H3          1.8990    0.2630    2.2880 ha        1 Q15      0.142000
     28 H4          4.2660   -2.0740    2.3540 hc        1 Q15      0.050367
     29 H5          5.4220   -0.6800    2.2650 hc        1 Q15      0.050367
     30 H6          3.9210   -0.5520    3.2790 hc        1 Q15      0.050367
     31 H7          5.1400   -1.0180   -0.2890 ha        1 Q15      0.159000
     32 H8          3.7000   -1.1940   -3.0390 h1        1 Q15      0.062700
     33 H9          3.6520    0.6280   -3.3030 h1        1 Q15      0.062700
     34 H10         7.9660    0.1080   -2.5480 ha        1 Q15      0.163000
     35 H11         8.3840   -0.3910   -6.8520 ha        1 Q15      0.138000
     36 H12         5.9280   -0.6450   -7.0530 ha        1 Q15      0.133000
     37 H13         4.4670   -0.5360   -5.0560 ha        1 Q15      0.140000
     38 H14        10.4230   -1.0180   -6.0960 h1        1 Q15      0.042200
     39 H15        10.2270    0.7940   -6.3150 h1        1 Q15      0.042200
     40 H16        12.0860   -0.4510   -4.1710 hc        1 Q15      0.066700
     41 H17        11.4980    1.9190   -3.8520 hc        1 Q15      0.051700
     42 H18        11.9320    2.3090   -5.5670 hc        1 Q15      0.051700
     43 H19        13.8000    2.9670   -4.1290 h1        1 Q15      0.028200
     44 H20        13.7740    1.3640   -3.2660 h1        1 Q15      0.028200
     45 H21        15.5170    1.4990   -4.8920 hn        1 Q15      0.362800
     46 H23        15.0740   -0.1570   -6.5470 h1        1 Q15      0.028200
     47 H24        14.6180   -0.7130   -4.8740 h1        1 Q15      0.028200
     48 H25        12.8330   -1.3270   -6.3680 hc        1 Q15      0.051700
     49 H26        12.7380    0.3280   -7.1010 hc        1 Q15      0.051700
@<TRIPOS>BOND
     1    1    2 1   
     2    1   25 1   
     3    1   26 1   
     4    2    3 ar  
     5    2    6 ar  
     6    3    4 ar  
     7    3   27 1   
     8    4    5 1   
     9    4    8 ar  
    10    5   28 1   
    11    5   29 1   
    12    5   30 1   
    13    6    7 ar  
    14    7    8 ar  
    15    7    9 1   
    16    8   31 1   
    17    9   10 1   
    18    9   32 1   
    19    9   33 1   
    20   10   11 1   
    21   11   12 ar  
    22   11   16 ar  
    23   12   13 ar  
    24   12   34 1   
    25   13   14 ar  
    26   13   17 1   
    27   14   15 ar  
    28   14   35 1   
    29   15   16 ar  
    30   15   36 1   
    31   16   37 1   
    32   17   18 1   
    33   18   19 1   
    34   18   38 1   
    35   18   39 1   
    36   19   20 1   
    37   19   24 1   
    38   19   40 1   
    39   20   21 1   
    40   20   41 1   
    41   20   42 1   
    42   21   22 1   
    43   21   43 1   
    44   21   44 1   
    45   22   23 1   
    46   22   45 1   
    47   23   24 1   
    48   23   46 1   
    49   23   47 1   
    50   24   48 1   
    51   24   49 1   
@<TRIPOS>SUBSTRUCTURE
     1 Q15         1 TEMP              0 ****  ****    0 ROOT
