@<TRIPOS>MOLECULE
Q15
   49    46     1     0     0
SMALL
bcc


@<TRIPOS>ATOM
      1 N02         1.3840    7.2480    2.6270 n3        1 Q15     -0.319000
      2 C02         1.6950    5.8680    2.8320 c1        1 Q15      0.107000
      3 C03         2.8470    5.5140    3.5210 c1        1 Q15     -0.227000
      4 C04         3.1000    4.1910    3.8030 c1        1 Q15     -0.003000
      5 C07         4.3820    3.7940    4.5990 c2        1 Q15     -0.186000
      6 N01         0.8240    4.9160    2.4380 n1        1 Q15     -0.202000
      7 C06         1.0740    3.5930    2.7180 c1        1 Q15      0.014000
      8 C05         2.2250    3.2370    3.4070 c2        1 Q15     -0.198000
      9 C08         0.0570    2.5120    2.3050 c3        1 Q15      0.022000
     10 O09         0.4930    1.8850    1.1190 os        1 Q15     -0.213000
     11 C11        -0.5300    1.1150    0.4520 c2        1 Q15      0.113000
     12 C16        -0.1750    0.1840   -0.5200 c2        1 Q15     -0.190000
     13 C15        -1.1690   -0.4750   -1.2510 c1        1 Q15      0.113000
     14 C14        -2.4980   -0.2020   -1.0060 c1        1 Q15     -0.150000
     15 C13        -2.8510    0.7290   -0.0340 c1        1 Q15     -0.150000
     16 C12        -1.8580    1.3860    0.6940 c1        1 Q15     -0.237000
     17 O28        -0.8060   -1.3720   -2.2990 os        1 Q15     -0.213000
     18 C27        -1.0820   -2.7310   -2.0200 c3        1 Q15     -0.021000
     19 C24        -0.2290   -3.6840   -3.0570 c3        1 Q15     -0.106000
     20 C23        -1.0070   -3.8730   -4.2790 c3        1 Q15     -0.153500
     21 C22        -2.2490   -4.7330   -4.0490 c3        1 Q15     -0.074500
     22 N21        -1.9410   -5.9930   -3.3790 n3        1 Q15     -0.298000
     23 C26        -1.1700   -5.8150   -2.1670 c3        1 Q15     -0.074500
     24 C25         0.0790   -4.9570   -2.3890 c3        1 Q15     -0.153500
     25 H1          1.8190    7.7240    1.9660 hn        1 Q15      0.195000
     26 H2          0.6400    7.6440    3.0920 hn        1 Q15      0.195000
     27 H3          3.4070    6.1810    3.8670 ha        1 Q15      0.142000
     28 H4          4.3570    2.8450    4.7960 ha        1 Q15      0.089667
     29 H5          5.1780    3.9960    4.0620 ha        1 Q15      0.089667
     30 H6          4.4160    4.2770    5.3990 ha        1 Q15      0.089667
     31 H7          2.4020    2.3070    3.6050 ha        1 Q15      0.159000
     32 H8         -0.7920    2.9130    2.1550 h1        1 Q15      0.102000
     33 H9         -0.0190    1.8310    3.0350 h1        1 Q15      0.102000
     34 H10         0.7820   -0.0080   -0.6970 ha        1 Q15      0.164000
     35 H11        -3.1850   -0.6560   -1.5100 ha        1 Q15      0.135500
     36 H12        -3.7670    0.9180    0.1340 ha        1 Q15      0.135500
     37 H13        -2.1130    2.0600    1.3970 ha        1 Q15      0.140000
     38 H14        -0.8230   -2.9350   -1.1050 h1        1 Q15      0.080500
     39 H15        -2.0290   -2.8990   -2.1320 h1        1 Q15      0.080500
     40 H16         0.6070   -3.2380   -3.2810 hc        1 Q15      0.107000
     41 H17        -1.2750   -3.0330   -4.6010 hc        1 Q15      0.093250
     42 H18        -0.4610   -4.2900   -4.9310 hc        1 Q15      0.093250
     43 H19        -2.6480   -4.9270   -4.8900 h1        1 Q15      0.066250
     44 H20        -2.8950   -4.2220   -3.4940 h1        1 Q15      0.066250
     45 H21        -2.7750   -6.4610   -3.1710 hn        1 Q15      0.157000
     46 H23        -0.8760   -6.7460   -1.8260 h1        1 Q15      0.066250
     47 H24        -1.7820   -5.3590   -1.4280 h1        1 Q15      0.066250
     48 H25         0.4880   -4.7680   -1.5360 hc        1 Q15      0.093250
     49 H26         0.7460   -5.4910   -2.9720 hc        1 Q15      0.093250
@<TRIPOS>BOND
     1    1    2 1   
     2    1   25 1   
     3    1   26 1   
     4    2    6 1   
     5    3    4 1   
     6    3   27 1   
     7    4    8 1   
     8    5   28 1   
     9    5   29 1   
    10    5   30 1   
    11    7    8 1   
    12    7    9 1   
    13    8   31 1   
    14    9   10 1   
    15    9   32 1   
    16    9   33 1   
    17   10   11 1   
    18   11   12 1   
    19   11   16 1   
    20   12   13 1   
    21   12   34 1   
    22   13   17 1   
    23   14   15 1   
    24   14   35 1   
    25   15   36 1   
    26   16   37 1   
    27   17   18 1   
    28   18   19 1   
    29   18   38 1   
    30   18   39 1   
    31   19   20 1   
    32   19   24 1   
    33   19   40 1   
    34   20   21 1   
    35   20   41 1   
    36   20   42 1   
    37   21   22 1   
    38   21   43 1   
    39   21   44 1   
    40   22   23 1   
    41   22   45 1   
    42   23   24 1   
    43   23   46 1   
    44   23   47 1   
    45   24   48 1   
    46   24   49 1   
@<TRIPOS>SUBSTRUCTURE
     1 Q15         1 TEMP              0 ****  ****    0 ROOT
