@<TRIPOS>MOLECULE
Q16
   53    55     1     0     0
SMALL
bcc


@<TRIPOS>ATOM
      1 N22         0.4600   -1.1410    0.0910 nh        1 Q16     -0.921500
      2 C22         1.8000   -0.7160    0.0440 ca        1 Q16      0.627200
      3 C23         2.5200   -0.5620    1.2680 ca        1 Q16     -0.294300
      4 C24         3.8120   -0.0450    1.2320 ca        1 Q16     -0.011300
      5 C27         4.5880    0.1450    2.4790 c3        1 Q16     -0.060800
      6 C25         4.3680    0.3080   -0.0050 ca        1 Q16     -0.263300
      7 N21         2.3520   -0.3960   -1.1670 nb        1 Q16     -0.731000
      8 C26         3.6030    0.1160   -1.1690 ca        1 Q16      0.439600
      9 C12         4.1760    0.5180   -2.5080 c3        1 Q16      0.076100
     10 O11         5.5990    0.4310   -2.4160 os        1 Q16     -0.424600
     11 C2'         8.5170   -0.2850   -3.8710 c3        1 Q16      0.166500
     12 C5'         6.2520   -0.6790   -4.5070 c3        1 Q16      0.125800
     13 N1'         7.6150   -1.1760   -4.6120 n3        1 Q16     -0.804200
     14 C3'         7.7150    0.9370   -3.3780 c3        1 Q16     -0.091400
     15 C10         9.7040    0.1760   -4.7330 c3        1 Q16      0.138400
     16 C4'         6.2430    0.6250   -3.6740 c3        1 Q16      0.123100
     17 O09        10.6400   -0.9000   -4.7290 os        1 Q16     -0.424600
     18 C08        11.7250   -0.6590   -5.6260 c3        1 Q16      0.079100
     19 C06        12.7140   -1.7900   -5.4690 ca        1 Q16      0.441600
     20 N01        13.9970   -1.5330   -5.8120 nb        1 Q16     -0.731000
     21 C02        14.9010   -2.5540   -5.6950 ca        1 Q16      0.625200
     22 N02        16.2620   -2.2910   -5.9420 nh        1 Q16     -0.920500
     23 C03        14.5180   -3.8570   -5.2560 ca        1 Q16     -0.295300
     24 C04        13.1890   -4.0920   -4.9130 ca        1 Q16     -0.013300
     25 C05        12.2650   -3.0450   -5.0200 ca        1 Q16     -0.262300
     26 C07        12.7550   -5.4230   -4.4310 c3        1 Q16     -0.059800
     27 H021       16.7460   -3.0710   -6.3270 hn        1 Q16      0.397300
     28 H022       16.4540   -1.4330   -6.4130 hn        1 Q16      0.397300
     29 H03        15.2640   -4.6600   -5.1780 ha        1 Q16      0.140000
     30 H071       13.4680   -6.2220   -4.7520 hc        1 Q16      0.049033
     31 H072       11.7390   -5.6740   -4.8230 hc        1 Q16      0.049033
     32 H073       12.7080   -5.4230   -3.3120 hc        1 Q16      0.049033
     33 H05        11.2090   -3.1870   -4.7550 ha        1 Q16      0.161000
     34 H081       12.1940    0.3350   -5.3910 h1        1 Q16      0.049700
     35 H082       11.3390   -0.6470   -6.6820 h1        1 Q16      0.049700
     36 H101       10.1830    1.0780   -4.2640 h1        1 Q16      0.035700
     37 H102        9.3920    0.4190   -5.7820 h1        1 Q16      0.035700
     38 H2'         8.9540   -0.8220   -2.9770 h1        1 Q16      0.056700
     39 H1'         7.6910   -2.1120   -4.2640 hn        1 Q16      0.366800
     40 H3'1        7.8730    1.0930   -2.2830 hc        1 Q16      0.064700
     41 H3'2        8.0200    1.8670   -3.9170 hc        1 Q16      0.064700
     42 H5'1        5.8920   -0.4630   -5.5500 h1        1 Q16      0.052200
     43 H5'2        5.5570   -1.4330   -4.0460 h1        1 Q16      0.052200
     44 H4'         5.7450    1.4580   -4.2360 h1        1 Q16      0.051700
     45 H121        3.8060   -0.1480   -3.3330 h1        1 Q16      0.051200
     46 H122        3.8860    1.5820   -2.7290 h1        1 Q16      0.051200
     47 H25         5.3860    0.7150   -0.0760 ha        1 Q16      0.159000
     48 H271        4.1750   -0.4750    3.3120 hc        1 Q16      0.049700
     49 H272        5.6590   -0.1350    2.3230 hc        1 Q16      0.049700
     50 H273        4.5490    1.2210    2.7890 hc        1 Q16      0.049700
     51 H23         2.0570   -0.8400    2.2240 ha        1 Q16      0.141000
     52 H221        0.2800   -1.7890    0.8250 hn        1 Q16      0.398800
     53 H222        0.0620   -1.4090   -0.7830 hn        1 Q16      0.398800
@<TRIPOS>BOND
     1    1    2 1   
     2    1   52 1   
     3    1   53 1   
     4    2    3 ar  
     5    2    7 ar  
     6    3    4 ar  
     7    3   51 1   
     8    4    5 1   
     9    4    6 ar  
    10    5   48 1   
    11    5   49 1   
    12    5   50 1   
    13    6    8 ar  
    14    6   47 1   
    15    7    8 ar  
    16    8    9 1   
    17    9   10 1   
    18    9   45 1   
    19    9   46 1   
    20   10   16 1   
    21   11   13 1   
    22   11   14 1   
    23   11   15 1   
    24   11   38 1   
    25   12   13 1   
    26   12   16 1   
    27   12   42 1   
    28   12   43 1   
    29   13   39 1   
    30   14   16 1   
    31   14   40 1   
    32   14   41 1   
    33   15   17 1   
    34   15   36 1   
    35   15   37 1   
    36   16   44 1   
    37   17   18 1   
    38   18   19 1   
    39   18   34 1   
    40   18   35 1   
    41   19   20 ar  
    42   19   25 ar  
    43   20   21 ar  
    44   21   22 1   
    45   21   23 ar  
    46   22   27 1   
    47   22   28 1   
    48   23   24 ar  
    49   23   29 1   
    50   24   25 ar  
    51   24   26 1   
    52   25   33 1   
    53   26   30 1   
    54   26   31 1   
    55   26   32 1   
@<TRIPOS>SUBSTRUCTURE
     1 Q16         1 TEMP              0 ****  ****    0 ROOT
