@<TRIPOS>MOLECULE
Q16
   53    55     1     0     0
SMALL
bcc


@<TRIPOS>ATOM
      1 N22         0.4530   -1.1460    0.0640 nv        1 Q16     -0.921500
      2 C22         1.7940   -0.7210    0.0260 ca        1 Q16      0.627200
      3 C23         2.5080   -0.5770    1.2540 ca        1 Q16     -0.294300
      4 C24         3.8000   -0.0590    1.2280 ca        1 Q16     -0.011300
      5 C27         4.5700    0.1220    2.4810 c3        1 Q16     -0.060800
      6 C25         4.3620    0.3020   -0.0030 ca        1 Q16     -0.263300
      7 N21         2.3510   -0.3920   -1.1810 nb        1 Q16     -0.731000
      8 C26         3.6030    0.1190   -1.1720 ca        1 Q16      0.439600
      9 C12         4.1820    0.5300   -2.5060 c3        1 Q16      0.076100
     10 O11         5.6040    0.4380   -2.4080 os        1 Q16     -0.424600
     11 C2'         8.5260   -0.2770   -3.8580 c3        1 Q16      0.166500
     12 C5'         6.2620   -0.6580   -4.5060 c3        1 Q16      0.125800
     13 N1'         7.6240   -1.1590   -4.6100 n7        1 Q16     -0.804200
     14 C3'         7.7260    0.9430   -3.3580 c3        1 Q16     -0.091400
     15 C10         9.7170    0.1870   -4.7120 c3        1 Q16      0.138400
     16 C4'         6.2550    0.6400   -3.6630 c3        1 Q16      0.123100
     17 O09        10.6500   -0.8930   -4.7150 os        1 Q16     -0.424600
     18 C08        11.7400   -0.6460   -5.6040 c3        1 Q16      0.079100
     19 C06        12.7210   -1.7850   -5.4570 ca        1 Q16      0.441600
     20 N01        14.0080   -1.5300   -5.7860 nb        1 Q16     -0.731000
     21 C02        14.9050   -2.5590   -5.6780 ca        1 Q16      0.625200
     22 N02        16.2690   -2.3000   -5.9090 nv        1 Q16     -0.920500
     23 C03        14.5110   -3.8670   -5.2650 ca        1 Q16     -0.295300
     24 C04        13.1770   -4.0990   -4.9360 ca        1 Q16     -0.013300
     25 C05        12.2610   -3.0440   -5.0340 ca        1 Q16     -0.262300
     26 C07        12.7320   -5.4360   -4.4810 c3        1 Q16     -0.059800
     27 H021       16.7530   -3.0770   -6.3030 hn        1 Q16      0.397300
     28 H022       16.4710   -1.4360   -6.3640 hn        1 Q16      0.397300
     29 H03        15.2510   -4.6750   -5.1940 ha        1 Q16      0.140000
     30 H071       11.7160   -5.6720   -4.8840 hc        1 Q16      0.049033
     31 H072       12.6770   -5.4550   -3.3630 hc        1 Q16      0.049033
     32 H073       13.4410   -6.2340   -4.8120 hc        1 Q16      0.049033
     33 H05        11.2010   -3.1840   -4.7800 ha        1 Q16      0.161000
     34 H081       11.3590   -0.6180   -6.6620 h1        1 Q16      0.049700
     35 H082       12.2140    0.3420   -5.3530 h1        1 Q16      0.049700
     36 H101        9.4110    0.4420   -5.7590 h1        1 Q16      0.035700
     37 H102       10.1980    1.0830   -4.2330 h1        1 Q16      0.035700
     38 H2'         8.9580   -0.8230   -2.9670 h1        1 Q16      0.056700
     39 H1'         7.6950   -2.0980   -4.2700 hn        1 Q16      0.366800
     40 H3'1        8.0360    1.8770   -3.8870 hc        1 Q16      0.064700
     41 H3'2        7.8800    1.0890   -2.2610 hc        1 Q16      0.064700
     42 H5'1        5.5630   -1.4140   -4.0530 h1        1 Q16      0.052200
     43 H5'2        5.9060   -0.4320   -5.5480 h1        1 Q16      0.052200
     44 H4'         5.7620    1.4790   -4.2190 h1        1 Q16      0.051700
     45 H121        3.8130   -0.1280   -3.3380 h1        1 Q16      0.051200
     46 H122        3.8960    1.5970   -2.7190 h1        1 Q16      0.051200
     47 H25         5.3810    0.7080   -0.0670 ha        1 Q16      0.159000
     48 H271        5.6410   -0.1610    2.3280 hc        1 Q16      0.049700
     49 H272        4.1510   -0.5020    3.3080 hc        1 Q16      0.049700
     50 H273        4.5330    1.1950    2.7960 hc        1 Q16      0.049700
     51 H23         2.0400   -0.8610    2.2070 ha        1 Q16      0.141000
     52 H221        0.0590   -1.4070   -0.8140 hn        1 Q16      0.398800
     53 H222        0.2690   -1.8000    0.7920 hn        1 Q16      0.398800
@<TRIPOS>BOND
     1    1    2 1   
     2    1   52 1   
     3    1   53 1   
     4    2    3 ar  
     5    2    7 ar  
     6    3    4 ar  
     7    3   51 1   
     8    4    5 1   
     9    4    6 ar  
    10    5   48 1   
    11    5   49 1   
    12    5   50 1   
    13    6    8 ar  
    14    6   47 1   
    15    7    8 ar  
    16    8    9 1   
    17    9   10 1   
    18    9   45 1   
    19    9   46 1   
    20   10   16 1   
    21   11   13 1   
    22   11   14 1   
    23   11   15 1   
    24   11   38 1   
    25   12   13 1   
    26   12   16 1   
    27   12   42 1   
    28   12   43 1   
    29   13   39 1   
    30   14   16 1   
    31   14   40 1   
    32   14   41 1   
    33   15   17 1   
    34   15   36 1   
    35   15   37 1   
    36   16   44 1   
    37   17   18 1   
    38   18   19 1   
    39   18   34 1   
    40   18   35 1   
    41   19   20 ar  
    42   19   25 ar  
    43   20   21 ar  
    44   21   22 1   
    45   21   23 ar  
    46   22   27 1   
    47   22   28 1   
    48   23   24 ar  
    49   23   29 1   
    50   24   25 ar  
    51   24   26 1   
    52   25   33 1   
    53   26   30 1   
    54   26   31 1   
    55   26   32 1   
@<TRIPOS>SUBSTRUCTURE
     1 Q16         1 TEMP              0 ****  ****    0 ROOT
