@<TRIPOS>MOLECULE
Q16
   55    57     1     0     0
SMALL
bcc


@<TRIPOS>ATOM
      1 N22        -0.0270    0.2940   -0.1500 n4        1 Q16     -0.817300
      2 C22         1.4450    0.1580   -0.0580 ca        1 Q16      0.448200
      3 C23         2.0570    0.1600    1.2070 ca        1 Q16     -0.209300
      4 C24         3.4590    0.0300    1.2480 ca        1 Q16     -0.001300
      5 C27         4.1640    0.0400    2.5480 c3        1 Q16     -0.080800
      6 C25         4.1560   -0.0970    0.0450 ca        1 Q16     -0.174300
      7 N21         2.1060    0.0390   -1.2430 nb        1 Q16     -0.669000
      8 C26         3.4480   -0.0870   -1.1830 ca        1 Q16      0.452600
      9 C12         4.1880   -0.2340   -2.4950 c3        1 Q16      0.074100
     10 O11         5.5810   -0.1240   -2.2190 os        1 Q16     -0.433600
     11 C2'         8.7780   -0.5570   -3.3580 c3        1 Q16      0.163500
     12 C5'         6.6570   -1.4140   -4.0190 c3        1 Q16      0.122800
     13 N1'         8.0680   -1.7370   -3.8660 n3        1 Q16     -0.797200
     14 C3'         7.7440    0.5260   -2.9750 c3        1 Q16     -0.100400
     15 C10         9.7560    0.0180   -4.3990 c3        1 Q16      0.138400
     16 C4'         6.3780   -0.0200   -3.4050 c3        1 Q16      0.119100
     17 O09        10.8720   -0.8750   -4.4450 os        1 Q16     -0.426600
     18 C08        11.8340   -0.4670   -5.4140 c3        1 Q16      0.073100
     19 C06        12.8350   -1.5920   -5.5530 ca        1 Q16      0.454600
     20 N01        14.0670   -1.2840   -6.0080 nb        1 Q16     -0.667000
     21 C02        14.9420   -2.3180   -6.1560 ca        1 Q16      0.444200
     22 N02        16.2880   -1.9570   -6.6600 n4        1 Q16     -0.817300
     23 C03        14.6560   -3.6630   -5.8650 ca        1 Q16     -0.208300
     24 C04        13.3650   -3.9600   -5.3880 ca        1 Q16     -0.005300
     25 C05        12.4500   -2.9180   -5.2310 ca        1 Q16     -0.171300
     26 C07        12.9990   -5.3590   -5.0750 c3        1 Q16     -0.079800
     27 H021       16.8600   -2.8050   -6.7310 hn        1 Q16      0.471467
     28 H022       16.2070   -1.5170   -7.5860 hn        1 Q16      0.471467
     29 H03        15.3910   -4.4710   -5.9960 ha        1 Q16      0.169000
     30 H071       12.7520   -5.9080   -6.0210 hc        1 Q16      0.075700
     31 H072       12.1060   -5.4010   -4.4020 hc        1 Q16      0.075700
     32 H073       13.8460   -5.8910   -4.5730 hc        1 Q16      0.075700
     33 H05        11.4270   -3.1010   -4.8560 ha        1 Q16      0.201000
     34 H081       11.3410   -0.2970   -6.4110 h1        1 Q16      0.070700
     35 H082       12.3260    0.4840   -5.0700 h1        1 Q16      0.070700
     36 H101        9.2870    0.0980   -5.4130 h1        1 Q16      0.045200
     37 H102       10.1130    1.0280   -4.0620 h1        1 Q16      0.045200
     38 H2'         9.3910   -0.8330   -2.4510 h1        1 Q16      0.066700
     39 H1'         8.1930   -2.5100   -3.2400 hn        1 Q16      0.367800
     40 H3'1        7.9500    1.4950   -3.4920 hc        1 Q16      0.072200
     41 H3'2        7.7630    0.7090   -1.8720 hc        1 Q16      0.072200
     42 H5'1        6.4360   -1.3850   -5.1220 h1        1 Q16      0.061200
     43 H5'2        5.9970   -2.1900   -3.5480 h1        1 Q16      0.061200
     44 H4'         5.8730    0.6540   -4.1460 h1        1 Q16      0.063700
     45 H121        3.9730   -1.2470   -2.9360 h1        1 Q16      0.072200
     46 H122        3.8680    0.5670   -3.2170 h1        1 Q16      0.072200
     47 H25         5.2550   -0.2010    0.0330 ha        1 Q16      0.197000
     48 H271        3.5690   -0.4920    3.3320 hc        1 Q16      0.077033
     49 H272        4.3210    1.0980    2.8850 hc        1 Q16      0.077033
     50 H273        5.1640   -0.4530    2.4660 hc        1 Q16      0.077033
     51 H23         1.4890    0.2580    2.1450 ha        1 Q16      0.171000
     52 H221       -0.4190    0.3590    0.7950 hn        1 Q16      0.472133
     53 H222       -0.4250   -0.5210   -0.6330 hn        1 Q16      0.472133
     54 H223       -0.2670    1.1420   -0.6810 hn        1 Q16      0.472133
     55 H023       16.7350   -1.2920   -6.0160 hn        1 Q16      0.471467
@<TRIPOS>BOND
     1    1    2 1   
     2    1   52 1   
     3    1   53 1   
     4    1   54 1   
     5    2    3 ar  
     6    2    7 ar  
     7    3    4 ar  
     8    3   51 1   
     9    4    5 1   
    10    4    6 ar  
    11    5   48 1   
    12    5   49 1   
    13    5   50 1   
    14    6    8 ar  
    15    6   47 1   
    16    7    8 ar  
    17    8    9 1   
    18    9   10 1   
    19    9   45 1   
    20    9   46 1   
    21   10   16 1   
    22   11   13 1   
    23   11   14 1   
    24   11   15 1   
    25   11   38 1   
    26   12   13 1   
    27   12   16 1   
    28   12   42 1   
    29   12   43 1   
    30   13   39 1   
    31   14   16 1   
    32   14   40 1   
    33   14   41 1   
    34   15   17 1   
    35   15   36 1   
    36   15   37 1   
    37   16   44 1   
    38   17   18 1   
    39   18   19 1   
    40   18   34 1   
    41   18   35 1   
    42   19   20 ar  
    43   19   25 ar  
    44   20   21 ar  
    45   21   22 1   
    46   21   23 ar  
    47   22   27 1   
    48   22   28 1   
    49   22   55 1   
    50   23   24 ar  
    51   23   29 1   
    52   24   25 ar  
    53   24   26 1   
    54   25   33 1   
    55   26   30 1   
    56   26   31 1   
    57   26   32 1   
@<TRIPOS>SUBSTRUCTURE
     1 Q16         1 TEMP              0 ****  ****    0 ROOT
