@<TRIPOS>MOLECULE
Q17
   40    42     1     0     0
SMALL
bcc


@<TRIPOS>ATOM
      1 C1         -4.1020   -2.4090    0.7350 ca        1 Q17     -0.172000
      2 C2         -3.8270   -3.4470   -0.1430 ca        1 Q17     -0.084000
      3 C3         -2.7110   -3.3850   -0.9820 ca        1 Q17     -0.180000
      4 C4         -1.8690   -2.2800   -0.9390 ca        1 Q17     -0.055000
      5 C5         -2.1260   -1.2150   -0.0630 cp        1 Q17     -0.218500
      6 C6         -3.2520   -1.2830    0.7770 ca        1 Q17      0.173100
      7 O7         -3.6110   -0.3370    1.7010 oh        1 Q17     -0.498100
      8 C8         -1.1980   -0.0520   -0.0690 cp        1 Q17      0.748500
      9 N9          0.1510   -0.3640    0.0050 nb        1 Q17     -0.778000
     10 C10         1.0310    0.6640   -0.0110 ca        1 Q17      0.707200
     11 C11         0.5720    2.0510   -0.1330 ca        1 Q17     -0.295600
     12 C12        -0.8420    2.2400   -0.2110 ca        1 Q17      0.444600
     13 N13        -1.7250    1.1800   -0.1730 nb        1 Q17     -0.744000
     14 C14        -1.3490    3.5720   -0.3340 ca        1 Q17     -0.182300
     15 C15        -0.4880    4.6410   -0.3710 ca        1 Q17     -0.102000
     16 C16         0.9070    4.4460   -0.2870 ca        1 Q17     -0.145000
     17 C17         1.4260    3.1760   -0.1690 ca        1 Q17     -0.090000
     18 N18         2.3860    0.4100    0.1540 nh        1 Q17     -0.850900
     19 C19         2.9040   -0.9380    0.1360 c3        1 Q17      0.204800
     20 C20         4.4250   -0.9820    0.2840 c3        1 Q17     -0.098400
     21 C21         4.8770   -2.4420    0.2630 c3        1 Q17      0.161800
     22 N22         6.3110   -2.5870    0.3490 n3        1 Q17     -0.917800
     23 H1         -4.9740   -2.4390    1.4040 ha        1 Q17      0.151000
     24 H2         -4.4930   -4.3220   -0.1780 ha        1 Q17      0.133000
     25 H3         -2.4990   -4.2110   -1.6760 ha        1 Q17      0.134000
     26 H4         -0.9900   -2.2390   -1.6010 ha        1 Q17      0.143000
     27 HO7        -3.0350    0.4360    1.6150 ho        1 Q17      0.439000
     28 H14        -2.4390    3.7220   -0.4000 ha        1 Q17      0.155000
     29 H15        -0.8800    5.6660   -0.4670 ha        1 Q17      0.138000
     30 H16         1.5750    5.3200   -0.3140 ha        1 Q17      0.137000
     31 H17         2.5170    3.0590   -0.0960 ha        1 Q17      0.128000
     32 HN18        3.0050    1.1180   -0.1720 hn        1 Q17      0.424800
     33 H19         2.4290   -1.5060    0.9880 h1        1 Q17      0.058200
     34 H19A        2.6140   -1.4610   -0.8220 h1        1 Q17      0.058200
     35 H20         4.9170   -0.4210   -0.5520 hc        1 Q17      0.053200
     36 H20A        4.7340   -0.4970    1.2470 hc        1 Q17      0.053200
     37 H21         4.3340   -2.9870    1.0930 h1        1 Q17      0.029700
     38 H21A        4.5490   -2.9110   -0.7090 h1        1 Q17      0.029700
     39 HN22        6.6730   -2.1260    1.1590 hn        1 Q17      0.351800
     40 HN2A        6.5600   -3.5550    0.3800 hn        1 Q17      0.351800
@<TRIPOS>BOND
     1    1    2 ar  
     2    1    6 ar  
     3    1   23 1   
     4    2    3 ar  
     5    2   24 1   
     6    3    4 ar  
     7    3   25 1   
     8    4    5 ar  
     9    4   26 1   
    10    5    6 ar  
    11    5    8 1   
    12    6    7 1   
    13    7   27 1   
    14    8    9 ar  
    15    8   13 ar  
    16    9   10 ar  
    17   10   11 ar  
    18   10   18 1   
    19   11   12 ar  
    20   11   17 ar  
    21   12   13 ar  
    22   12   14 ar  
    23   14   15 ar  
    24   14   28 1   
    25   15   16 ar  
    26   15   29 1   
    27   16   17 ar  
    28   16   30 1   
    29   17   31 1   
    30   18   19 1   
    31   18   32 1   
    32   19   20 1   
    33   19   33 1   
    34   19   34 1   
    35   20   21 1   
    36   20   35 1   
    37   20   36 1   
    38   21   22 1   
    39   21   37 1   
    40   21   38 1   
    41   22   39 1   
    42   22   40 1   
@<TRIPOS>SUBSTRUCTURE
     1 Q17         1 TEMP              0 ****  ****    0 ROOT
