@<TRIPOS>MOLECULE
Q17
   42    44     1     0     0
SMALL
bcc


@<TRIPOS>ATOM
      1 C1          0.6920   -0.7720    0.3910 ca        1 Q17     -0.203000
      2 C2          1.4290    0.3550    0.0440 ca        1 Q17     -0.049000
      3 C3          1.4820    1.4590    0.9020 ca        1 Q17     -0.158000
      4 C4          0.7870    1.4440    2.1070 ca        1 Q17     -0.064000
      5 C5          0.0300    0.3230    2.4650 cp        1 Q17     -0.217500
      6 C6         -0.0090   -0.7930    1.6080 ca        1 Q17      0.172100
      7 O7         -0.7200   -1.8870    2.0350 oh        1 Q17     -0.505100
      8 C8         -0.7640    0.3190    3.7150 cp        1 Q17      0.768500
      9 N9         -0.0380    0.2920    4.9070 nb        1 Q17     -0.684000
     10 C10        -0.7450    0.2610    6.0350 ca        1 Q17      0.499200
     11 C11        -2.1800    0.2720    6.0980 ca        1 Q17     -0.246600
     12 C12        -2.8240    0.3030    4.8070 ca        1 Q17      0.441600
     13 N13        -2.1070    0.3270    3.6380 nb        1 Q17     -0.584000
     14 C14        -4.2600    0.3120    4.7650 ca        1 Q17     -0.133300
     15 C15        -4.9850    0.2950    5.9280 ca        1 Q17     -0.089000
     16 C16        -4.3380    0.2710    7.1900 ca        1 Q17     -0.049000
     17 C17        -2.9660    0.2600    7.2750 ca        1 Q17     -0.170000
     18 N18        -0.0000    0.2190    7.3330 n4        1 Q17     -0.751700
     19 C19         1.4400   -0.1440    7.2060 c3        1 Q17      0.111800
     20 C20         2.1430   -0.2780    8.5580 c3        1 Q17     -0.140400
     21 C21         3.6010   -0.6460    8.2880 c3        1 Q17      0.103800
     22 N22         4.4090   -0.8090    9.5300 n4        1 Q17     -0.837600
     23 H1          0.6460   -1.6400   -0.2840 ha        1 Q17      0.159000
     24 H2          1.9710    0.3800   -0.9150 ha        1 Q17      0.161000
     25 H3          2.0650    2.3480    0.6150 ha        1 Q17      0.157000
     26 H4          0.8140    2.3210    2.7700 ha        1 Q17      0.137000
     27 HO7        -0.7980   -2.5070    1.2920 ho        1 Q17      0.445000
     28 H14        -4.7610    0.3340    3.7790 ha        1 Q17      0.194000
     29 H15        -6.0890    0.3010    5.8960 ha        1 Q17      0.182000
     30 H16        -4.9550    0.2630    8.1050 ha        1 Q17      0.171000
     31 H17        -2.4970    0.2520    8.2690 ha        1 Q17      0.115000
     32 HN18       -0.0930    1.1480    7.7650 hn        1 Q17      0.462800
     33 H19         1.9500    0.6530    6.5850 hx        1 Q17      0.135700
     34 H19A        1.5030   -1.1200    6.6390 hx        1 Q17      0.135700
     35 H20         1.6490   -1.0740    9.1790 hc        1 Q17      0.088200
     36 H20A        2.0850    0.6900    9.1270 hc        1 Q17      0.088200
     37 H21         3.6530   -1.6210    7.7160 hx        1 Q17      0.130700
     38 H21A        4.0930    0.1600    7.6640 hx        1 Q17      0.130700
     39 HN22        4.4230    0.0630   10.0730 hn        1 Q17      0.476800
     40 HN2A        5.3780   -1.0550    9.2790 hn        1 Q17      0.476800
     41 H182       -0.4810   -0.4710    7.9260 hn        1 Q17      0.462800
     42 H223        4.0230   -1.5560   10.1200 hn        1 Q17      0.476800
@<TRIPOS>BOND
     1    1    2 ar  
     2    1    6 ar  
     3    1   23 1   
     4    2    3 ar  
     5    2   24 1   
     6    3    4 ar  
     7    3   25 1   
     8    4    5 ar  
     9    4   26 1   
    10    5    6 ar  
    11    5    8 1   
    12    6    7 1   
    13    7   27 1   
    14    8    9 ar  
    15    8   13 ar  
    16    9   10 ar  
    17   10   11 ar  
    18   10   18 1   
    19   11   12 ar  
    20   11   17 ar  
    21   12   13 ar  
    22   12   14 ar  
    23   14   15 ar  
    24   14   28 1   
    25   15   16 ar  
    26   15   29 1   
    27   16   17 ar  
    28   16   30 1   
    29   17   31 1   
    30   18   19 1   
    31   18   32 1   
    32   18   41 1   
    33   19   20 1   
    34   19   33 1   
    35   19   34 1   
    36   20   21 1   
    37   20   35 1   
    38   20   36 1   
    39   21   22 1   
    40   21   37 1   
    41   21   38 1   
    42   22   39 1   
    43   22   40 1   
    44   22   42 1   
@<TRIPOS>SUBSTRUCTURE
     1 Q17         1 TEMP              0 ****  ****    0 ROOT
