@<TRIPOS>MOLECULE
Q17
   41    43     1     0     0
SMALL
bcc


@<TRIPOS>ATOM
      1 C1          2.3760    0.1240    1.8550 ca        1 Q17     -0.152000
      2 C2          2.4030   -1.1140    1.2170 ca        1 Q17     -0.088000
      3 C3          1.5140   -2.1190    1.6000 ca        1 Q17     -0.136000
      4 C4          0.5940   -1.8940    2.6220 ca        1 Q17     -0.066000
      5 C5          0.5580   -0.6600    3.2870 cp        1 Q17     -0.200500
      6 C6          1.4580    0.3450    2.8910 ca        1 Q17      0.079100
      7 O7          1.5340    1.5730    3.5310 oh        1 Q17     -0.560100
      8 C8         -0.4530   -0.4510    4.3600 cp        1 Q17      0.731500
      9 N9          0.0070    0.1560    5.5270 nb        1 Q17     -0.902000
     10 C10        -0.8720    0.3350    6.5390 ca        1 Q17      0.753200
     11 C11        -2.2590   -0.1220    6.4150 ca        1 Q17     -0.286600
     12 C12        -2.6160   -0.7220    5.1670 ca        1 Q17      0.438600
     13 N13        -1.6990   -0.8780    4.1400 nb        1 Q17     -0.676000
     14 C14        -3.9570   -1.1730    4.9770 ca        1 Q17     -0.168300
     15 C15        -4.8820   -1.0320    5.9860 ca        1 Q17     -0.084000
     16 C16        -4.5230   -0.4420    7.2150 ca        1 Q17     -0.115000
     17 C17        -3.2360    0.0050    7.4260 ca        1 Q17     -0.099000
     18 N18        -0.4620    0.9610    7.7010 nh        1 Q17     -0.885900
     19 C19         0.7730    1.6700    7.8540 c3        1 Q17      0.219800
     20 C20         2.0180    0.8090    8.1160 c3        1 Q17     -0.132400
     21 C21         3.1080    1.0480    7.0790 c3        1 Q17      0.111800
     22 N22         2.7870    0.4580    5.7570 n4        1 Q17     -0.875600
     23 H1          3.0520    0.9360    1.5470 ha        1 Q17      0.160000
     24 H2          3.1190   -1.2910    0.3980 ha        1 Q17      0.157000
     25 H3          1.5290   -3.0920    1.0840 ha        1 Q17      0.158000
     26 H4         -0.1160   -2.6900    2.9010 ha        1 Q17      0.165000
     27 HO7         0.6440    1.9590    3.5230 ho        1 Q17      0.447000
     28 H14        -4.2370   -1.6330    4.0150 ha        1 Q17      0.170000
     29 H15        -5.9180   -1.3800    5.8400 ha        1 Q17      0.159000
     30 H16        -5.2830   -0.3400    8.0070 ha        1 Q17      0.155000
     31 H17        -2.9960    0.4640    8.3970 ha        1 Q17      0.133000
     32 HN18       -1.0830    0.9480    8.4760 hn        1 Q17      0.461800
     33 H19         0.9450    2.3170    6.9440 h1        1 Q17      0.067700
     34 H19A        0.6420    2.3680    8.7340 h1        1 Q17      0.067700
     35 H20         2.4510    1.0940    9.1140 hc        1 Q17      0.088200
     36 H20A        1.7620   -0.2820    8.1740 hc        1 Q17      0.088200
     37 H21         4.0800    0.6050    7.4420 hx        1 Q17      0.098200
     38 H21A        3.2600    2.1580    6.9360 hx        1 Q17      0.098200
     39 HN22        3.0610   -0.5230    5.7250 hn        1 Q17      0.472467
     40 HN2A        1.7330    0.5110    5.5750 hn        1 Q17      0.472467
     41 H223        3.2560    0.9660    5.0030 hn        1 Q17      0.472467
@<TRIPOS>BOND
     1    1    2 ar  
     2    1    6 ar  
     3    1   23 1   
     4    2    3 ar  
     5    2   24 1   
     6    3    4 ar  
     7    3   25 1   
     8    4    5 ar  
     9    4   26 1   
    10    5    6 ar  
    11    5    8 1   
    12    6    7 1   
    13    7   27 1   
    14    8    9 ar  
    15    8   13 ar  
    16    9   10 ar  
    17   10   11 ar  
    18   10   18 1   
    19   11   12 ar  
    20   11   17 ar  
    21   12   13 ar  
    22   12   14 ar  
    23   14   15 ar  
    24   14   28 1   
    25   15   16 ar  
    26   15   29 1   
    27   16   17 ar  
    28   16   30 1   
    29   17   31 1   
    30   18   19 1   
    31   18   32 1   
    32   19   20 1   
    33   19   33 1   
    34   19   34 1   
    35   20   21 1   
    36   20   35 1   
    37   20   36 1   
    38   21   22 1   
    39   21   37 1   
    40   21   38 1   
    41   22   39 1   
    42   22   40 1   
    43   22   41 1   
@<TRIPOS>SUBSTRUCTURE
     1 Q17         1 TEMP              0 ****  ****    0 ROOT
