@<TRIPOS>MOLECULE
Q17
   41    43     1     0     0
SMALL
bcc


@<TRIPOS>ATOM
      1 C1          2.4810    0.1360    1.9260 ca        1 Q17     -0.152000
      2 C2          2.5240   -1.0990    1.2830 ca        1 Q17     -0.088000
      3 C3          1.6220   -2.1040    1.6330 ca        1 Q17     -0.136000
      4 C4          0.6710   -1.8810    2.6290 ca        1 Q17     -0.066000
      5 C5          0.6180   -0.6510    3.2980 cp        1 Q17     -0.200500
      6 C6          1.5330    0.3540    2.9350 ca        1 Q17      0.079100
      7 O7          1.5930    1.5780    3.5830 oh        1 Q17     -0.560100
      8 C8         -0.4240   -0.4440    4.3420 cp        1 Q17      0.731500
      9 N9          0.0020    0.1550    5.5250 nb        1 Q17     -0.902000
     10 C10        -0.9060    0.3320    6.5110 ca        1 Q17      0.753200
     11 C11        -2.2900   -0.1210    6.3420 ca        1 Q17     -0.286600
     12 C12        -2.6110   -0.7130    5.0810 ca        1 Q17      0.438600
     13 N13        -1.6640   -0.8660    4.0810 nb        1 Q17     -0.676000
     14 C14        -3.9470   -1.1580    4.8480 ca        1 Q17     -0.168300
     15 C15        -4.9020   -1.0200    5.8290 ca        1 Q17     -0.084000
     16 C16        -4.5790   -0.4370    7.0720 ca        1 Q17     -0.115000
     17 C17        -3.2970    0.0050    7.3240 ca        1 Q17     -0.099000
     18 N18        -0.5300    0.9500    7.6880 nu        1 Q17     -0.885900
     19 C19         0.7020    1.6540    7.8830 c3        1 Q17      0.219800
     20 C20         1.9360    0.7870    8.1770 c3        1 Q17     -0.132400
     21 C21         3.0570    1.0290    7.1750 c3        1 Q17      0.111800
     22 N22         2.7740    0.4480    5.8410 nz        1 Q17     -0.875600
     23 H1          3.1680    0.9480    1.6430 ha        1 Q17      0.160000
     24 H2          3.2640   -1.2740    0.4850 ha        1 Q17      0.157000
     25 H3          1.6490   -3.0740    1.1130 ha        1 Q17      0.158000
     26 H4         -0.0490   -2.6770    2.8820 ha        1 Q17      0.165000
     27 HO7         0.7050    1.9670    3.5510 ho        1 Q17      0.447000
     28 H14        -4.1990   -1.6120    3.8750 ha        1 Q17      0.170000
     29 H15        -5.9340   -1.3640    5.6490 ha        1 Q17      0.159000
     30 H16        -5.3620   -0.3370    7.8400 ha        1 Q17      0.155000
     31 H17        -3.0860    0.4580    8.3040 ha        1 Q17      0.133000
     32 HN18       -1.1750    0.9340    8.4440 hn        1 Q17      0.461800
     33 H19         0.9030    2.3050    6.9820 h1        1 Q17      0.067700
     34 H19A        0.5470    2.3470    8.7620 h1        1 Q17      0.067700
     35 H20         2.3390    1.0650    9.1890 hc        1 Q17      0.088700
     36 H20A        1.6750   -0.3030    8.2200 hc        1 Q17      0.088700
     37 H21         4.0160    0.5800    7.5650 hx        1 Q17      0.098200
     38 H21A        3.2160    2.1390    7.0440 hx        1 Q17      0.098200
     39 HN22        1.7270    0.5050    5.6270 hn        1 Q17      0.472467
     40 HN2A        3.2680    0.9590    5.1040 hn        1 Q17      0.472467
     41 H223        3.0470   -0.5330    5.8100 hn        1 Q17      0.472467
@<TRIPOS>BOND
     1    1    2 ar  
     2    1    6 ar  
     3    1   23 1   
     4    2    3 ar  
     5    2   24 1   
     6    3    4 ar  
     7    3   25 1   
     8    4    5 ar  
     9    4   26 1   
    10    5    6 ar  
    11    5    8 1   
    12    6    7 1   
    13    7   27 1   
    14    8    9 ar  
    15    8   13 ar  
    16    9   10 ar  
    17   10   11 ar  
    18   10   18 1   
    19   11   12 ar  
    20   11   17 ar  
    21   12   13 ar  
    22   12   14 ar  
    23   14   15 ar  
    24   14   28 1   
    25   15   16 ar  
    26   15   29 1   
    27   16   17 ar  
    28   16   30 1   
    29   17   31 1   
    30   18   19 1   
    31   18   32 1   
    32   19   20 1   
    33   19   33 1   
    34   19   34 1   
    35   20   21 1   
    36   20   35 1   
    37   20   36 1   
    38   21   22 1   
    39   21   37 1   
    40   21   38 1   
    41   22   39 1   
    42   22   40 1   
    43   22   41 1   
@<TRIPOS>SUBSTRUCTURE
     1 Q17         1 TEMP              0 ****  ****    0 ROOT
