@<TRIPOS>MOLECULE
Q18
   53    57     1     0     0
SMALL
bcc


@<TRIPOS>ATOM
      1 C1         -4.7280   -4.0160    0.7560 c3        1 Q18     -0.073900
      2 C2         -4.4980   -3.4100   -0.6090 c3        1 Q18     -0.077400
      3 C3         -3.0930   -2.8300   -0.7820 c3        1 Q18      0.177800
      4 N4         -2.9380   -1.5310   -0.1420 n3        1 Q18     -0.767600
      5 C5         -2.5140   -1.5650    1.2480 c3        1 Q18      0.177800
      6 C6         -3.0230   -2.7290    2.0900 c3        1 Q18     -0.077400
      7 C7         -4.4900   -3.0450    1.8930 c3        1 Q18     -0.073900
      8 C8         -2.1530   -0.5990   -0.9440 c3        1 Q18      0.231100
      9 C9         -2.1390    0.8010   -0.4140 ca        1 Q18     -0.203300
     10 C10        -0.9410    1.4550   -0.1460 ca        1 Q18      0.178100
     11 C11        -0.8690    2.8020    0.2960 ca        1 Q18     -0.280600
     12 C12        -2.0360    3.5290    0.4820 ca        1 Q18      0.011000
     13 C13        -3.2570    2.9100    0.2300 ca        1 Q18     -0.218000
     14 C14        -3.3090    1.5700   -0.2090 ca        1 Q18      0.211100
     15 O15         0.3220    0.8750   -0.2830 os        1 Q18     -0.240200
     16 C16         1.2680    1.8740    0.0820 cc        1 Q18     -0.093100
     17 C17         0.5570    3.1310    0.4640 c         1 Q18      0.597900
     18 C18         2.5920    1.6360    0.0580 cf        1 Q18      0.004000
     19 C19         3.2380    0.4240   -0.3150 cd        1 Q18     -0.138200
     20 C20         4.6740    0.2010   -0.3220 ca        1 Q18     -0.070800
     21 C21         4.8730   -1.1600   -0.7660 ca        1 Q18     -0.055200
     22 N22         3.6140   -1.7250   -1.0130 na        1 Q18     -0.186400
     23 C23         2.6400   -0.7740   -0.7420 cc        1 Q18     -0.045100
     24 C24         5.7820    0.9870   -0.0080 ca        1 Q18     -0.087000
     25 C25         7.0500    0.4380   -0.1320 ca        1 Q18     -0.147000
     26 C26         7.2350   -0.8870   -0.5650 ca        1 Q18     -0.115000
     27 C27         6.1600   -1.7030   -0.8870 ca        1 Q18     -0.138000
     28 O28         1.0790    4.1820    0.8300 o         1 Q18     -0.518100
     29 O29        -4.5690    1.0880   -0.4330 oh        1 Q18     -0.496100
     30 H1         -5.7880   -4.3830    0.8100 hc        1 Q18      0.041450
     31 H1A        -4.0620   -4.9110    0.8850 hc        1 Q18      0.041450
     32 H2         -4.6310   -4.2080   -1.3870 hc        1 Q18      0.043700
     33 H2A        -5.2670   -2.6180   -0.8030 hc        1 Q18      0.043700
     34 H3         -2.3410   -3.5750   -0.3920 h1        1 Q18      0.033950
     35 H3A        -2.9060   -2.7250   -1.8900 h1        1 Q18      0.033950
     36 H5         -1.3850   -1.5580    1.3280 h1        1 Q18      0.033950
     37 H5A        -2.8880   -0.6010    1.7020 h1        1 Q18      0.033950
     38 H6         -2.4080   -3.6440    1.8830 hc        1 Q18      0.043700
     39 H6A        -2.8470   -2.4510    3.1640 hc        1 Q18      0.043700
     40 H7         -5.0640   -2.0990    1.7120 hc        1 Q18      0.041450
     41 H7A        -4.8890   -3.5030    2.8380 hc        1 Q18      0.041450
     42 H8         -1.0820   -0.9450   -1.0550 h1        1 Q18      0.044700
     43 H8A        -2.6120   -0.5730   -1.9760 h1        1 Q18      0.044700
     44 H12        -1.9940    4.5750    0.8240 ha        1 Q18      0.155000
     45 H13        -4.2030    3.4550    0.3660 ha        1 Q18      0.157000
     46 H18         3.2550    2.4710    0.3600 ha        1 Q18      0.160000
     47 HN22        3.4570   -2.6440   -1.3300 hn        1 Q18      0.301700
     48 H23         1.5750   -0.9940   -0.8660 h4        1 Q18      0.184000
     49 H24         5.6450    2.0240    0.3320 ha        1 Q18      0.138000
     50 H25         7.9340    1.0460    0.1130 ha        1 Q18      0.133000
     51 H26         8.2580   -1.2840   -0.6490 ha        1 Q18      0.132000
     52 H27         6.3120   -2.7360   -1.2240 ha        1 Q18      0.134000
     53 HO29       -4.5250    0.1400   -0.6320 ho        1 Q18      0.451000
@<TRIPOS>BOND
     1    1    2 1   
     2    1    7 1   
     3    1   30 1   
     4    1   31 1   
     5    2    3 1   
     6    2   32 1   
     7    2   33 1   
     8    3    4 1   
     9    3   34 1   
    10    3   35 1   
    11    4    5 1   
    12    4    8 1   
    13    5    6 1   
    14    5   36 1   
    15    5   37 1   
    16    6    7 1   
    17    6   38 1   
    18    6   39 1   
    19    7   40 1   
    20    7   41 1   
    21    8    9 1   
    22    8   42 1   
    23    8   43 1   
    24    9   10 ar  
    25    9   14 ar  
    26   10   11 ar  
    27   10   15 1   
    28   11   12 ar  
    29   11   17 1   
    30   12   13 ar  
    31   12   44 1   
    32   13   14 ar  
    33   13   45 1   
    34   14   29 1   
    35   15   16 1   
    36   16   17 1   
    37   16   18 2   
    38   17   28 2   
    39   18   19 1   
    40   18   46 1   
    41   19   20 1   
    42   19   23 2   
    43   20   21 ar  
    44   20   24 ar  
    45   21   22 1   
    46   21   27 ar  
    47   22   23 1   
    48   22   47 1   
    49   23   48 1   
    50   24   25 ar  
    51   24   49 1   
    52   25   26 ar  
    53   25   50 1   
    54   26   27 ar  
    55   26   51 1   
    56   27   52 1   
    57   29   53 1   
@<TRIPOS>SUBSTRUCTURE
     1 Q18         1 TEMP              0 ****  ****    0 ROOT
