@<TRIPOS>MOLECULE
Q18
   53    57     1     0     0
SMALL
bcc


@<TRIPOS>ATOM
      1 C1          0.0390   -0.1360   -0.1460 c3        1 Q18     -0.072400
      2 C2          1.5480   -0.0960   -0.1010 c3        1 Q18     -0.076900
      3 C3          2.1070    0.0150    1.3200 c3        1 Q18      0.182300
      4 N4          2.0450    1.3670    1.8500 n3        1 Q18     -0.745600
      5 C5          0.8040    1.7300    2.5120 c3        1 Q18      0.182300
      6 C6         -0.4720    1.0690    2.0040 c3        1 Q18     -0.076900
      7 C7         -0.6110    1.0710    0.4970 c3        1 Q18     -0.072400
      8 C8          3.2200    1.7170    2.6400 c3        1 Q18      0.246100
      9 C9          3.3180    3.1740    2.9640 ca        1 Q18     -0.137300
     10 C10         2.8380    3.7170    4.1490 ca        1 Q18      0.171100
     11 C11         2.9570    5.0940    4.4830 ca        1 Q18     -0.276600
     12 C12         3.5660    5.9690    3.5990 ca        1 Q18      0.017000
     13 C13         4.0630    5.4630    2.3960 ca        1 Q18     -0.269000
     14 C14         3.9440    4.0960    2.0890 ca        1 Q18      0.199100
     15 O15         2.1970    2.9840    5.1490 os        1 Q18     -0.235200
     16 C16         1.8850    3.9050    6.1890 cc        1 Q18     -0.096100
     17 C17         2.3460    5.2730    5.8120 c         1 Q18      0.597900
     18 C18         1.2610    3.5120    7.3150 cf        1 Q18      0.007000
     19 C19         0.8300    2.1960    7.6400 cd        1 Q18     -0.141200
     20 C20         0.1770    1.8020    8.8770 ca        1 Q18     -0.070800
     21 C21        -0.0770    0.3830    8.7710 ca        1 Q18     -0.056200
     22 N22         0.4010   -0.0520    7.5270 na        1 Q18     -0.185400
     23 C23         0.9430    1.0350    6.8550 cc        1 Q18     -0.043100
     24 C24        -0.2080    2.4820   10.0320 ca        1 Q18     -0.088000
     25 C25        -0.8280    1.7720   11.0520 ca        1 Q18     -0.147000
     26 C26        -1.0720    0.3920   10.9400 ca        1 Q18     -0.115000
     27 C27        -0.7040   -0.3210    9.8090 ca        1 Q18     -0.138000
     28 O28         2.2280    6.2960    6.4840 o         1 Q18     -0.518100
     29 O29         4.4580    3.5760    0.9290 oh        1 Q18     -0.480100
     30 H1         -0.3270   -1.0700    0.3580 hc        1 Q18      0.039200
     31 H1A        -0.2850   -0.1920   -1.2200 hc        1 Q18      0.039200
     32 H2          1.9220    0.7560   -0.7270 hc        1 Q18      0.042700
     33 H2A         1.9500   -1.0440   -0.5470 hc        1 Q18      0.042700
     34 H3          3.1850   -0.3190    1.2800 h1        1 Q18      0.028700
     35 H3A         1.5620   -0.7180    1.9830 h1        1 Q18      0.028700
     36 H5          0.7040    2.8470    2.3810 h1        1 Q18      0.028700
     37 H5A         0.8660    1.5340    3.6270 h1        1 Q18      0.028700
     38 H6         -1.3300    1.6360    2.4540 hc        1 Q18      0.042700
     39 H6A        -0.5350    0.0170    2.3890 hc        1 Q18      0.042700
     40 H7         -1.7030    1.0680    0.2350 hc        1 Q18      0.039200
     41 H7A        -0.1670    2.0100    0.0750 hc        1 Q18      0.039200
     42 H8          4.1330    1.4350    2.0390 h1        1 Q18      0.044700
     43 H8A         3.2480    1.1450    3.6170 h1        1 Q18      0.044700
     44 H12         3.6590    7.0380    3.8420 ha        1 Q18      0.154000
     45 H13         4.5520    6.1390    1.6810 ha        1 Q18      0.140000
     46 H18         1.0580    4.2950    8.0730 ha        1 Q18      0.160000
     47 HN22        0.3570   -0.9780    7.1940 hn        1 Q18      0.302700
     48 H23         1.3780    0.9320    5.8550 h4        1 Q18      0.187000
     49 H24        -0.0210    3.5610   10.1270 ha        1 Q18      0.138000
     50 H25        -1.1380    2.2950   11.9690 ha        1 Q18      0.133000
     51 H26        -1.5660   -0.1320   11.7720 ha        1 Q18      0.132000
     52 H27        -0.8970   -1.3990    9.7280 ha        1 Q18      0.134000
     53 HO29        4.8190    4.3070    0.4040 ho        1 Q18      0.425000
@<TRIPOS>BOND
     1    1    2 1   
     2    1    7 1   
     3    1   30 1   
     4    1   31 1   
     5    2    3 1   
     6    2   32 1   
     7    2   33 1   
     8    3    4 1   
     9    3   34 1   
    10    3   35 1   
    11    4    5 1   
    12    4    8 1   
    13    5    6 1   
    14    5   36 1   
    15    5   37 1   
    16    6    7 1   
    17    6   38 1   
    18    6   39 1   
    19    7   40 1   
    20    7   41 1   
    21    8    9 1   
    22    8   42 1   
    23    8   43 1   
    24    9   10 ar  
    25    9   14 ar  
    26   10   11 ar  
    27   10   15 1   
    28   11   12 ar  
    29   11   17 1   
    30   12   13 ar  
    31   12   44 1   
    32   13   14 ar  
    33   13   45 1   
    34   14   29 1   
    35   15   16 1   
    36   16   17 1   
    37   16   18 2   
    38   17   28 2   
    39   18   19 1   
    40   18   46 1   
    41   19   20 1   
    42   19   23 2   
    43   20   21 ar  
    44   20   24 ar  
    45   21   22 1   
    46   21   27 ar  
    47   22   23 1   
    48   22   47 1   
    49   23   48 1   
    50   24   25 ar  
    51   24   49 1   
    52   25   26 ar  
    53   25   50 1   
    54   26   27 ar  
    55   26   51 1   
    56   27   52 1   
    57   29   53 1   
@<TRIPOS>SUBSTRUCTURE
     1 Q18         1 TEMP              0 ****  ****    0 ROOT
