@<TRIPOS>MOLECULE
Q18
   53    57     1     0     0
SMALL
bcc


@<TRIPOS>ATOM
      1 C1          0.0380   -0.1330   -0.1470 c3        1 Q18     -0.072400
      2 C2          1.5470   -0.0950   -0.1010 c3        1 Q18     -0.076900
      3 C3          2.1050    0.0150    1.3190 c3        1 Q18      0.182300
      4 N4          2.0450    1.3680    1.8500 n3        1 Q18     -0.745600
      5 C5          0.8030    1.7320    2.5110 c3        1 Q18      0.182300
      6 C6         -0.4720    1.0720    2.0020 c3        1 Q18     -0.076900
      7 C7         -0.6110    1.0750    0.4960 c3        1 Q18     -0.072400
      8 C8          3.2190    1.7160    2.6400 c3        1 Q18      0.246100
      9 C9          3.3190    3.1730    2.9650 ca        1 Q18     -0.137300
     10 C10         2.8390    3.7150    4.1500 ca        1 Q18      0.171100
     11 C11         2.9590    5.0930    4.4850 ca        1 Q18     -0.276600
     12 C12         3.5700    5.9670    3.6020 ca        1 Q18      0.017000
     13 C13         4.0660    5.4620    2.3980 ca        1 Q18     -0.269000
     14 C14         3.9460    4.0940    2.0910 ca        1 Q18      0.199100
     15 O15         2.1980    2.9830    5.1500 os        1 Q18     -0.235200
     16 C16         1.8860    3.9030    6.1900 cc        1 Q18     -0.096100
     17 C17         2.3490    5.2720    5.8140 c         1 Q18      0.597900
     18 C18         1.2620    3.5110    7.3160 cf        1 Q18      0.007000
     19 C19         0.8300    2.1940    7.6400 cd        1 Q18     -0.141200
     20 C20         0.1770    1.8000    8.8770 ca        1 Q18     -0.070800
     21 C21        -0.0790    0.3820    8.7700 ca        1 Q18     -0.056200
     22 N22         0.3990   -0.0530    7.5260 na        1 Q18     -0.185400
     23 C23         0.9410    1.0340    6.8550 cc        1 Q18     -0.043100
     24 C24        -0.2080    2.4800   10.0330 ca        1 Q18     -0.088000
     25 C25        -0.8290    1.7700   11.0520 ca        1 Q18     -0.147000
     26 C26        -1.0730    0.3910   10.9390 ca        1 Q18     -0.115000
     27 C27        -0.7060   -0.3230    9.8070 ca        1 Q18     -0.138000
     28 O28         2.2320    6.2940    6.4870 o         1 Q18     -0.518100
     29 O29         4.4600    3.5750    0.9300 oh        1 Q18     -0.480100
     30 H1         -0.3300   -1.0670    0.3560 hc        1 Q18      0.039200
     31 H1A        -0.2860   -0.1890   -1.2220 hc        1 Q18      0.039200
     32 H2          1.9220    0.7570   -0.7270 hc        1 Q18      0.042700
     33 H2A         1.9470   -1.0430   -0.5480 hc        1 Q18      0.042700
     34 H3          1.5590   -0.7170    1.9820 h1        1 Q18      0.028700
     35 H3A         3.1820   -0.3190    1.2800 h1        1 Q18      0.028700
     36 H5          0.7060    2.8490    2.3810 h1        1 Q18      0.028700
     37 H5A         0.8650    1.5360    3.6260 h1        1 Q18      0.028700
     38 H6         -1.3310    1.6410    2.4520 hc        1 Q18      0.042700
     39 H6A        -0.5380    0.0210    2.3880 hc        1 Q18      0.042700
     40 H7         -0.1650    2.0140    0.0740 hc        1 Q18      0.039200
     41 H7A        -1.7030    1.0740    0.2330 hc        1 Q18      0.039200
     42 H8          3.2470    1.1430    3.6170 h1        1 Q18      0.044700
     43 H8A         4.1330    1.4330    2.0390 h1        1 Q18      0.044700
     44 H12         3.6640    7.0360    3.8450 ha        1 Q18      0.154000
     45 H13         4.5560    6.1380    1.6830 ha        1 Q18      0.140000
     46 H18         1.0600    4.2930    8.0740 ha        1 Q18      0.160000
     47 HN22        0.3540   -0.9780    7.1920 hn        1 Q18      0.302700
     48 H23         1.3760    0.9310    5.8540 h4        1 Q18      0.187000
     49 H24        -0.0200    3.5590   10.1280 ha        1 Q18      0.138000
     50 H25        -1.1380    2.2930   11.9690 ha        1 Q18      0.133000
     51 H26        -1.5680   -0.1340   11.7710 ha        1 Q18      0.132000
     52 H27        -0.9000   -1.4000    9.7260 ha        1 Q18      0.134000
     53 HO29        4.8210    4.3060    0.4060 ho        1 Q18      0.425000
@<TRIPOS>BOND
     1    1    2 1   
     2    1    7 1   
     3    1   30 1   
     4    1   31 1   
     5    2    3 1   
     6    2   32 1   
     7    2   33 1   
     8    3    4 1   
     9    3   34 1   
    10    3   35 1   
    11    4    5 1   
    12    4    8 1   
    13    5    6 1   
    14    5   36 1   
    15    5   37 1   
    16    6    7 1   
    17    6   38 1   
    18    6   39 1   
    19    7   40 1   
    20    7   41 1   
    21    8    9 1   
    22    8   42 1   
    23    8   43 1   
    24    9   10 ar  
    25    9   14 ar  
    26   10   11 ar  
    27   10   15 1   
    28   11   12 ar  
    29   11   17 1   
    30   12   13 ar  
    31   12   44 1   
    32   13   14 ar  
    33   13   45 1   
    34   14   29 1   
    35   15   16 1   
    36   16   17 1   
    37   16   18 2   
    38   17   28 2   
    39   18   19 1   
    40   18   46 1   
    41   19   20 1   
    42   19   23 2   
    43   20   21 ar  
    44   20   24 ar  
    45   21   22 1   
    46   21   27 ar  
    47   22   23 1   
    48   22   47 1   
    49   23   48 1   
    50   24   25 ar  
    51   24   49 1   
    52   25   26 ar  
    53   25   50 1   
    54   26   27 ar  
    55   26   51 1   
    56   27   52 1   
    57   29   53 1   
@<TRIPOS>SUBSTRUCTURE
     1 Q18         1 TEMP              0 ****  ****    0 ROOT
