@<TRIPOS>MOLECULE
Q19
   38    40     1     0     0
SMALL
bcc


@<TRIPOS>ATOM
      1 C1         -4.0820    0.4890    0.3960 ca        1 Q19      0.725200
      2 N2         -4.7380   -0.6500    0.0950 nb        1 Q19     -0.824000
      3 C3         -3.9790   -1.7010   -0.4460 ca        1 Q19      0.904900
      4 N4         -2.6240   -1.7020   -0.6110 nb        1 Q19     -0.788000
      5 C5         -1.9650   -0.5430   -0.2830 ca        1 Q19      0.479600
      6 C6         -2.6360    0.6130    0.2190 ca        1 Q19     -0.325600
      7 C7         -0.5440   -0.4780   -0.4470 ca        1 Q19     -0.184300
      8 C8          0.1570    0.6740   -0.1530 cp        1 Q19     -0.002000
      9 C9         -0.5250    1.8250    0.3350 ca        1 Q19     -0.097300
     10 C10        -1.8950    1.7760    0.5110 ca        1 Q19     -0.080000
     11 N11        -4.8190    1.5770    0.8430 nh        1 Q19     -0.945500
     12 N12        -4.6990   -2.8180   -0.8880 nh        1 Q19     -0.925500
     13 C13         0.2090    3.0710    0.6580 c3        1 Q19     -0.051800
     14 C14         1.6100    0.6810   -0.3500 cp        1 Q19     -0.056000
     15 C15         2.2210    1.6440   -1.1650 ca        1 Q19     -0.087000
     16 C16         3.6000    1.6200   -1.3640 ca        1 Q19     -0.148000
     17 C17         4.3840    0.6430   -0.7540 ca        1 Q19     -0.088000
     18 C18         3.7870   -0.3260    0.0620 ca        1 Q19     -0.177600
     19 C19         2.4000   -0.3030    0.2580 ca        1 Q19     -0.061000
     20 C20         4.5830   -1.3810    0.7280 c         1 Q19      0.576700
     21 O21         4.0730   -2.1540    1.5490 o         1 Q19     -0.534100
     22 C22         6.0310   -1.4810    0.3670 c3        1 Q19     -0.198100
     23 H7         -0.0130   -1.3690   -0.8220 ha        1 Q19      0.158000
     24 H10        -2.4020    2.6800    0.8810 ha        1 Q19      0.125000
     25 HN11       -5.7760    1.4310    1.0710 hn        1 Q19      0.424300
     26 HN1A       -4.3350    2.2470    1.3890 hn        1 Q19      0.424300
     27 HN12       -5.6170   -2.9270   -0.5250 hn        1 Q19      0.424300
     28 HN1B       -4.1770   -3.6540   -1.0170 hn        1 Q19      0.424300
     29 H13         0.2700    3.7270   -0.2470 hc        1 Q19      0.045367
     30 H13A       -0.3110    3.6420    1.4670 hc        1 Q19      0.045367
     31 H13B        1.2500    2.8470    0.9990 hc        1 Q19      0.045367
     32 H15         1.6050    2.4170   -1.6510 ha        1 Q19      0.142000
     33 H16         4.0720    2.3770   -2.0080 ha        1 Q19      0.137000
     34 H17         5.4720    0.6400   -0.9200 ha        1 Q19      0.135000
     35 H19         1.9340   -1.0690    0.9010 ha        1 Q19      0.163000
     36 H22         6.5690   -0.5580    0.6960 hc        1 Q19      0.064700
     37 H22A        6.4950   -2.3640    0.8700 hc        1 Q19      0.064700
     38 H22B        6.1450   -1.5930   -0.7380 hc        1 Q19      0.064700
@<TRIPOS>BOND
     1    1    2 ar  
     2    1    6 ar  
     3    1   11 1   
     4    2    3 ar  
     5    3    4 ar  
     6    3   12 1   
     7    4    5 ar  
     8    5    6 ar  
     9    5    7 ar  
    10    6   10 ar  
    11    7    8 ar  
    12    7   23 1   
    13    8    9 ar  
    14    8   14 1   
    15    9   10 ar  
    16    9   13 1   
    17   10   24 1   
    18   11   25 1   
    19   11   26 1   
    20   12   27 1   
    21   12   28 1   
    22   13   29 1   
    23   13   30 1   
    24   13   31 1   
    25   14   15 ar  
    26   14   19 ar  
    27   15   16 ar  
    28   15   32 1   
    29   16   17 ar  
    30   16   33 1   
    31   17   18 ar  
    32   17   34 1   
    33   18   19 ar  
    34   18   20 1   
    35   19   35 1   
    36   20   21 2   
    37   20   22 1   
    38   22   36 1   
    39   22   37 1   
    40   22   38 1   
@<TRIPOS>SUBSTRUCTURE
     1 Q19         1 TEMP              0 ****  ****    0 ROOT
