@<TRIPOS>MOLECULE
Q19
   38    40     1     0     0
SMALL
bcc


@<TRIPOS>ATOM
      1 C1          0.0470   -0.0500   -0.0340 ca        1 Q19      0.724200
      2 N2          1.3950   -0.0210   -0.0510 nb        1 Q19     -0.822000
      3 C3          2.0500    0.0140    1.1910 ca        1 Q19      0.902900
      4 N4          1.4420    0.0020    2.4130 nb        1 Q19     -0.787000
      5 C5          0.0690   -0.0050    2.4160 ca        1 Q19      0.479600
      6 C6         -0.7070   -0.0310    1.2180 ca        1 Q19     -0.325600
      7 C7         -0.6260    0.0060    3.6670 ca        1 Q19     -0.183300
      8 C8         -2.0040    0.0010    3.7200 cp        1 Q19     -0.002000
      9 C9         -2.7680   -0.0370    2.5180 ca        1 Q19     -0.097300
     10 C10        -2.1140   -0.0550    1.3010 ca        1 Q19     -0.080000
     11 N11        -0.6230   -0.1670   -1.2440 nv        1 Q19     -0.945500
     12 N12         3.4460    0.1380    1.1490 nv        1 Q19     -0.923500
     13 C13        -4.2500   -0.0680    2.5510 c3        1 Q19     -0.052800
     14 C14        -2.6580    0.0260    5.0320 cp        1 Q19     -0.056000
     15 C15        -3.6030    1.0120    5.3470 ca        1 Q19     -0.088000
     16 C16        -4.1940    1.0380    6.6090 ca        1 Q19     -0.148000
     17 C17        -3.8550    0.0850    7.5660 ca        1 Q19     -0.088000
     18 C18        -2.9130   -0.9060    7.2660 ca        1 Q19     -0.177600
     19 C19        -2.3160   -0.9280    5.9990 ca        1 Q19     -0.060000
     20 C20        -2.5250   -1.9370    8.2540 c         1 Q19      0.576700
     21 O21        -1.7570   -2.8620    7.9570 o         1 Q19     -0.533100
     22 C22        -3.0940   -1.8190    9.6330 c3        1 Q19     -0.198100
     23 H7         -0.0370    0.0240    4.5990 ha        1 Q19      0.158000
     24 H10        -2.7240   -0.1010    0.3860 ha        1 Q19      0.125000
     25 HN11       -1.5610    0.1550   -1.2650 hn        1 Q19      0.424300
     26 HN1A       -0.1000   -0.0460   -2.0810 hn        1 Q19      0.424300
     27 HN12        3.8870   -0.1380    0.3030 hn        1 Q19      0.423300
     28 HN1B        3.9300   -0.0920    1.9870 hn        1 Q19      0.423300
     29 H13        -4.6570   -0.6120    1.6630 hc        1 Q19      0.045367
     30 H13A       -4.6200   -0.5770    3.4760 hc        1 Q19      0.045367
     31 H13B       -4.6570    0.9750    2.5380 hc        1 Q19      0.045367
     32 H15        -3.8720    1.7690    4.5940 ha        1 Q19      0.141000
     33 H16        -4.9320    1.8180    6.8500 ha        1 Q19      0.137000
     34 H17        -4.3340    0.1190    8.5570 ha        1 Q19      0.135000
     35 H19        -1.5720   -1.7100    5.7670 ha        1 Q19      0.164000
     36 H22        -4.2060   -1.9240    9.5950 hc        1 Q19      0.064700
     37 H22A       -2.8370   -0.8240   10.0690 hc        1 Q19      0.064700
     38 H22B       -2.6800   -2.6210   10.2920 hc        1 Q19      0.064700
@<TRIPOS>BOND
     1    1    2 ar  
     2    1    6 ar  
     3    1   11 1   
     4    2    3 ar  
     5    3    4 ar  
     6    3   12 1   
     7    4    5 ar  
     8    5    6 ar  
     9    5    7 ar  
    10    6   10 ar  
    11    7    8 ar  
    12    7   23 1   
    13    8    9 ar  
    14    8   14 1   
    15    9   10 ar  
    16    9   13 1   
    17   10   24 1   
    18   11   25 1   
    19   11   26 1   
    20   12   27 1   
    21   12   28 1   
    22   13   29 1   
    23   13   30 1   
    24   13   31 1   
    25   14   15 ar  
    26   14   19 ar  
    27   15   16 ar  
    28   15   32 1   
    29   16   17 ar  
    30   16   33 1   
    31   17   18 ar  
    32   17   34 1   
    33   18   19 ar  
    34   18   20 1   
    35   19   35 1   
    36   20   21 2   
    37   20   22 1   
    38   22   36 1   
    39   22   37 1   
    40   22   38 1   
@<TRIPOS>SUBSTRUCTURE
     1 Q19         1 TEMP              0 ****  ****    0 ROOT
