@<TRIPOS>MOLECULE
Q19
   38    40     1     0     0
SMALL
bcc


@<TRIPOS>ATOM
      1 C1          0.0540   -0.0500   -0.0310 ca        1 Q19      0.724200
      2 N2          1.4020   -0.0190   -0.0460 nb        1 Q19     -0.822000
      3 C3          2.0550    0.0180    1.1980 ca        1 Q19      0.902900
      4 N4          1.4450    0.0070    2.4180 nb        1 Q19     -0.787000
      5 C5          0.0720   -0.0030    2.4190 ca        1 Q19      0.479600
      6 C6         -0.7020   -0.0310    1.2200 ca        1 Q19     -0.325600
      7 C7         -0.6250    0.0090    3.6700 ca        1 Q19     -0.183300
      8 C8         -2.0040    0.0010    3.7200 cp        1 Q19     -0.002000
      9 C9         -2.7650   -0.0400    2.5170 ca        1 Q19     -0.097300
     10 C10        -2.1090   -0.0580    1.3010 ca        1 Q19     -0.080000
     11 N11        -0.6140   -0.1690   -1.2420 nh        1 Q19     -0.945500
     12 N12         3.4510    0.1450    1.1580 nh        1 Q19     -0.923500
     13 C13        -4.2470   -0.0730    2.5480 c3        1 Q19     -0.052800
     14 C14        -2.6600    0.0260    5.0310 cp        1 Q19     -0.056000
     15 C15        -3.6060    1.0110    5.3430 ca        1 Q19     -0.088000
     16 C16        -4.2000    1.0370    6.6040 ca        1 Q19     -0.148000
     17 C17        -3.8610    0.0850    7.5630 ca        1 Q19     -0.088000
     18 C18        -2.9170   -0.9050    7.2650 ca        1 Q19     -0.177600
     19 C19        -2.3170   -0.9270    5.9990 ca        1 Q19     -0.060000
     20 C20        -2.5290   -1.9340    8.2550 c         1 Q19      0.576700
     21 O21        -1.7530   -2.8540    7.9610 o         1 Q19     -0.533100
     22 C22        -3.1070   -1.8210    9.6300 c3        1 Q19     -0.198100
     23 H7         -0.0370    0.0280    4.6030 ha        1 Q19      0.158000
     24 H10        -2.7180   -0.1060    0.3850 ha        1 Q19      0.125000
     25 HN11       -0.0900   -0.0480   -2.0780 hn        1 Q19      0.424300
     26 HN1A       -1.5520    0.1510   -1.2640 hn        1 Q19      0.424300
     27 HN12        3.9330   -0.0840    1.9970 hn        1 Q19      0.423300
     28 HN1B        3.8940   -0.1310    0.3130 hn        1 Q19      0.423300
     29 H13        -4.6180   -0.5820    3.4720 hc        1 Q19      0.045367
     30 H13A       -4.6550    0.9690    2.5330 hc        1 Q19      0.045367
     31 H13B       -4.6520   -0.6190    1.6590 hc        1 Q19      0.045367
     32 H15        -3.8760    1.7660    4.5900 ha        1 Q19      0.141000
     33 H16        -4.9390    1.8160    6.8430 ha        1 Q19      0.137000
     34 H17        -4.3410    0.1190    8.5530 ha        1 Q19      0.135000
     35 H19        -1.5720   -1.7080    5.7700 ha        1 Q19      0.164000
     36 H22        -2.8560   -0.8270   10.0710 hc        1 Q19      0.064700
     37 H22A       -2.6960   -2.6240   10.2900 hc        1 Q19      0.064700
     38 H22B       -4.2190   -1.9280    9.5840 hc        1 Q19      0.064700
@<TRIPOS>BOND
     1    1    2 ar  
     2    1    6 ar  
     3    1   11 1   
     4    2    3 ar  
     5    3    4 ar  
     6    3   12 1   
     7    4    5 ar  
     8    5    6 ar  
     9    5    7 ar  
    10    6   10 ar  
    11    7    8 ar  
    12    7   23 1   
    13    8    9 ar  
    14    8   14 1   
    15    9   10 ar  
    16    9   13 1   
    17   10   24 1   
    18   11   25 1   
    19   11   26 1   
    20   12   27 1   
    21   12   28 1   
    22   13   29 1   
    23   13   30 1   
    24   13   31 1   
    25   14   15 ar  
    26   14   19 ar  
    27   15   16 ar  
    28   15   32 1   
    29   16   17 ar  
    30   16   33 1   
    31   17   18 ar  
    32   17   34 1   
    33   18   19 ar  
    34   18   20 1   
    35   19   35 1   
    36   20   21 2   
    37   20   22 1   
    38   22   36 1   
    39   22   37 1   
    40   22   38 1   
@<TRIPOS>SUBSTRUCTURE
     1 Q19         1 TEMP              0 ****  ****    0 ROOT
