@<TRIPOS>MOLECULE
Q19
   40    42     1     0     0
SMALL
bcc


@<TRIPOS>ATOM
      1 C1          0.0480   -0.0410    0.0010 ca        1 Q19      0.540200
      2 N2          1.3890   -0.0760   -0.0290 nb        1 Q19     -0.674000
      3 C3          2.0070   -0.0760    1.2170 ca        1 Q19      0.691900
      4 N4          1.4080   -0.0460    2.4260 nb        1 Q19     -0.572000
      5 C5          0.0390   -0.0110    2.4380 ca        1 Q19      0.432600
      6 C6         -0.7320   -0.0060    1.2080 ca        1 Q19     -0.205600
      7 C7         -0.6620    0.0210    3.6790 ca        1 Q19     -0.143300
      8 C8         -2.0490    0.0520    3.7210 cp        1 Q19      0.069000
      9 C9         -2.7990    0.0470    2.5000 ca        1 Q19      0.063700
     10 C10        -2.1340    0.0220    1.2800 ca        1 Q19     -0.175000
     11 N11        -0.6500   -0.0420   -1.3040 n4        1 Q19     -0.829300
     12 N12         3.4980   -0.1180    1.2000 n4        1 Q19     -0.807300
     13 C13        -4.2780    0.0460    2.5120 c3        1 Q19     -0.100800
     14 C14        -2.6970    0.0550    5.0280 cp        1 Q19     -0.138000
     15 C15        -3.7190    0.9650    5.3480 ca        1 Q19     -0.075000
     16 C16        -4.2850    0.9570    6.6190 ca        1 Q19     -0.130000
     17 C17        -3.8510    0.0450    7.5840 ca        1 Q19     -0.039000
     18 C18        -2.8330   -0.8640    7.2790 ca        1 Q19     -0.165600
     19 C19        -2.2560   -0.8510    6.0030 ca        1 Q19     -0.052000
     20 C20        -2.3190   -1.8490    8.2710 c         1 Q19      0.578700
     21 O21        -1.3040   -2.5070    8.0140 o         1 Q19     -0.523100
     22 C22        -3.0700   -1.9960    9.5490 c3        1 Q19     -0.200100
     23 H7         -0.0850    0.0200    4.6250 ha        1 Q19      0.206000
     24 H10        -2.7440    0.0150    0.3620 ha        1 Q19      0.145000
     25 HN11       -1.2250    0.8110   -1.3710 hn        1 Q19      0.490800
     26 HN1A       -1.2600   -0.8710   -1.3510 hn        1 Q19      0.490800
     27 HN12        3.8580    0.7060    0.6990 hn        1 Q19      0.494467
     28 HN1B        3.8590   -0.1140    2.1690 hn        1 Q19      0.494467
     29 H13        -4.6590    1.1020    2.5130 hc        1 Q19      0.091367
     30 H13A       -4.6930   -0.4710    1.6110 hc        1 Q19      0.091367
     31 H13B       -4.6740   -0.4650    3.4280 hc        1 Q19      0.091367
     32 H15        -4.0600    1.7010    4.6030 ha        1 Q19      0.140000
     33 H16        -5.0800    1.6790    6.8680 ha        1 Q19      0.167000
     34 H17        -4.3120    0.0500    8.5860 ha        1 Q19      0.167000
     35 H19        -1.4540   -1.5760    5.7790 ha        1 Q19      0.159000
     36 H22        -2.6500   -2.8410   10.1490 hc        1 Q19      0.080367
     37 H22A       -2.9850   -1.0570   10.1510 hc        1 Q19      0.080367
     38 H22B       -4.1500   -2.2000    9.3450 hc        1 Q19      0.080367
     39 H113        0.0130   -0.0650   -2.0950 hn        1 Q19      0.490800
     40 H123        3.8110   -0.9760    0.7240 hn        1 Q19      0.494467
@<TRIPOS>BOND
     1    1    2 ar  
     2    1    6 ar  
     3    1   11 1   
     4    2    3 ar  
     5    3    4 ar  
     6    3   12 1   
     7    4    5 ar  
     8    5    6 ar  
     9    5    7 ar  
    10    6   10 ar  
    11    7    8 ar  
    12    7   23 1   
    13    8    9 ar  
    14    8   14 1   
    15    9   10 ar  
    16    9   13 1   
    17   10   24 1   
    18   11   25 1   
    19   11   26 1   
    20   11   39 1   
    21   12   27 1   
    22   12   28 1   
    23   12   40 1   
    24   13   29 1   
    25   13   30 1   
    26   13   31 1   
    27   14   15 ar  
    28   14   19 ar  
    29   15   16 ar  
    30   15   32 1   
    31   16   17 ar  
    32   16   33 1   
    33   17   18 ar  
    34   17   34 1   
    35   18   19 ar  
    36   18   20 1   
    37   19   35 1   
    38   20   21 2   
    39   20   22 1   
    40   22   36 1   
    41   22   37 1   
    42   22   38 1   
@<TRIPOS>SUBSTRUCTURE
     1 Q19         1 TEMP              0 ****  ****    0 ROOT
