@<TRIPOS>MOLECULE
Q1A
   56    59     1     0     0
SMALL
bcc


@<TRIPOS>ATOM
      1 N1          2.2910    0.7130    1.5770 nc        1 Q1A     -0.395300
      2 C10         7.3500    0.0770    0.4680 ca        1 Q1A     -0.074000
      3 C13         7.6460    1.1770   -2.0940 ca        1 Q1A     -0.096500
      4 C15        10.1080    0.8650   -1.9960 cp        1 Q1A     -0.079000
      5 C17        11.5790    0.2680   -3.8420 ca        1 Q1A     -0.073000
      6 C20        13.4900    2.3610   -1.3640 ca        1 Q1A      0.480200
      7 C21        12.1110    2.9780    0.3810 ca        1 Q1A      0.430200
      8 C22        11.0310    2.2910   -0.1580 ca        1 Q1A     -0.189300
      9 C01        -1.6100    1.6710    2.5910 c3        1 Q1A     -0.103767
     10 C02        -0.9980    0.3410    3.0210 c3        1 Q1A     -0.106300
     11 C03        -0.6250    0.3980    4.5010 c3        1 Q1A     -0.103767
     12 C04        -1.9890   -0.7910    2.7790 c3        1 Q1A     -0.103767
     13 C05         0.2310    0.0880    2.2190 cc        1 Q1A      0.411000
     14 C06         0.6550   -0.9040    1.3310 cd        1 Q1A     -0.331600
     15 C07         1.9810   -0.4620    0.9380 cd        1 Q1A      0.307200
     16 N01         2.8540   -1.1440   -0.0010 n4        1 Q1A     -0.592500
     17 C08         4.3210   -0.9600    0.3000 c         1 Q1A      0.492100
     18 O01         4.9960   -1.9490    0.5170 o         1 Q1A     -0.278100
     19 N02         4.8860    0.4280    0.3420 n4        1 Q1A     -0.475200
     20 C09         6.2240    0.5020   -0.2650 ca        1 Q1A     -0.103400
     21 C11         8.6170    0.2240   -0.0890 ca        1 Q1A     -0.096500
     22 C12         8.7840    0.7700   -1.3720 cp        1 Q1A      0.057000
     23 C14         6.3700    1.0470   -1.5570 ca        1 Q1A     -0.074000
     24 C16        10.3120    0.2370   -3.2100 ca        1 Q1A     -0.053000
     25 C18        12.6290    0.9380   -3.2640 ca        1 Q1A     -0.114000
     26 C19        12.4530    1.6150   -2.0280 ca        1 Q1A     -0.124300
     27 N03        14.8360    2.4340   -1.9780 n4        1 Q1A     -0.825300
     28 N04        13.3350    3.0170   -0.2070 nb        1 Q1A     -0.606000
     29 C1         11.1810    1.5850   -1.3780 ca        1 Q1A      0.017000
     30 O1          1.2840    1.0410    2.3210 os        1 Q1A     -0.015100
     31 H1          7.2520   -0.3760    1.4710 ha        1 Q1A      0.172500
     32 H2          7.7640    1.6130   -3.1030 ha        1 Q1A      0.193000
     33 H3         11.7070   -0.2570   -4.8060 ha        1 Q1A      0.188000
     34 H4         12.0430    3.5470    1.3330 h4        1 Q1A      0.080100
     35 H5         10.0600    2.3040    0.3600 ha        1 Q1A      0.163000
     36 H6         -0.8840    2.5060    2.7460 hc        1 Q1A      0.068033
     37 H7         -2.5200    1.8710    3.2110 hc        1 Q1A      0.068033
     38 H8         -1.9150    1.6400    1.5180 hc        1 Q1A      0.068033
     39 H9         -1.5460    0.6120    5.0990 hc        1 Q1A      0.068033
     40 H10         0.1160    1.2120    4.6870 hc        1 Q1A      0.068033
     41 H11        -0.2010   -0.5760    4.8420 hc        1 Q1A      0.068033
     42 H12        -2.9120   -0.6000    3.3820 hc        1 Q1A      0.068033
     43 H13        -2.2790   -0.8430    1.7020 hc        1 Q1A      0.068033
     44 H14        -1.5600   -1.7720    3.0950 hc        1 Q1A      0.068033
     45 H15         0.1100   -1.7930    1.0130 ha        1 Q1A      0.230000
     46 H16         2.6480   -2.1670    0.0610 hn        1 Q1A      0.517300
     47 H17         4.2680    1.1130   -0.1270 hn        1 Q1A      0.509800
     48 H18         9.4990   -0.1140    0.4860 ha        1 Q1A      0.193000
     49 H19         5.5050    1.3930   -2.1490 ha        1 Q1A      0.172500
     50 H20         9.4920   -0.3120   -3.7040 ha        1 Q1A      0.165000
     51 H21        13.6030    0.9400   -3.7790 ha        1 Q1A      0.147000
     52 H22        15.2140    1.4830   -2.0710 hn        1 Q1A      0.482800
     53 H23        14.7590    2.8690   -2.9050 hn        1 Q1A      0.482800
     54 H012        2.6350   -0.8220   -0.9620 hn        1 Q1A      0.517300
     55 H022        4.9640    0.6940    1.3470 hn        1 Q1A      0.509800
     56 H033       15.4790    2.9960   -1.3950 hn        1 Q1A      0.482800
@<TRIPOS>BOND
     1    1   15 2   
     2    1   30 1   
     3    2   20 ar  
     4    2   21 ar  
     5    2   31 1   
     6    3   22 ar  
     7    3   23 ar  
     8    3   32 1   
     9    4   22 1   
    10    4   24 ar  
    11    4   29 ar  
    12    5   24 ar  
    13    5   25 ar  
    14    5   33 1   
    15    6   26 ar  
    16    6   27 1   
    17    6   28 ar  
    18    7    8 ar  
    19    7   28 ar  
    20    7   34 1   
    21    8   29 ar  
    22    8   35 1   
    23    9   10 1   
    24    9   36 1   
    25    9   37 1   
    26    9   38 1   
    27   10   11 1   
    28   10   12 1   
    29   10   13 1   
    30   11   39 1   
    31   11   40 1   
    32   11   41 1   
    33   12   42 1   
    34   12   43 1   
    35   12   44 1   
    36   13   14 2   
    37   13   30 1   
    38   14   15 1   
    39   14   45 1   
    40   15   16 1   
    41   16   17 1   
    42   16   46 1   
    43   16   54 1   
    44   17   18 2   
    45   17   19 1   
    46   19   20 1   
    47   19   47 1   
    48   19   55 1   
    49   20   23 ar  
    50   21   22 ar  
    51   21   48 1   
    52   23   49 1   
    53   24   50 1   
    54   25   26 ar  
    55   25   51 1   
    56   26   29 ar  
    57   27   52 1   
    58   27   53 1   
    59   27   56 1   
@<TRIPOS>SUBSTRUCTURE
     1 Q1A         1 TEMP              0 ****  ****    0 ROOT
