@<TRIPOS>MOLECULE
Q1A
   53    56     1     0     0
SMALL
bcc


@<TRIPOS>ATOM
      1 N1          5.9230    0.9650   -1.2530 nc        1 Q1A     -0.418300
      2 C10        -0.5970    0.0990   -0.1820 ca        1 Q1A     -0.158000
      3 C13        -2.3570    2.2610    0.0130 ca        1 Q1A     -0.095500
      4 C15        -4.2130    0.7540    0.6780 cp        1 Q1A     -0.040000
      5 C17        -6.0310    1.2180    2.2180 ca        1 Q1A     -0.146000
      6 C20        -7.2490   -1.2260   -0.3950 ca        1 Q1A      0.650200
      7 C21        -5.5280   -1.5990   -1.9120 ca        1 Q1A      0.429200
      8 C22        -4.6430   -0.7720   -1.2480 ca        1 Q1A     -0.282300
      9 C01         7.7000   -2.7060   -0.4820 c3        1 Q1A     -0.089767
     10 C02         7.1650   -1.8400    0.6540 c3        1 Q1A     -0.085300
     11 C03         6.3900   -2.7080    1.6370 c3        1 Q1A     -0.089767
     12 C04         8.3320   -1.1700    1.3740 c3        1 Q1A     -0.089767
     13 C05         6.2640   -0.7980    0.0990 cc        1 Q1A      0.277000
     14 C06         4.9400   -0.4640    0.2730 cd        1 Q1A     -0.341600
     15 C07         4.7410    0.6930   -0.6170 cd        1 Q1A      0.432200
     16 N01         3.5760    1.4460   -0.7640 n         1 Q1A     -0.529400
     17 C08         2.3010    0.9060   -0.4630 c         1 Q1A      0.779100
     18 O01         2.1810   -0.1800    0.1410 o         1 Q1A     -0.602100
     19 N02         1.1880    1.6620   -0.8850 n         1 Q1A     -0.460100
     20 C09        -0.1290    1.4020   -0.4500 ca        1 Q1A      0.062600
     21 C11        -1.9260   -0.1050    0.1750 ca        1 Q1A     -0.095500
     22 C12        -2.8220    0.9650    0.2740 cp        1 Q1A     -0.058000
     23 C14        -1.0340    2.4850   -0.3440 ca        1 Q1A     -0.158000
     24 C16        -4.7000    1.4100    1.7930 ca        1 Q1A     -0.097000
     25 C18        -6.8670    0.3710    1.5300 ca        1 Q1A     -0.093000
     26 C19        -6.4060   -0.3180    0.3800 ca        1 Q1A     -0.178300
     27 N03        -8.5890   -1.4030   -0.0220 nh        1 Q1A     -0.926500
     28 N04        -6.8000   -1.8520   -1.5050 nb        1 Q1A     -0.742000
     29 C1         -5.0720   -0.1150   -0.0640 ca        1 Q1A      0.029000
     30 O1          6.8280    0.1050   -0.8370 os        1 Q1A     -0.114100
     31 H1          0.0860   -0.7640   -0.2410 ha        1 Q1A      0.151000
     32 H2         -3.0500    3.1130    0.0900 ha        1 Q1A      0.143000
     33 H3         -6.3900    1.7570    3.1070 ha        1 Q1A      0.136000
     34 H4         -5.2380   -2.1290   -2.8380 h4        1 Q1A      0.021100
     35 H5         -3.6240   -0.6120   -1.6260 ha        1 Q1A      0.153000
     36 H6          6.8610   -3.2290   -0.9990 hc        1 Q1A      0.045144
     37 H7          8.2420   -2.0730   -1.2240 hc        1 Q1A      0.045144
     38 H8          8.4040   -3.4700   -0.0740 hc        1 Q1A      0.045144
     39 H9          7.0640   -3.4940    2.0550 hc        1 Q1A      0.045144
     40 H10         5.9950   -2.0890    2.4780 hc        1 Q1A      0.045144
     41 H11         5.5310   -3.2050    1.1250 hc        1 Q1A      0.045144
     42 H12         8.8870   -0.5060    0.6680 hc        1 Q1A      0.045144
     43 H13         7.9610   -0.5560    2.2290 hc        1 Q1A      0.045144
     44 H14         9.0300   -1.9480    1.7660 hc        1 Q1A      0.045144
     45 H15         4.1780   -0.9250    0.8970 ha        1 Q1A      0.205000
     46 H16         3.6350    2.2140   -1.3990 hn        1 Q1A      0.326500
     47 H17         1.3450    2.6020   -1.1800 hn        1 Q1A      0.312500
     48 H18        -2.2760   -1.1290    0.3860 ha        1 Q1A      0.143000
     49 H19        -0.7030    3.5150   -0.5460 ha        1 Q1A      0.151000
     50 H20        -4.0460    2.0870    2.3640 ha        1 Q1A      0.138000
     51 H21        -7.9040    0.2510    1.8780 ha        1 Q1A      0.132000
     52 H22        -8.7430   -1.4110    0.9610 hn        1 Q1A      0.405300
     53 H23        -9.0840   -2.1160   -0.5120 hn        1 Q1A      0.405300
@<TRIPOS>BOND
     1    1   15 2   
     2    1   30 1   
     3    2   20 ar  
     4    2   21 ar  
     5    2   31 1   
     6    3   22 ar  
     7    3   23 ar  
     8    3   32 1   
     9    4   22 1   
    10    4   24 ar  
    11    4   29 ar  
    12    5   24 ar  
    13    5   25 ar  
    14    5   33 1   
    15    6   26 ar  
    16    6   27 1   
    17    6   28 ar  
    18    7    8 ar  
    19    7   28 ar  
    20    7   34 1   
    21    8   29 ar  
    22    8   35 1   
    23    9   10 1   
    24    9   36 1   
    25    9   37 1   
    26    9   38 1   
    27   10   11 1   
    28   10   12 1   
    29   10   13 1   
    30   11   39 1   
    31   11   40 1   
    32   11   41 1   
    33   12   42 1   
    34   12   43 1   
    35   12   44 1   
    36   13   14 2   
    37   13   30 1   
    38   14   15 1   
    39   14   45 1   
    40   15   16 1   
    41   16   17 1   
    42   16   46 1   
    43   17   18 2   
    44   17   19 1   
    45   19   20 1   
    46   19   47 1   
    47   20   23 ar  
    48   21   22 ar  
    49   21   48 1   
    50   23   49 1   
    51   24   50 1   
    52   25   26 ar  
    53   25   51 1   
    54   26   29 ar  
    55   27   52 1   
    56   27   53 1   
@<TRIPOS>SUBSTRUCTURE
     1 Q1A         1 TEMP              0 ****  ****    0 ROOT
