@<TRIPOS>MOLECULE
Q1A
   53    56     1     0     0
SMALL
bcc


@<TRIPOS>ATOM
      1 N1         -0.0320    0.3250    0.0810 nc        1 Q1A     -0.418300
      2 C10         6.5820    0.9230   -0.4690 ca        1 Q1A     -0.158000
      3 C13         7.9680   -0.0360   -2.6980 ca        1 Q1A     -0.095500
      4 C15        10.1470    0.4610   -1.6200 cp        1 Q1A     -0.040000
      5 C17        12.2230   -0.7800   -1.8150 ca        1 Q1A     -0.146000
      6 C20        13.0380    2.8650   -1.2400 ca        1 Q1A      0.650200
      7 C21        11.0450    4.0570   -1.1380 ca        1 Q1A      0.429200
      8 C22        10.2600    2.9330   -1.3030 ca        1 Q1A     -0.282300
      9 C01        -0.9280    1.2160    4.0350 c3        1 Q1A     -0.089767
     10 C02        -0.2450   -0.0960    3.6620 c3        1 Q1A     -0.085300
     11 C03         0.8970   -0.3710    4.6320 c3        1 Q1A     -0.089767
     12 C04        -1.2590   -1.2340    3.7310 c3        1 Q1A     -0.089767
     13 C05         0.2930    0.0030    2.2820 cc        1 Q1A      0.277000
     14 C06         1.5450   -0.0950    1.7160 cd        1 Q1A     -0.341600
     15 C07         1.3070    0.1150    0.2780 cd        1 Q1A      0.432200
     16 N01         2.2540    0.0540   -0.7450 ns        1 Q1A     -0.529400
     17 C08         3.6300    0.2790   -0.4970 c         1 Q1A      0.779100
     18 O01         4.0800    0.3300    0.6670 o         1 Q1A     -0.602100
     19 N02         4.4520    0.4420   -1.6310 ns        1 Q1A     -0.460100
     20 C09         5.8600    0.4200   -1.5710 ca        1 Q1A      0.062600
     21 C11         7.9730    0.9410   -0.4940 ca        1 Q1A     -0.095500
     22 C12         8.6830    0.4680   -1.6040 cp        1 Q1A     -0.058000
     23 C14         6.5790   -0.0640   -2.6900 ca        1 Q1A     -0.158000
     24 C16        10.8140   -0.7350   -1.8080 ca        1 Q1A     -0.097000
     25 C18        12.9580    0.3670   -1.6300 ca        1 Q1A     -0.093000
     26 C19        12.3110    1.6130   -1.4360 ca        1 Q1A     -0.178300
     27 N03        14.4400    2.8580   -1.2840 nv        1 Q1A     -0.926500
     28 N04        12.4030    4.0480   -1.0840 nb        1 Q1A     -0.742000
     29 C1         10.8920    1.6680   -1.4460 ca        1 Q1A      0.029000
     30 O1         -0.6410    0.2540    1.2450 os        1 Q1A     -0.114100
     31 H1          6.0530    1.2930    0.4250 ha        1 Q1A      0.151000
     32 H2          8.5130   -0.4140   -3.5760 ha        1 Q1A      0.143000
     33 H3         12.7260   -1.7460   -1.9710 ha        1 Q1A      0.136000
     34 H4         10.5970    5.0620   -1.0250 h4        1 Q1A      0.021100
     35 H5          9.1650    3.0050   -1.3340 ha        1 Q1A      0.153000
     36 H6         -1.3630    1.1360    5.0600 hc        1 Q1A      0.045144
     37 H7         -0.1930    2.0550    4.0210 hc        1 Q1A      0.045144
     38 H8         -1.7460    1.4420    3.3090 hc        1 Q1A      0.045144
     39 H9          1.6490    0.4540    4.5930 hc        1 Q1A      0.045144
     40 H10         0.4960   -0.4430    5.6710 hc        1 Q1A      0.045144
     41 H11         1.4050   -1.3310    4.3750 hc        1 Q1A      0.045144
     42 H12        -2.0840   -1.0570    2.9990 hc        1 Q1A      0.045144
     43 H13        -0.7680   -2.2070    3.4910 hc        1 Q1A      0.045144
     44 H14        -1.6910   -1.2920    4.7580 hc        1 Q1A      0.045144
     45 H15         2.5110   -0.2700    2.1820 ha        1 Q1A      0.205000
     46 H16         1.9020    0.2000   -1.6680 hn        1 Q1A      0.326500
     47 H17         4.0740    0.1960   -2.5210 hn        1 Q1A      0.312500
     48 H18         8.5220    1.3330    0.3770 ha        1 Q1A      0.143000
     49 H19         6.0490   -0.4630   -3.5680 ha        1 Q1A      0.151000
     50 H20        10.2450   -1.6670   -1.9510 ha        1 Q1A      0.138000
     51 H21        14.0560    0.3030   -1.6530 ha        1 Q1A      0.132000
     52 H22        14.8850    3.7140   -1.0320 hn        1 Q1A      0.405300
     53 H23        14.8580    2.0530   -0.8770 hn        1 Q1A      0.405300
@<TRIPOS>BOND
     1    1   15 2   
     2    1   30 1   
     3    2   20 ar  
     4    2   21 ar  
     5    2   31 1   
     6    3   22 ar  
     7    3   23 ar  
     8    3   32 1   
     9    4   22 1   
    10    4   24 ar  
    11    4   29 ar  
    12    5   24 ar  
    13    5   25 ar  
    14    5   33 1   
    15    6   26 ar  
    16    6   27 1   
    17    6   28 ar  
    18    7    8 ar  
    19    7   28 ar  
    20    7   34 1   
    21    8   29 ar  
    22    8   35 1   
    23    9   10 1   
    24    9   36 1   
    25    9   37 1   
    26    9   38 1   
    27   10   11 1   
    28   10   12 1   
    29   10   13 1   
    30   11   39 1   
    31   11   40 1   
    32   11   41 1   
    33   12   42 1   
    34   12   43 1   
    35   12   44 1   
    36   13   14 2   
    37   13   30 1   
    38   14   15 1   
    39   14   45 1   
    40   15   16 1   
    41   16   17 1   
    42   16   46 1   
    43   17   18 2   
    44   17   19 1   
    45   19   20 1   
    46   19   47 1   
    47   20   23 ar  
    48   21   22 ar  
    49   21   48 1   
    50   23   49 1   
    51   24   50 1   
    52   25   26 ar  
    53   25   51 1   
    54   26   29 ar  
    55   27   52 1   
    56   27   53 1   
@<TRIPOS>SUBSTRUCTURE
     1 Q1A         1 TEMP              0 ****  ****    0 ROOT
