@<TRIPOS>MOLECULE
Q1T
   50    51     1     0     0
SMALL
bcc


@<TRIPOS>ATOM
      1 N01         0.0000    0.0000    0.0000 nb        1 Q1T     -0.625000
      2 C02         1.3240    0.0000    0.0000 ca        1 Q1T      0.508200
      3 N02         2.0130    0.0020   -1.2070 nv        1 Q1T     -0.636500
      4 C03         2.0320    0.0000    1.1970 ca        1 Q1T     -0.204300
      5 C04         1.3340   -0.0020    2.3920 ca        1 Q1T     -0.005300
      6 C05        -0.0540   -0.0030    2.3480 ca        1 Q1T     -0.222300
      7 C06        -0.6920   -0.0020    1.1230 ca        1 Q1T      0.347600
      8 C07         2.0630   -0.0020    3.7100 c3        1 Q1T      0.040200
      9 C08        -2.1980   -0.0020    1.0690 c3        1 Q1T     -0.110700
     10 C09        -2.6780    1.1810    0.2260 c3        1 Q1T     -0.059100
     11 C11        -4.1840    1.1810    0.1720 ca        1 Q1T      0.040700
     12 C12        -4.9060    1.8660    1.1280 ca        1 Q1T     -0.117000
     13 C13        -6.3020    1.8680    1.0800 ca        1 Q1T      0.102000
     14 C14        -6.9610    1.1760    0.0630 ca        1 Q1T     -0.199000
     15 C15        -6.2260    0.4910   -0.8910 ca        1 Q1T      0.065600
     16 C16        -4.8370    0.5000   -0.8380 ca        1 Q1T     -0.150000
     17 C17        -7.0540    2.5770    2.0710 cg        1 Q1T      0.206800
     18 N18        -7.6660    3.1270    2.8540 n1        1 Q1T     -0.347800
     19 C19        -6.2800   -1.1590   -2.6500 c3        1 Q1T      0.177100
     20 N19        -6.8820   -0.2030   -1.9110 nh        1 Q1T     -0.386000
     21 C20        -8.3450   -0.2080   -1.9710 c3        1 Q1T      0.076800
     22 C21        -8.8240    0.9720   -2.8170 c3        1 Q1T     -0.067200
     23 N22       -10.2930    0.9680   -2.8770 ny        1 Q1T     -0.025000
     24 C23       -10.7910    2.0910   -3.6840 c3        1 Q1T      0.055100
     25 H021        2.1220   -0.9470   -1.5070 hn        1 Q1T      0.266800
     26 H022        2.0870    0.6780   -1.9420 hn        1 Q1T      0.266800
     27 H03         3.0840    0.2570    1.1900 ha        1 Q1T      0.133000
     28 H05        -0.8150    0.0040    3.1180 ha        1 Q1T      0.124000
     29 H071        2.0900    0.8610    4.3640 hc        1 Q1T      0.014367
     30 H072        3.0750   -0.0720    3.3300 hc        1 Q1T      0.014367
     31 H073        1.9670   -0.8840    4.3330 hc        1 Q1T      0.014367
     32 H081       -2.5390   -1.0190    0.9210 hc        1 Q1T      0.011700
     33 H082       -2.5280   -0.1360    2.0920 hc        1 Q1T      0.011700
     34 H091       -1.8960    1.0420   -0.5110 hc        1 Q1T      0.074200
     35 H092       -1.9210    1.7580    0.7440 hc        1 Q1T      0.074200
     36 H12        -4.2060    2.0230    1.9390 ha        1 Q1T      0.140000
     37 H16        -4.1750   -0.1250   -1.4250 ha        1 Q1T      0.137000
     38 H14        -7.9600    1.5820   -0.0430 ha        1 Q1T      0.105000
     39 H191       -5.4150   -0.6350   -3.0380 h1        1 Q1T      0.025700
     40 H192       -6.0100   -1.9170   -1.9250 h1        1 Q1T      0.025700
     41 H193       -6.9060   -1.2280   -3.5320 h1        1 Q1T      0.025700
     42 H201       -8.3420   -1.1430   -2.5180 h1        1 Q1T      0.083200
     43 H202       -8.5890    0.0010   -0.9360 h1        1 Q1T      0.083200
     44 H211       -8.7070    1.7650   -2.0890 hx        1 Q1T      0.080200
     45 H212       -8.4730    1.0400   -3.8400 hx        1 Q1T      0.080200
     46 H22       -10.3620    0.1540   -3.4560 hn        1 Q1T      0.275300
     47 H231      -10.7800    3.1700   -3.5930 hx        1 Q1T      0.063367
     48 H232      -11.7060    1.5140   -3.7360 hx        1 Q1T      0.063367
     49 H233      -10.2640    1.8350   -4.5950 hx        1 Q1T      0.063367
     50 H222      -10.5240    1.1560   -1.9220 hn        1 Q1T      0.275300
@<TRIPOS>BOND
     1    1    2 ar  
     2    1    7 ar  
     3    2    3 1   
     4    2    4 ar  
     5    3   25 1   
     6    3   26 1   
     7    4    5 ar  
     8    4   27 1   
     9    5    6 ar  
    10    5    8 1   
    11    6    7 ar  
    12    6   28 1   
    13    7    9 1   
    14    8   29 1   
    15    8   30 1   
    16    8   31 1   
    17    9   10 1   
    18    9   32 1   
    19    9   33 1   
    20   10   11 1   
    21   10   34 1   
    22   10   35 1   
    23   11   12 ar  
    24   11   16 ar  
    25   12   13 ar  
    26   12   36 1   
    27   13   14 ar  
    28   13   17 1   
    29   14   15 ar  
    30   14   38 1   
    31   15   16 ar  
    32   15   20 1   
    33   16   37 1   
    34   17   18 3   
    35   19   20 1   
    36   19   39 1   
    37   19   40 1   
    38   19   41 1   
    39   20   21 1   
    40   21   22 1   
    41   21   42 1   
    42   21   43 1   
    43   22   23 1   
    44   22   44 1   
    45   22   45 1   
    46   23   24 1   
    47   23   46 1   
    48   23   50 1   
    49   24   47 1   
    50   24   48 1   
    51   24   49 1   
@<TRIPOS>SUBSTRUCTURE
     1 Q1T         1 TEMP              0 ****  ****    0 ROOT
