@<TRIPOS>MOLECULE
Q20
   42    44     1     0     0
SMALL
bcc


@<TRIPOS>ATOM
      1 C1         -4.0780    0.2680   -0.7950 ca        1 Q20      0.724200
      2 N2         -4.8900   -0.3630    0.0780 nb        1 Q20     -0.824000
      3 C3         -4.2760   -1.1460    1.0690 ca        1 Q20      0.901900
      4 N4         -2.9320   -1.2530    1.2800 nb        1 Q20     -0.788000
      5 C5         -2.1160   -0.5900    0.3950 ca        1 Q20      0.476600
      6 C6         -2.6230    0.1870   -0.6890 ca        1 Q20     -0.323600
      7 C7         -1.7240    0.8170   -1.5760 ca        1 Q20     -0.085000
      8 C8         -0.3580    0.7160   -1.4080 ca        1 Q20     -0.084300
      9 C9          0.1580   -0.0410   -0.3170 cp        1 Q20      0.012000
     10 C10        -0.6960   -0.6780    0.5570 ca        1 Q20     -0.183300
     11 N11        -4.6570    0.9720   -1.8420 nh        1 Q20     -0.945500
     12 N12        -5.1330   -1.9110    1.8710 nh        1 Q20     -0.924500
     13 C13         0.5700    1.3870   -2.3490 c3        1 Q20     -0.050800
     14 C14         1.6070   -0.1800   -0.1270 cp        1 Q20     -0.089000
     15 C15         2.4050    0.8700    0.3900 ca        1 Q20      0.176100
     16 C16         3.7840    0.6910    0.5780 ca        1 Q20     -0.228000
     17 C17         4.3730   -0.5260    0.2520 ca        1 Q20     -0.029000
     18 C18         3.6000   -1.5750   -0.2580 ca        1 Q20     -0.236600
     19 C19         2.2230   -1.3930   -0.4400 ca        1 Q20     -0.043000
     20 O20         1.7440    2.0440    0.6680 os        1 Q20     -0.319900
     21 C21         2.5020    3.0560    1.3500 c3        1 Q20      0.126400
     22 C22         1.5230    4.1650    1.6570 c3        1 Q20     -0.101100
     23 C23         4.2180   -2.8630   -0.6010 c         1 Q20      0.581500
     24 O24         5.4230   -3.0980   -0.4780 o         1 Q20     -0.536100
     25 H7         -2.1030    1.3950   -2.4330 ha        1 Q20      0.125000
     26 H10        -0.2940   -1.2670    1.3970 ha        1 Q20      0.155000
     27 HN11       -5.6410    1.1160   -1.8220 hn        1 Q20      0.423800
     28 HN1A       -4.1160    1.7000   -2.2410 hn        1 Q20      0.423800
     29 HN12       -6.0840   -1.6230    1.9010 hn        1 Q20      0.422800
     30 HN1B       -4.7520   -2.2410    2.7280 hn        1 Q20      0.422800
     31 H13         1.2590    2.0650   -1.7830 hc        1 Q20      0.046367
     32 H13A        1.1910    0.6280   -2.8870 hc        1 Q20      0.046367
     33 H13B        0.0160    1.9920   -3.1070 hc        1 Q20      0.046367
     34 H16         4.4090    1.5010    0.9790 ha        1 Q20      0.144000
     35 H17         5.4560   -0.6780    0.3940 ha        1 Q20      0.156000
     36 H19         1.6080   -2.2190   -0.8350 ha        1 Q20      0.145000
     37 H21         2.9410    2.6290    2.2890 h1        1 Q20      0.042200
     38 H21A        3.3240    3.4140    0.6760 h1        1 Q20      0.042200
     39 H22         2.0600    4.9890    2.1850 hc        1 Q20      0.051700
     40 H22A        1.0750    4.5630    0.7150 hc        1 Q20      0.051700
     41 H22B        0.6970    3.7880    2.3060 hc        1 Q20      0.051700
     42 H23         3.5150   -3.6360   -0.9880 h4        1 Q20     -0.001800
@<TRIPOS>BOND
     1    1    2 ar  
     2    1    6 ar  
     3    1   11 1   
     4    2    3 ar  
     5    3    4 ar  
     6    3   12 1   
     7    4    5 ar  
     8    5    6 ar  
     9    5   10 ar  
    10    6    7 ar  
    11    7    8 ar  
    12    7   25 1   
    13    8    9 ar  
    14    8   13 1   
    15    9   10 ar  
    16    9   14 1   
    17   10   26 1   
    18   11   27 1   
    19   11   28 1   
    20   12   29 1   
    21   12   30 1   
    22   13   31 1   
    23   13   32 1   
    24   13   33 1   
    25   14   15 ar  
    26   14   19 ar  
    27   15   16 ar  
    28   15   20 1   
    29   16   17 ar  
    30   16   34 1   
    31   17   18 ar  
    32   17   35 1   
    33   18   19 ar  
    34   18   23 1   
    35   19   36 1   
    36   20   21 1   
    37   21   22 1   
    38   21   37 1   
    39   21   38 1   
    40   22   39 1   
    41   22   40 1   
    42   22   41 1   
    43   23   24 2   
    44   23   42 1   
@<TRIPOS>SUBSTRUCTURE
     1 Q20         1 TEMP              0 ****  ****    0 ROOT
