@<TRIPOS>MOLECULE
Q20
   42    44     1     0     0
SMALL
bcc


@<TRIPOS>ATOM
      1 C1         -0.0090    0.0890   -0.0410 ca        1 Q20      0.724200
      2 N2          1.3340   -0.0350   -0.0670 nb        1 Q20     -0.824000
      3 C3          1.9910   -0.1230    1.1700 ca        1 Q20      0.901900
      4 N4          1.3860   -0.1830    2.3920 nb        1 Q20     -0.788000
      5 C5          0.0160   -0.0760    2.4040 ca        1 Q20      0.476600
      6 C6         -0.7580    0.0800    1.2150 ca        1 Q20     -0.323600
      7 C7         -2.1590    0.2140    1.3070 ca        1 Q20     -0.085000
      8 C8         -2.8070    0.1770    2.5250 ca        1 Q20     -0.084300
      9 C9         -2.0460    0.0020    3.7170 cp        1 Q20      0.012000
     10 C10        -0.6740   -0.1180    3.6580 ca        1 Q20     -0.183300
     11 N11        -0.6780    0.2740   -1.2430 nv        1 Q20     -0.945500
     12 N12         3.3930   -0.1000    1.1280 nv        1 Q20     -0.924500
     13 C13        -4.2800    0.3170    2.6010 c3        1 Q20     -0.050800
     14 C14        -2.7080   -0.0210    5.0270 cp        1 Q20     -0.089000
     15 C15        -3.4430   -1.1440    5.4820 ca        1 Q20      0.176100
     16 C16        -4.0430   -1.1360    6.7500 ca        1 Q20     -0.228000
     17 C17        -3.9190   -0.0170    7.5660 ca        1 Q20     -0.029000
     18 C18        -3.1960    1.1010    7.1330 ca        1 Q20     -0.236600
     19 C19        -2.5950    1.0870    5.8690 ca        1 Q20     -0.043000
     20 O20        -3.5290   -2.2000    4.6040 os        1 Q20     -0.319900
     21 C21        -4.1200   -3.4050    5.1130 c3        1 Q20      0.126400
     22 C22        -3.9680   -4.4330    4.0160 c3        1 Q20     -0.101100
     23 C23        -3.0600    2.2840    7.9930 c         1 Q20      0.581500
     24 O24        -3.5680    2.3760    9.1140 o         1 Q20     -0.536100
     25 H7         -2.7630    0.3640    0.3990 ha        1 Q20      0.125000
     26 H10        -0.0870   -0.2480    4.5810 ha        1 Q20      0.155000
     27 HN11       -0.1660    0.1520   -2.0860 hn        1 Q20      0.423800
     28 HN1A       -1.6320    0.0050   -1.2660 hn        1 Q20      0.423800
     29 HN12        3.8120   -0.3350    0.2590 hn        1 Q20      0.422800
     30 HN1B        3.8600   -0.4320    1.9400 hn        1 Q20      0.422800
     31 H13        -4.5520    1.2420    3.1700 hc        1 Q20      0.046367
     32 H13A       -4.7180   -0.5640    3.1360 hc        1 Q20      0.046367
     33 H13B       -4.7380    0.3810    1.5840 hc        1 Q20      0.046367
     34 H16        -4.6130   -2.0040    7.1090 ha        1 Q20      0.144000
     35 H17        -4.3880    0.0010    8.5640 ha        1 Q20      0.156000
     36 H19        -2.0180    1.9620    5.5250 ha        1 Q20      0.145000
     37 H21        -3.5840   -3.7230    6.0460 h1        1 Q20      0.042200
     38 H21A       -5.2020   -3.2140    5.3440 h1        1 Q20      0.042200
     39 H22        -4.4840   -4.0930    3.0870 hc        1 Q20      0.051700
     40 H22A       -2.8890   -4.5940    3.7800 hc        1 Q20      0.051700
     41 H22B       -4.4180   -5.3960    4.3550 hc        1 Q20      0.051700
     42 H23        -2.4560    3.1150    7.5620 h4        1 Q20     -0.001800
@<TRIPOS>BOND
     1    1    2 ar  
     2    1    6 ar  
     3    1   11 1   
     4    2    3 ar  
     5    3    4 ar  
     6    3   12 1   
     7    4    5 ar  
     8    5    6 ar  
     9    5   10 ar  
    10    6    7 ar  
    11    7    8 ar  
    12    7   25 1   
    13    8    9 ar  
    14    8   13 1   
    15    9   10 ar  
    16    9   14 1   
    17   10   26 1   
    18   11   27 1   
    19   11   28 1   
    20   12   29 1   
    21   12   30 1   
    22   13   31 1   
    23   13   32 1   
    24   13   33 1   
    25   14   15 ar  
    26   14   19 ar  
    27   15   16 ar  
    28   15   20 1   
    29   16   17 ar  
    30   16   34 1   
    31   17   18 ar  
    32   17   35 1   
    33   18   19 ar  
    34   18   23 1   
    35   19   36 1   
    36   20   21 1   
    37   21   22 1   
    38   21   37 1   
    39   21   38 1   
    40   22   39 1   
    41   22   40 1   
    42   22   41 1   
    43   23   24 2   
    44   23   42 1   
@<TRIPOS>SUBSTRUCTURE
     1 Q20         1 TEMP              0 ****  ****    0 ROOT
