@<TRIPOS>MOLECULE
Q20
   42    44     1     0     0
SMALL
bcc


@<TRIPOS>ATOM
      1 C1          0.0040    0.0570   -0.0400 ca        1 Q20      0.722200
      2 N2          1.3470   -0.0590   -0.0610 nb        1 Q20     -0.822000
      3 C3          1.9950   -0.2050    1.1760 ca        1 Q20      0.899900
      4 N4          1.3840   -0.2590    2.3950 nb        1 Q20     -0.787000
      5 C5          0.0180   -0.1170    2.4040 ca        1 Q20      0.475600
      6 C6         -0.7500    0.0500    1.2120 ca        1 Q20     -0.322600
      7 C7         -2.1520    0.1800    1.2990 ca        1 Q20     -0.085000
      8 C8         -2.8040    0.1560    2.5150 ca        1 Q20     -0.083300
      9 C9         -2.0460   -0.0070    3.7110 cp        1 Q20      0.012000
     10 C10        -0.6760   -0.1400    3.6570 ca        1 Q20     -0.183300
     11 N11        -0.6700    0.1190   -1.2530 nh        1 Q20     -0.944500
     12 N12         3.3980   -0.2260    1.1390 nh        1 Q20     -0.922500
     13 C13        -4.2770    0.2920    2.5850 c3        1 Q20     -0.051800
     14 C14        -2.7120   -0.0100    5.0200 cp        1 Q20     -0.089000
     15 C15        -3.4500   -1.1250    5.4870 ca        1 Q20      0.177100
     16 C16        -4.0530   -1.0990    6.7540 ca        1 Q20     -0.228000
     17 C17        -3.9290    0.0300    7.5550 ca        1 Q20     -0.029000
     18 C18        -3.2030    1.1410    7.1090 ca        1 Q20     -0.237600
     19 C19        -2.5990    1.1080    5.8470 ca        1 Q20     -0.043000
     20 O20        -3.5360   -2.1920    4.6240 os        1 Q20     -0.318900
     21 C21        -4.1300   -3.3910    5.1460 c3        1 Q20      0.126400
     22 C22        -3.9760   -4.4320    4.0620 c3        1 Q20     -0.101100
     23 C23        -3.0670    2.3340    7.9540 c         1 Q20      0.581500
     24 O24        -3.5780    2.4440    9.0720 o         1 Q20     -0.536100
     25 H7         -2.7570    0.2940    0.3860 ha        1 Q20      0.124000
     26 H10        -0.0920   -0.2700    4.5820 ha        1 Q20      0.155000
     27 HN11       -0.1320    0.2590   -2.0770 hn        1 Q20      0.422800
     28 HN1A       -1.5650    0.5450   -1.2400 hn        1 Q20      0.422800
     29 HN12        3.8090   -0.4770    0.2690 hn        1 Q20      0.421800
     30 HN1B        3.8480   -0.5870    1.9490 hn        1 Q20      0.421800
     31 H13        -4.5550    1.2180    3.1480 hc        1 Q20      0.046033
     32 H13A       -4.7320    0.3480    1.5660 hc        1 Q20      0.046033
     33 H13B       -4.7130   -0.5890    3.1230 hc        1 Q20      0.046033
     34 H16        -4.6260   -1.9610    7.1230 ha        1 Q20      0.144000
     35 H17        -4.4010    0.0620    8.5520 ha        1 Q20      0.156000
     36 H19        -2.0190    1.9780    5.4940 ha        1 Q20      0.144000
     37 H21        -5.2120   -3.1950    5.3720 h1        1 Q20      0.041200
     38 H21A       -3.5960   -3.6970    6.0840 h1        1 Q20      0.041200
     39 H22        -2.8960   -4.5970    3.8310 hc        1 Q20      0.052367
     40 H22A       -4.4880   -4.1020    3.1270 hc        1 Q20      0.052367
     41 H22B       -4.4280   -5.3900    4.4120 hc        1 Q20      0.052367
     42 H23        -2.4580    3.1580    7.5140 h4        1 Q20     -0.001800
@<TRIPOS>BOND
     1    1    2 ar  
     2    1    6 ar  
     3    1   11 1   
     4    2    3 ar  
     5    3    4 ar  
     6    3   12 1   
     7    4    5 ar  
     8    5    6 ar  
     9    5   10 ar  
    10    6    7 ar  
    11    7    8 ar  
    12    7   25 1   
    13    8    9 ar  
    14    8   13 1   
    15    9   10 ar  
    16    9   14 1   
    17   10   26 1   
    18   11   27 1   
    19   11   28 1   
    20   12   29 1   
    21   12   30 1   
    22   13   31 1   
    23   13   32 1   
    24   13   33 1   
    25   14   15 ar  
    26   14   19 ar  
    27   15   16 ar  
    28   15   20 1   
    29   16   17 ar  
    30   16   34 1   
    31   17   18 ar  
    32   17   35 1   
    33   18   19 ar  
    34   18   23 1   
    35   19   36 1   
    36   20   21 1   
    37   21   22 1   
    38   21   37 1   
    39   21   38 1   
    40   22   39 1   
    41   22   40 1   
    42   22   41 1   
    43   23   24 2   
    44   23   42 1   
@<TRIPOS>SUBSTRUCTURE
     1 Q20         1 TEMP              0 ****  ****    0 ROOT
