@<TRIPOS>MOLECULE
Q20
   44    46     1     0     0
SMALL
bcc


@<TRIPOS>ATOM
      1 C1          0.0400   -0.0210   -0.0140 ca        1 Q20      0.530200
      2 N2          1.3820    0.0060   -0.0590 nb        1 Q20     -0.671000
      3 C3          2.0130    0.0450    1.1770 ca        1 Q20      0.684900
      4 N4          1.4260    0.0600    2.3940 nb        1 Q20     -0.575000
      5 C5          0.0590    0.0290    2.4230 ca        1 Q20      0.430600
      6 C6         -0.7270   -0.0120    1.2010 ca        1 Q20     -0.195600
      7 C7         -2.1270   -0.0360    1.2860 ca        1 Q20     -0.187000
      8 C8         -2.7780   -0.0350    2.5140 ca        1 Q20      0.088700
      9 C9         -2.0130   -0.0170    3.7280 cp        1 Q20      0.084000
     10 C10        -0.6300    0.0280    3.6730 ca        1 Q20     -0.143300
     11 N11        -0.6720   -0.0640   -1.3100 n4        1 Q20     -0.827300
     12 N12         3.5030    0.0750    1.1440 n4        1 Q20     -0.806300
     13 C13        -4.2530   -0.0430    2.5640 c3        1 Q20     -0.102800
     14 C14        -2.6620   -0.0150    5.0350 cp        1 Q20     -0.183000
     15 C15        -3.4660   -1.0930    5.4810 ca        1 Q20      0.198100
     16 C16        -4.0450   -1.0600    6.7610 ca        1 Q20     -0.211000
     17 C17        -3.8310    0.0330    7.5900 ca        1 Q20      0.007000
     18 C18        -3.0320    1.1060    7.1630 ca        1 Q20     -0.217600
     19 C19        -2.4470    1.0710    5.9000 ca        1 Q20     -0.034000
     20 O20        -3.6140   -2.1340    4.6000 os        1 Q20     -0.360900
     21 C21        -4.3510   -3.2830    5.0740 c3        1 Q20      0.125400
     22 C22        -4.3290   -4.2790    3.9400 c3        1 Q20     -0.104100
     23 C23        -2.8110    2.2650    8.0540 c         1 Q20      0.569500
     24 O24        -3.2770    2.3280    9.1890 o         1 Q20     -0.479100
     25 H7         -2.7470   -0.0510    0.3750 ha        1 Q20      0.145000
     26 H10        -0.0440    0.0520    4.6130 ha        1 Q20      0.201000
     27 HN11       -1.2530   -0.9150   -1.3380 hn        1 Q20      0.489800
     28 HN1A       -1.2780    0.7670   -1.3810 hn        1 Q20      0.489800
     29 HN12        3.8740    0.1030    2.1070 hn        1 Q20      0.493467
     30 HN1B        3.8520   -0.7700    0.6700 hn        1 Q20      0.493467
     31 H13        -4.6250    0.6750    3.3410 hc        1 Q20      0.095367
     32 H13A       -4.7090    0.2200    1.5790 hc        1 Q20      0.095367
     33 H13B       -4.6070   -1.0700    2.8620 hc        1 Q20      0.095367
     34 H16        -4.6680   -1.8950    7.1170 ha        1 Q20      0.170000
     35 H17        -4.2860    0.0710    8.5980 ha        1 Q20      0.186000
     36 H19        -1.8160    1.9100    5.5650 ha        1 Q20      0.139000
     37 H21        -3.8450   -3.6890    5.9890 h1        1 Q20      0.062200
     38 H21A       -5.3980   -2.9650    5.3200 h1        1 Q20      0.062200
     39 H22        -4.7930   -3.8420    3.0230 hc        1 Q20      0.056700
     40 H22A       -4.9100   -5.1840    4.2460 hc        1 Q20      0.056700
     41 H22B       -3.2830   -4.5830    3.7000 hc        1 Q20      0.056700
     42 H23        -2.1910    3.0820    7.6220 h4        1 Q20      0.009200
     43 H113       -0.0180   -0.0750   -2.1080 hn        1 Q20      0.489800
     44 H123        3.8180    0.9110    0.6320 hn        1 Q20      0.493467
@<TRIPOS>BOND
     1    1    2 ar  
     2    1    6 ar  
     3    1   11 1   
     4    2    3 ar  
     5    3    4 ar  
     6    3   12 1   
     7    4    5 ar  
     8    5    6 ar  
     9    5   10 ar  
    10    6    7 ar  
    11    7    8 ar  
    12    7   25 1   
    13    8    9 ar  
    14    8   13 1   
    15    9   10 ar  
    16    9   14 1   
    17   10   26 1   
    18   11   27 1   
    19   11   28 1   
    20   11   43 1   
    21   12   29 1   
    22   12   30 1   
    23   12   44 1   
    24   13   31 1   
    25   13   32 1   
    26   13   33 1   
    27   14   15 ar  
    28   14   19 ar  
    29   15   16 ar  
    30   15   20 1   
    31   16   17 ar  
    32   16   34 1   
    33   17   18 ar  
    34   17   35 1   
    35   18   19 ar  
    36   18   23 1   
    37   19   36 1   
    38   20   21 1   
    39   21   22 1   
    40   21   37 1   
    41   21   38 1   
    42   22   39 1   
    43   22   40 1   
    44   22   41 1   
    45   23   24 2   
    46   23   42 1   
@<TRIPOS>SUBSTRUCTURE
     1 Q20         1 TEMP              0 ****  ****    0 ROOT
