@<TRIPOS>MOLECULE
Q21
   50    54     1     0     0
SMALL
bcc


@<TRIPOS>ATOM
      1 O2          2.0240   -0.3230   -1.5110 o         1 Q21     -0.565100
      2 C13         1.8320    0.8340   -1.1080 c         1 Q21      0.646100
      3 C14         2.9450    1.9000   -1.1590 c3        1 Q21      0.076100
      4 C15         2.7120    2.8330   -2.3330 c3        1 Q21     -0.106100
      5 O3          4.1840    1.2250   -1.4040 os        1 Q21     -0.311900
      6 C16         5.0070    1.0860   -0.2900 ca        1 Q21      0.107100
      7 C17         5.4720    2.1860    0.4030 ca        1 Q21     -0.173000
      8 C18         6.4070    2.0070    1.4480 ca        1 Q21     -0.116000
      9 C19         6.8630    0.7530    1.7710 ca        1 Q21     -0.124000
     10 C21         5.4460   -0.2370    0.0260 ca        1 Q21     -0.041000
     11 C46         4.9680   -1.3830   -0.6630 ca        1 Q21     -0.095000
     12 C45         5.4330   -2.6330   -0.3330 ca        1 Q21     -0.136000
     13 C44         6.3910   -2.7910    0.6970 ca        1 Q21     -0.116000
     14 C43         6.8600   -1.6990    1.3840 ca        1 Q21     -0.131000
     15 C20         6.3970   -0.3920    1.0670 ca        1 Q21     -0.026000
     16 N3          0.6230    1.2720   -0.5840 n         1 Q21     -0.476100
     17 C10        -0.5730    0.5400   -0.4690 ca        1 Q21      0.061600
     18 C11        -0.6020   -0.8750   -0.5800 ca        1 Q21     -0.131000
     19 C12        -1.7830   -1.6000   -0.4460 ca        1 Q21     -0.088000
     20 C7         -2.9370   -0.8770   -0.1920 ca        1 Q21      0.014100
     21 C8         -2.9470    0.5530   -0.0690 ca        1 Q21      0.082400
     22 C9         -1.7600    1.2670   -0.2110 ca        1 Q21     -0.130000
     23 O1         -4.2420   -1.3360   -0.0120 os        1 Q21     -0.305700
     24 C1         -4.9990   -0.1480    0.2150 cc        1 Q21      0.589200
     25 N1         -4.2740    0.9690    0.1890 nd        1 Q21     -0.550100
     26 C2         -6.4230   -0.3400    0.4370 ca        1 Q21     -0.082900
     27 C3         -6.9840   -1.6260    0.4210 ca        1 Q21     -0.204800
     28 C4         -8.3660   -1.7520    0.6410 ca        1 Q21      0.386700
     29 N2         -9.1850   -0.7070    0.8680 nb        1 Q21     -0.648000
     30 C5         -8.6300    0.5200    0.8810 ca        1 Q21      0.386700
     31 C6         -7.2600    0.7610    0.6720 ca        1 Q21     -0.204800
     32 H1          2.9820    2.4700   -0.1900 h1        1 Q21      0.069700
     33 H2          2.6970    2.2560   -3.2890 hc        1 Q21      0.057700
     34 H3          1.7410    3.3680   -2.2090 hc        1 Q21      0.057700
     35 H4          3.5400    3.5800   -2.3860 hc        1 Q21      0.057700
     36 H5          5.1340    3.1990    0.1440 ha        1 Q21      0.135000
     37 H6          6.7690    2.8930    1.9910 ha        1 Q21      0.134000
     38 H7          7.5960    0.6110    2.5790 ha        1 Q21      0.135000
     39 H8          4.2090   -1.2370   -1.4530 ha        1 Q21      0.172000
     40 H9          5.0650   -3.5240   -0.8630 ha        1 Q21      0.136000
     41 H10         6.7510   -3.8020    0.9410 ha        1 Q21      0.132000
     42 H11         7.6020   -1.8130    2.1890 ha        1 Q21      0.132000
     43 H12         0.5520    2.2390   -0.3550 hn        1 Q21      0.315500
     44 H13         0.3300   -1.4310   -0.7820 ha        1 Q21      0.180000
     45 H14        -1.7940   -2.6940   -0.5360 ha        1 Q21      0.158000
     46 H15        -1.7640    2.3630   -0.1190 ha        1 Q21      0.151000
     47 H16        -6.3580   -2.5120    0.2400 ha        1 Q21      0.165000
     48 H17        -8.8470   -2.7480    0.6360 h4        1 Q21      0.029100
     49 H18        -9.3240    1.3600    1.0690 h4        1 Q21      0.029100
     50 H19        -6.8630    1.7860    0.6930 ha        1 Q21      0.165000
@<TRIPOS>BOND
     1    1    2 2   
     2    2    3 1   
     3    2   16 1   
     4    3    4 1   
     5    3    5 1   
     6    3   32 1   
     7    4   33 1   
     8    4   34 1   
     9    4   35 1   
    10    5    6 1   
    11    6    7 ar  
    12    6   10 ar  
    13    7    8 ar  
    14    7   36 1   
    15    8    9 ar  
    16    8   37 1   
    17    9   15 ar  
    18    9   38 1   
    19   10   11 ar  
    20   10   15 ar  
    21   11   12 ar  
    22   11   39 1   
    23   12   13 ar  
    24   12   40 1   
    25   13   14 ar  
    26   13   41 1   
    27   14   15 ar  
    28   14   42 1   
    29   16   17 1   
    30   16   43 1   
    31   17   18 ar  
    32   17   22 ar  
    33   18   19 ar  
    34   18   44 1   
    35   19   20 ar  
    36   19   45 1   
    37   20   21 ar  
    38   20   23 1   
    39   21   22 ar  
    40   21   25 1   
    41   22   46 1   
    42   23   24 1   
    43   24   25 2   
    44   24   26 1   
    45   26   27 ar  
    46   26   31 ar  
    47   27   28 ar  
    48   27   47 1   
    49   28   29 ar  
    50   28   48 1   
    51   29   30 ar  
    52   30   31 ar  
    53   30   49 1   
    54   31   50 1   
@<TRIPOS>SUBSTRUCTURE
     1 Q21         1 TEMP              0 ****  ****    0 ROOT
