@<TRIPOS>MOLECULE
Q21
   50    54     1     0     0
SMALL
bcc


@<TRIPOS>ATOM
      1 O2          0.3360   -1.3810    1.0130 o         1 Q21     -0.565100
      2 C13         1.5180   -1.1600    0.7100 c         1 Q21      0.646100
      3 C14         2.6290   -1.1160    1.7780 c3        1 Q21      0.076100
      4 C15         3.4200   -2.4110    1.7540 c3        1 Q21     -0.106100
      5 O3          1.9980   -1.0380    3.0610 os        1 Q21     -0.311900
      6 C16         2.0220    0.2230    3.6510 ca        1 Q21      0.107100
      7 C17         3.2120    0.8600    3.9370 ca        1 Q21     -0.173000
      8 C18         3.1960    2.0790    4.6520 ca        1 Q21     -0.116000
      9 C19         2.0090    2.6260    5.0730 ca        1 Q21     -0.124000
     10 C21         0.7650    0.7680    4.0590 ca        1 Q21     -0.041000
     11 C46        -0.4720    0.1350    3.7620 ca        1 Q21     -0.095000
     12 C45        -1.6530    0.6910    4.1900 ca        1 Q21     -0.136000
     13 C44        -1.6500    1.8980    4.9300 ca        1 Q21     -0.116000
     14 C43        -0.4670    2.5320    5.2210 ca        1 Q21     -0.131000
     15 C20         0.7720    1.9830    4.7910 ca        1 Q21     -0.026000
     16 N3          1.9460   -0.9360   -0.5930 ns        1 Q21     -0.476100
     17 C10         1.1690   -0.9740   -1.7650 ca        1 Q21      0.061600
     18 C11        -0.2500   -0.9210   -1.7280 ca        1 Q21     -0.131000
     19 C12        -1.0170   -0.9380   -2.8900 ca        1 Q21     -0.088000
     20 C7         -0.3330   -1.0020   -4.0920 ca        1 Q21      0.014100
     21 C8          1.1000   -1.0520   -4.1700 ca        1 Q21      0.082400
     22 C9          1.8560   -1.0400   -3.0010 ca        1 Q21     -0.130000
     23 O1         -0.8380   -1.0300   -5.3920 os        1 Q21     -0.305700
     24 C1          0.3270   -1.0960   -6.2150 cc        1 Q21      0.589200
     25 N1          1.4710   -1.1110   -5.5330 nd        1 Q21     -0.550100
     26 C2          0.0850   -1.1370   -7.6490 ca        1 Q21     -0.082900
     27 C3         -1.2230   -1.1120   -8.1550 ca        1 Q21     -0.204800
     28 C4         -1.3970   -1.1540   -9.5490 ca        1 Q21      0.386700
     29 N2         -0.3780   -1.2170  -10.4280 nb        1 Q21     -0.648000
     30 C5          0.8710   -1.2400   -9.9240 ca        1 Q21      0.386700
     31 C6          1.1600   -1.2030   -8.5470 ca        1 Q21     -0.204800
     32 H1          3.2990   -0.2300    1.6050 h1        1 Q21      0.069700
     33 H2          3.9140   -2.5400    0.7630 hc        1 Q21      0.057700
     34 H3          4.1990   -2.3880    2.5540 hc        1 Q21      0.057700
     35 H4          2.7450   -3.2800    1.9460 hc        1 Q21      0.057700
     36 H5          4.1730    0.4260    3.6250 ha        1 Q21      0.135000
     37 H6          4.1520    2.5760    4.8720 ha        1 Q21      0.134000
     38 H7          1.9930    3.5720    5.6360 ha        1 Q21      0.135000
     39 H8         -0.4510   -0.7970    3.1700 ha        1 Q21      0.172000
     40 H9         -2.6130    0.2060    3.9620 ha        1 Q21      0.136000
     41 H10        -2.6080    2.3210    5.2660 ha        1 Q21      0.132000
     42 H11        -0.4550    3.4720    5.7920 ha        1 Q21      0.132000
     43 H12         2.9270   -0.8390   -0.7360 hn        1 Q21      0.315500
     44 H13        -0.7740   -0.8700   -0.7580 ha        1 Q21      0.180000
     45 H14        -2.1140   -0.9000   -2.8500 ha        1 Q21      0.158000
     46 H15         2.9540   -1.0800   -3.0550 ha        1 Q21      0.151000
     47 H16        -2.0890   -1.0620   -7.4800 ha        1 Q21      0.165000
     48 H17        -2.4110   -1.1370   -9.9890 h4        1 Q21      0.029100
     49 H18         1.6880   -1.2920  -10.6660 h4        1 Q21      0.029100
     50 H19         2.2000   -1.2240   -8.1940 ha        1 Q21      0.165000
@<TRIPOS>BOND
     1    1    2 2   
     2    2    3 1   
     3    2   16 1   
     4    3    4 1   
     5    3    5 1   
     6    3   32 1   
     7    4   33 1   
     8    4   34 1   
     9    4   35 1   
    10    5    6 1   
    11    6    7 ar  
    12    6   10 ar  
    13    7    8 ar  
    14    7   36 1   
    15    8    9 ar  
    16    8   37 1   
    17    9   15 ar  
    18    9   38 1   
    19   10   11 ar  
    20   10   15 ar  
    21   11   12 ar  
    22   11   39 1   
    23   12   13 ar  
    24   12   40 1   
    25   13   14 ar  
    26   13   41 1   
    27   14   15 ar  
    28   14   42 1   
    29   16   17 1   
    30   16   43 1   
    31   17   18 ar  
    32   17   22 ar  
    33   18   19 ar  
    34   18   44 1   
    35   19   20 ar  
    36   19   45 1   
    37   20   21 ar  
    38   20   23 1   
    39   21   22 ar  
    40   21   25 1   
    41   22   46 1   
    42   23   24 1   
    43   24   25 2   
    44   24   26 1   
    45   26   27 ar  
    46   26   31 ar  
    47   27   28 ar  
    48   27   47 1   
    49   28   29 ar  
    50   28   48 1   
    51   29   30 ar  
    52   30   31 ar  
    53   30   49 1   
    54   31   50 1   
@<TRIPOS>SUBSTRUCTURE
     1 Q21         1 TEMP              0 ****  ****    0 ROOT
