@<TRIPOS>MOLECULE
Q21
   50    54     1     0     0
SMALL
bcc


@<TRIPOS>ATOM
      1 O2          0.3160   -1.3880    1.0120 o         1 Q21     -0.565100
      2 C13         1.5020   -1.1820    0.7120 c         1 Q21      0.646100
      3 C14         2.6110   -1.1560    1.7810 c3        1 Q21      0.076100
      4 C15         3.3830   -2.4630    1.7570 c3        1 Q21     -0.106100
      5 O3          1.9790   -1.0710    3.0640 os        1 Q21     -0.311900
      6 C16         2.0200    0.1880    3.6550 ca        1 Q21      0.107100
      7 C17         3.2190    0.8090    3.9430 ca        1 Q21     -0.173000
      8 C18         3.2170    2.0280    4.6600 ca        1 Q21     -0.116000
      9 C19         2.0370    2.5910    5.0800 ca        1 Q21     -0.124000
     10 C21         0.7700    0.7500    4.0620 ca        1 Q21     -0.041000
     11 C46        -0.4750    0.1350    3.7610 ca        1 Q21     -0.095000
     12 C45        -1.6490    0.7070    4.1890 ca        1 Q21     -0.136000
     13 C44        -1.6310    1.9120    4.9300 ca        1 Q21     -0.116000
     14 C43        -0.4400    2.5300    5.2240 ca        1 Q21     -0.131000
     15 C20         0.7930    1.9650    4.7950 ca        1 Q21     -0.026000
     16 N3          1.9350   -0.9600   -0.5900 n         1 Q21     -0.476100
     17 C10         1.1590   -0.9820   -1.7630 ca        1 Q21      0.061600
     18 C11        -0.2590   -0.9130   -1.7290 ca        1 Q21     -0.131000
     19 C12        -1.0240   -0.9150   -2.8920 ca        1 Q21     -0.088000
     20 C7         -0.3390   -0.9820   -4.0940 ca        1 Q21      0.014100
     21 C8          1.0930   -1.0490   -4.1690 ca        1 Q21      0.082400
     22 C9          1.8480   -1.0520   -2.9980 ca        1 Q21     -0.130000
     23 O1         -0.8410   -0.9970   -5.3940 os        1 Q21     -0.305700
     24 C1          0.3240   -1.0740   -6.2160 cc        1 Q21      0.589200
     25 N1          1.4670   -1.1050   -5.5320 nd        1 Q21     -0.550100
     26 C2          0.0840   -1.1050   -7.6490 ca        1 Q21     -0.082900
     27 C3         -1.2230   -1.0630   -8.1580 ca        1 Q21     -0.204800
     28 C4         -1.3950   -1.0960   -9.5530 ca        1 Q21      0.386700
     29 N2         -0.3750   -1.1660  -10.4300 nb        1 Q21     -0.648000
     30 C5          0.8730   -1.2060   -9.9240 ca        1 Q21      0.386700
     31 C6          1.1590   -1.1790   -8.5470 ca        1 Q21     -0.204800
     32 H1          3.2950   -0.2800    1.6110 h1        1 Q21      0.069700
     33 H2          2.6950   -3.3220    1.9470 hc        1 Q21      0.057700
     34 H3          3.8760   -2.5980    0.7650 hc        1 Q21      0.057700
     35 H4          4.1610   -2.4530    2.5570 hc        1 Q21      0.057700
     36 H5          4.1730    0.3620    3.6330 ha        1 Q21      0.135000
     37 H6          4.1800    2.5110    4.8830 ha        1 Q21      0.134000
     38 H7          2.0340    3.5350    5.6440 ha        1 Q21      0.135000
     39 H8         -0.4660   -0.7970    3.1690 ha        1 Q21      0.172000
     40 H9         -2.6160    0.2350    3.9580 ha        1 Q21      0.136000
     41 H10        -2.5840    2.3480    5.2640 ha        1 Q21      0.132000
     42 H11        -0.4160    3.4690    5.7960 ha        1 Q21      0.132000
     43 H12         2.9170   -0.8750   -0.7310 hn        1 Q21      0.315500
     44 H13        -0.7840   -0.8600   -0.7590 ha        1 Q21      0.180000
     45 H14        -2.1200   -0.8650   -2.8540 ha        1 Q21      0.158000
     46 H15         2.9450   -1.1040   -3.0510 ha        1 Q21      0.151000
     47 H16        -2.0890   -1.0050   -7.4840 ha        1 Q21      0.165000
     48 H17        -2.4080   -1.0640   -9.9940 h4        1 Q21      0.029100
     49 H18         1.6900   -1.2640  -10.6650 h4        1 Q21      0.029100
     50 H19         2.1990   -1.2140   -8.1920 ha        1 Q21      0.165000
@<TRIPOS>BOND
     1    1    2 2   
     2    2    3 1   
     3    2   16 1   
     4    3    4 1   
     5    3    5 1   
     6    3   32 1   
     7    4   33 1   
     8    4   34 1   
     9    4   35 1   
    10    5    6 1   
    11    6    7 ar  
    12    6   10 ar  
    13    7    8 ar  
    14    7   36 1   
    15    8    9 ar  
    16    8   37 1   
    17    9   15 ar  
    18    9   38 1   
    19   10   11 ar  
    20   10   15 ar  
    21   11   12 ar  
    22   11   39 1   
    23   12   13 ar  
    24   12   40 1   
    25   13   14 ar  
    26   13   41 1   
    27   14   15 ar  
    28   14   42 1   
    29   16   17 1   
    30   16   43 1   
    31   17   18 ar  
    32   17   22 ar  
    33   18   19 ar  
    34   18   44 1   
    35   19   20 ar  
    36   19   45 1   
    37   20   21 ar  
    38   20   23 1   
    39   21   22 ar  
    40   21   25 1   
    41   22   46 1   
    42   23   24 1   
    43   24   25 2   
    44   24   26 1   
    45   26   27 ar  
    46   26   31 ar  
    47   27   28 ar  
    48   27   47 1   
    49   28   29 ar  
    50   28   48 1   
    51   29   30 ar  
    52   30   31 ar  
    53   30   49 1   
    54   31   50 1   
@<TRIPOS>SUBSTRUCTURE
     1 Q21         1 TEMP              0 ****  ****    0 ROOT
