@<TRIPOS>MOLECULE
Q22
   48    52     1     0     0
SMALL
bcc


@<TRIPOS>ATOM
      1 C7'        -0.0600    0.3520   -0.0070 ca        1 Q22      0.339900
      2 N8'         1.2540    0.3610   -0.1000 nb        1 Q22     -0.628000
      3 C8          1.9710    0.1170    1.0810 ca        1 Q22      0.625000
      4 N1'         3.3400    0.1090    1.0300 nb        1 Q22     -0.773000
      5 C2'         3.9900   -0.1530    2.2120 ca        1 Q22      0.936900
      6 N2'         5.3760   -0.2680    2.1640 nv        1 Q22     -0.937500
      7 N3'         3.3970   -0.3590    3.4610 nb        1 Q22     -0.847000
      8 C4'         2.0450   -0.3440    3.5190 ca        1 Q22      0.713900
      9 N4'         1.4320   -0.5260    4.7300 nv        1 Q22     -0.953500
     10 C4          1.2360   -0.1130    2.3110 ca        1 Q22      0.031000
     11 N5'        -0.1330   -0.1170    2.3630 nb        1 Q22     -0.579000
     12 C6'        -0.7820    0.1140    1.2270 ca        1 Q22      0.251300
     13 C9'        -2.2950    0.1470    1.1910 c3        1 Q22      0.144500
     14 N'0        -2.8820   -1.1820    1.3130 nh        1 Q22     -0.626000
     15 C'0        -2.7020   -2.0310    0.1350 c3        1 Q22      0.272900
     16 C'1        -2.5440   -3.4820    0.5160 c2        1 Q22     -0.149200
     17 C'2        -2.7640   -4.4670   -0.3590 c2        1 Q22     -0.178200
     18 C'3        -3.2560   -4.2150   -1.7370 c3        1 Q22     -0.020000
     19 C'4        -3.9050   -2.8880   -1.8640 c2        1 Q22     -0.142200
     20 C'5        -3.7110   -1.8860   -0.9870 ce        1 Q22     -0.121200
     21 C'6        -4.4520   -0.6400   -1.1260 ce        1 Q22     -0.111000
     22 C6         -5.1850   -0.0730   -0.1570 cf        1 Q22     -0.118200
     23 C'7        -5.3130   -0.6030    1.1940 ca        1 Q22     -0.035800
     24 C'8        -6.5640   -0.5600    1.8200 ca        1 Q22     -0.202000
     25 C7         -4.2010   -1.1610    1.8690 ca        1 Q22      0.078600
     26 C9         -4.3840   -1.6950    3.1620 ca        1 Q22     -0.072000
     27 C11        -5.6270   -1.6690    3.7770 ca        1 Q22     -0.158000
     28 C'9        -6.7170   -1.0950    3.1030 ca        1 Q22      0.124100
     29 O1         -7.9200   -1.0890    3.7710 oh        1 Q22     -0.497100
     30 H7'        -0.6200    0.5430   -0.9420 h4        1 Q22      0.033100
     31 HN2'        5.8750   -0.2430    3.0210 hn        1 Q22      0.438300
     32 HN2A        5.8390    0.0540    1.3480 hn        1 Q22      0.438300
     33 HN4'        0.4440   -0.5750    4.7770 hn        1 Q22      0.452300
     34 HN4A        1.9660   -0.7250    5.5400 hn        1 Q22      0.452300
     35 H9'        -2.6660    0.7750    2.0520 h1        1 Q22      0.055700
     36 H9'A       -2.6070    0.6580    0.2320 h1        1 Q22      0.055700
     37 H'0        -1.6980   -1.7250   -0.3160 h1        1 Q22      0.069700
     38 H'1        -2.1960   -3.6820    1.5410 ha        1 Q22      0.143000
     39 H'2        -2.5930   -5.5210   -0.0950 ha        1 Q22      0.128000
     40 H'3        -3.9880   -5.0170   -2.0300 hc        1 Q22      0.060700
     41 H'3A       -2.3920   -4.2780   -2.4580 hc        1 Q22      0.060700
     42 H'4        -4.5900   -2.7700   -2.7180 ha        1 Q22      0.126000
     43 H6         -5.7650    0.8430   -0.3630 ha        1 Q22      0.131000
     44 H'8        -7.4230   -0.1170    1.2970 ha        1 Q22      0.135000
     45 H9         -3.5270   -2.1400    3.6940 ha        1 Q22      0.149000
     46 H11        -5.7720   -2.0890    4.7830 ha        1 Q22      0.152000
     47 HO1        -8.5820   -0.6850    3.1910 ho        1 Q22      0.419000
     48 H19        -4.4260   -0.1870   -2.1330 ha        1 Q22      0.130000
@<TRIPOS>BOND
     1    1    2 ar  
     2    1   12 ar  
     3    1   30 1   
     4    2    3 ar  
     5    3    4 ar  
     6    3   10 ar  
     7    4    5 ar  
     8    5    6 1   
     9    5    7 ar  
    10    6   31 1   
    11    6   32 1   
    12    7    8 ar  
    13    8    9 1   
    14    8   10 ar  
    15    9   33 1   
    16    9   34 1   
    17   10   11 ar  
    18   11   12 ar  
    19   12   13 1   
    20   13   14 1   
    21   13   35 1   
    22   13   36 1   
    23   14   15 1   
    24   14   25 1   
    25   15   16 1   
    26   15   20 1   
    27   15   37 1   
    28   16   17 2   
    29   16   38 1   
    30   17   18 1   
    31   17   39 1   
    32   18   19 1   
    33   18   40 1   
    34   18   41 1   
    35   19   20 2   
    36   19   42 1   
    37   20   21 1   
    38   21   22 2   
    39   21   48 1   
    40   22   23 1   
    41   22   43 1   
    42   23   24 ar  
    43   23   25 ar  
    44   24   28 ar  
    45   24   44 1   
    46   25   26 ar  
    47   26   27 ar  
    48   26   45 1   
    49   27   28 ar  
    50   27   46 1   
    51   28   29 1   
    52   29   47 1   
@<TRIPOS>SUBSTRUCTURE
     1 Q22         1 TEMP              0 ****  ****    0 ROOT
