@<TRIPOS>MOLECULE
Q22
   50    54     1     0     0
SMALL
bcc


@<TRIPOS>ATOM
      1 C7'         1.0480   -0.2800   -0.3440 ca        1 Q22      0.371900
      2 N8'         2.0950    0.1230    0.3400 nb        1 Q22     -0.551000
      3 C8          1.9330    0.2490    1.7290 ca        1 Q22      0.574000
      4 N1'         2.9930    0.6630    2.5040 nb        1 Q22     -0.549000
      5 C2'         2.7560    0.7550    3.8320 ca        1 Q22      0.714900
      6 N2'         3.9030    1.2060    4.6750 n4        1 Q22     -0.812300
      7 N3'         1.5800    0.4810    4.5180 nb        1 Q22     -0.663000
      8 C4'         0.5470    0.0760    3.7620 ca        1 Q22      0.517900
      9 N4'        -0.7300   -0.2510    4.4200 n4        1 Q22     -0.828300
     10 C4          0.6430   -0.0630    2.3260 ca        1 Q22      0.194000
     11 N5'        -0.4320   -0.4710    1.5730 nb        1 Q22     -0.660000
     12 C6'        -0.2590   -0.5920    0.2610 ca        1 Q22      0.428300
     13 C9'        -1.3830   -0.9910   -0.6700 c3        1 Q22      0.110500
     14 N'0        -2.2400   -2.0670   -0.1920 nh        1 Q22     -0.620000
     15 C'0        -3.2170   -2.5090   -1.2070 c3        1 Q22      0.282900
     16 C'1        -3.4580   -3.9930   -1.1040 c2        1 Q22     -0.192200
     17 C'2        -4.5930   -4.5540   -1.5300 c2        1 Q22     -0.128200
     18 C'3        -5.7320   -3.7650   -2.0570 c3        1 Q22     -0.047000
     19 C'4        -5.6470   -2.3320   -1.6980 c2        1 Q22     -0.074200
     20 C'5        -4.5220   -1.7430   -1.2470 ce        1 Q22     -0.183200
     21 C'6        -4.5560   -0.3490   -0.8300 ce        1 Q22     -0.050000
     22 C6         -4.1470    0.1200    0.3620 cf        1 Q22     -0.179200
     23 C'7        -3.5930   -0.7110    1.4170 ca        1 Q22     -0.016800
     24 C'8        -3.8560   -0.3960    2.7560 ca        1 Q22     -0.162000
     25 C7         -2.7890   -1.8400    1.1110 ca        1 Q22      0.102600
     26 C9         -2.4500   -2.7480    2.1360 ca        1 Q22     -0.075000
     27 C11        -2.7440   -2.4520    3.4630 ca        1 Q22     -0.209000
     28 C'9        -3.3830   -1.2390    3.7650 ca        1 Q22      0.035100
     29 O1         -3.4250   -0.8380    5.0910 oh        1 Q22     -0.586100
     30 H7'         1.1850   -0.3840   -1.4450 h4        1 Q22      0.099100
     31 HN2'        4.1300    0.4740    5.3640 hn        1 Q22      0.498800
     32 HN2A        3.6460    2.0740    5.1680 hn        1 Q22      0.498800
     33 HN4'       -0.9710   -1.2510    4.2390 hn        1 Q22      0.503133
     34 HN4A       -1.4970    0.3150    4.0080 hn        1 Q22      0.503133
     35 H9'        -0.9150   -1.3510   -1.6350 h1        1 Q22      0.096200
     36 H9'A       -1.9560   -0.0330   -0.8880 h1        1 Q22      0.096200
     37 H'0        -2.7250   -2.3480   -2.2220 h1        1 Q22      0.073700
     38 H'1        -2.6270   -4.5980   -0.7100 ha        1 Q22      0.143000
     39 H'2        -4.7330   -5.6470   -1.5120 ha        1 Q22      0.151000
     40 H'3        -5.7680   -3.8650   -3.1800 hc        1 Q22      0.091700
     41 H'3A       -6.6990   -4.1900   -1.6650 hc        1 Q22      0.091700
     42 H'4        -6.5840   -1.7580   -1.7990 ha        1 Q22      0.147000
     43 H6         -4.2850    1.1870    0.6110 ha        1 Q22      0.144000
     44 H'8        -4.4520    0.4950    3.0100 ha        1 Q22      0.165000
     45 H9         -1.9450   -3.6970    1.8860 ha        1 Q22      0.168000
     46 H11        -2.5210   -3.1730    4.2650 ha        1 Q22      0.162000
     47 HO1        -4.3450   -0.9010    5.3970 ho        1 Q22      0.467000
     48 H19        -5.0220    0.3470   -1.5550 ha        1 Q22      0.153000
     49 H2'3        4.7300    1.3830    4.0790 hn        1 Q22      0.498800
     50 H4'3       -0.7100   -0.0900    5.4370 hn        1 Q22      0.503133
@<TRIPOS>BOND
     1    1    2 ar  
     2    1   12 ar  
     3    1   30 1   
     4    2    3 ar  
     5    3    4 ar  
     6    3   10 ar  
     7    4    5 ar  
     8    5    6 1   
     9    5    7 ar  
    10    6   31 1   
    11    6   32 1   
    12    6   49 1   
    13    7    8 ar  
    14    8    9 1   
    15    8   10 ar  
    16    9   33 1   
    17    9   34 1   
    18    9   50 1   
    19   10   11 ar  
    20   11   12 ar  
    21   12   13 1   
    22   13   14 1   
    23   13   35 1   
    24   13   36 1   
    25   14   15 1   
    26   14   25 1   
    27   15   16 1   
    28   15   20 1   
    29   15   37 1   
    30   16   17 2   
    31   16   38 1   
    32   17   18 1   
    33   17   39 1   
    34   18   19 1   
    35   18   40 1   
    36   18   41 1   
    37   19   20 2   
    38   19   42 1   
    39   20   21 1   
    40   21   22 2   
    41   21   48 1   
    42   22   23 1   
    43   22   43 1   
    44   23   24 ar  
    45   23   25 ar  
    46   24   28 ar  
    47   24   44 1   
    48   25   26 ar  
    49   26   27 ar  
    50   26   45 1   
    51   27   28 ar  
    52   27   46 1   
    53   28   29 1   
    54   29   47 1   
@<TRIPOS>SUBSTRUCTURE
     1 Q22         1 TEMP              0 ****  ****    0 ROOT
