@<TRIPOS>MOLECULE
Q22
   48    52     1     0     0
SMALL
bcc


@<TRIPOS>ATOM
      1 C7'        -1.6890    1.1630   -1.5200 ca        1 Q22      0.339900
      2 N8'        -2.9500    1.5120   -1.3720 nb        1 Q22     -0.628000
      3 C8         -3.7550    0.6560   -0.6040 ca        1 Q22      0.625000
      4 N1'        -5.0720    0.9850   -0.4170 nb        1 Q22     -0.773000
      5 C2'        -5.8080    0.1210    0.3580 ca        1 Q22      0.936900
      6 N2'        -7.1200    0.4860    0.6470 nh        1 Q22     -0.937500
      7 N3'        -5.3620   -1.0760    0.9270 nb        1 Q22     -0.847000
      8 C4'        -4.0640   -1.4090    0.7390 ca        1 Q22      0.713900
      9 N4'        -3.5980   -2.5830    1.2680 nh        1 Q22     -0.953500
     10 C4         -3.1640   -0.5430   -0.0410 ca        1 Q22      0.031000
     11 N5'        -1.8440   -0.8680   -0.2180 nb        1 Q22     -0.579000
     12 C6'        -1.1080   -0.0350   -0.9460 ca        1 Q22      0.251300
     13 C9'         0.3550   -0.3220   -1.2100 c3        1 Q22      0.144500
     14 N'0         1.1840   -0.1010   -0.0320 nh        1 Q22     -0.626000
     15 C'0         1.3480    1.3060    0.3350 c3        1 Q22      0.272900
     16 C'1         1.4470    1.4810    1.8300 c2        1 Q22     -0.149200
     17 C'2         1.9850    2.5750    2.3760 c2        1 Q22     -0.178200
     18 C'3         2.5960    3.6550    1.5610 c3        1 Q22     -0.020000
     19 C'4         2.9640    3.1890    0.2030 c2        1 Q22     -0.142200
     20 C'5         2.4470    2.0820   -0.3610 ce        1 Q22     -0.121200
     21 C'6         2.9240    1.6360   -1.6630 ce        1 Q22     -0.111000
     22 C6          3.3830    0.4040   -1.9290 cf        1 Q22     -0.118200
     23 C'7         3.4330   -0.6820   -0.9610 ca        1 Q22     -0.035800
     24 C'8         4.5500   -1.5250   -0.9490 ca        1 Q22     -0.202000
     25 C7          2.3810   -0.8860   -0.0360 ca        1 Q22      0.078600
     26 C9          2.4930   -1.9290    0.9080 ca        1 Q22     -0.072000
     27 C11         3.6070   -2.7550    0.9320 ca        1 Q22     -0.158000
     28 C'9         4.6340   -2.5530   -0.0050 ca        1 Q22      0.124100
     29 O1          5.7070   -3.4130    0.0630 oh        1 Q22     -0.497100
     30 H7'        -1.0580    1.8420   -2.1240 h4        1 Q22      0.033100
     31 HN2'       -7.5230    1.2190    0.1140 hn        1 Q22      0.438300
     32 HN2A       -7.7260   -0.2070    1.0160 hn        1 Q22      0.438300
     33 HN4'       -4.1840   -3.1490    1.8290 hn        1 Q22      0.452300
     34 HN4A       -2.6380   -2.8100    1.1860 hn        1 Q22      0.452300
     35 H9'         0.4650   -1.4020   -1.5200 h1        1 Q22      0.055700
     36 H9'A        0.6810    0.3210   -2.0810 h1        1 Q22      0.055700
     37 H'0         0.3740    1.8200    0.0330 h1        1 Q22      0.069700
     38 H'1         1.0120    0.6790    2.4460 ha        1 Q22      0.143000
     39 H'2         2.0030    2.7260    3.4660 ha        1 Q22      0.128000
     40 H'3         1.8710    4.5140    1.4760 hc        1 Q22      0.060700
     41 H'3A        3.5120    4.0500    2.0810 hc        1 Q22      0.060700
     42 H'4         3.7200    3.7940   -0.3230 ha        1 Q22      0.126000
     43 H6          3.7810    0.1640   -2.9300 ha        1 Q22      0.131000
     44 H'8         5.3600   -1.3700   -1.6750 ha        1 Q22      0.135000
     45 H9          1.6840   -2.0930    1.6380 ha        1 Q22      0.149000
     46 H11         3.6980   -3.5660    1.6690 ha        1 Q22      0.152000
     47 HO1         6.3420   -3.1510   -0.6190 ho        1 Q22      0.419000
     48 H19         2.9420    2.4120   -2.4490 ha        1 Q22      0.130000
@<TRIPOS>BOND
     1    1    2 ar  
     2    1   12 ar  
     3    1   30 1   
     4    2    3 ar  
     5    3    4 ar  
     6    3   10 ar  
     7    4    5 ar  
     8    5    6 1   
     9    5    7 ar  
    10    6   31 1   
    11    6   32 1   
    12    7    8 ar  
    13    8    9 1   
    14    8   10 ar  
    15    9   33 1   
    16    9   34 1   
    17   10   11 ar  
    18   11   12 ar  
    19   12   13 1   
    20   13   14 1   
    21   13   35 1   
    22   13   36 1   
    23   14   15 1   
    24   14   25 1   
    25   15   16 1   
    26   15   20 1   
    27   15   37 1   
    28   16   17 2   
    29   16   38 1   
    30   17   18 1   
    31   17   39 1   
    32   18   19 1   
    33   18   40 1   
    34   18   41 1   
    35   19   20 2   
    36   19   42 1   
    37   20   21 1   
    38   21   22 2   
    39   21   48 1   
    40   22   23 1   
    41   22   43 1   
    42   23   24 ar  
    43   23   25 ar  
    44   24   28 ar  
    45   24   44 1   
    46   25   26 ar  
    47   26   27 ar  
    48   26   45 1   
    49   27   28 ar  
    50   27   46 1   
    51   28   29 1   
    52   29   47 1   
@<TRIPOS>SUBSTRUCTURE
     1 Q22         1 TEMP              0 ****  ****    0 ROOT
