@<TRIPOS>MOLECULE
Q22
   48    52     1     0     0
SMALL
bcc


@<TRIPOS>ATOM
      1 C7'        -0.0620    0.3660    0.0220 ca        1 Q22      0.339900
      2 N8'         1.2530    0.3860   -0.0510 nb        1 Q22     -0.628000
      3 C8          1.9540    0.1210    1.1350 ca        1 Q22      0.625000
      4 N1'         3.3230    0.1370    1.1070 nb        1 Q22     -0.773000
      5 C2'         3.9580   -0.1150    2.3000 ca        1 Q22      0.935900
      6 N2'         5.3450   -0.0040    2.3190 nh        1 Q22     -0.936500
      7 N3'         3.3480   -0.4330    3.5180 nb        1 Q22     -0.847000
      8 C4'         1.9960   -0.4500    3.5510 ca        1 Q22      0.714900
      9 N4'         1.3660   -0.7500    4.7290 nh        1 Q22     -0.955500
     10 C4          1.2030   -0.1610    2.3440 ca        1 Q22      0.031000
     11 N5'        -0.1680   -0.1700    2.3760 nb        1 Q22     -0.580000
     12 C6'        -0.8010    0.0930    1.2390 ca        1 Q22      0.251300
     13 C9'        -2.3130    0.1290    1.1830 c3        1 Q22      0.143500
     14 N'0        -2.9020   -1.2040    1.2550 nh        1 Q22     -0.626000
     15 C'0        -2.7060   -2.0150    0.0520 c3        1 Q22      0.272900
     16 C'1        -2.5530   -3.4770    0.3900 c2        1 Q22     -0.149200
     17 C'2        -2.7660   -4.4350   -0.5170 c2        1 Q22     -0.178200
     18 C'3        -3.2460   -4.1410   -1.8900 c3        1 Q22     -0.020000
     19 C'4        -3.8880   -2.8080   -1.9850 c2        1 Q22     -0.142200
     20 C'5        -3.7000   -1.8340   -1.0770 ce        1 Q22     -0.120200
     21 C'6        -4.4330   -0.5800   -1.1880 ce        1 Q22     -0.113000
     22 C6         -5.1790   -0.0400   -0.2130 cf        1 Q22     -0.116200
     23 C'7        -5.3310   -0.6120    1.1170 ca        1 Q22     -0.040800
     24 C'8        -6.5900   -0.5830    1.7220 ca        1 Q22     -0.145000
     25 C7         -4.2290   -1.1980    1.7910 ca        1 Q22      0.077600
     26 C9         -4.4340   -1.7760    3.0590 ca        1 Q22     -0.067000
     27 C11        -5.6910   -1.7630    3.6540 ca        1 Q22     -0.214000
     28 C'9        -6.7650   -1.1610    2.9860 ca        1 Q22      0.123100
     29 O1         -8.0330   -1.1000    3.5190 oh        1 Q22     -0.497100
     30 H7'        -0.6090    0.5760   -0.9160 h4        1 Q22      0.034100
     31 HN2'        5.8320   -0.3830    3.0960 hn        1 Q22      0.438300
     32 HN2A        5.8180    0.0290    1.4470 hn        1 Q22      0.438300
     33 HN4'        0.3770   -0.7720    4.7670 hn        1 Q22      0.452800
     34 HN4A        1.8900   -0.9410    5.5470 hn        1 Q22      0.452800
     35 H9'        -2.6960    0.7300    2.0580 h1        1 Q22      0.056200
     36 H9'A       -2.6120    0.6700    0.2370 h1        1 Q22      0.056200
     37 H'0        -1.6970   -1.6950   -0.3750 h1        1 Q22      0.069700
     38 H'1        -2.2130   -3.7090    1.4100 ha        1 Q22      0.142000
     39 H'2        -2.5980   -5.4970   -0.2830 ha        1 Q22      0.128000
     40 H'3        -3.9790   -4.9310   -2.2120 hc        1 Q22      0.060700
     41 H'3A       -2.3770   -4.1880   -2.6070 hc        1 Q22      0.060700
     42 H'4        -4.5630   -2.6620   -2.8430 ha        1 Q22      0.127000
     43 H6         -5.7530    0.8840   -0.3990 ha        1 Q22      0.134000
     44 H'8        -7.4480   -0.1200    1.2130 ha        1 Q22      0.152000
     45 H9         -3.5890   -2.2430    3.5910 ha        1 Q22      0.147000
     46 H11        -5.8380   -2.2210    4.6420 ha        1 Q22      0.135000
     47 HO1        -8.0150   -1.5460    4.3780 ho        1 Q22      0.419000
     48 H19        -4.3900   -0.0960   -2.1800 ha        1 Q22      0.130000
@<TRIPOS>BOND
     1    1    2 ar  
     2    1   12 ar  
     3    1   30 1   
     4    2    3 ar  
     5    3    4 ar  
     6    3   10 ar  
     7    4    5 ar  
     8    5    6 1   
     9    5    7 ar  
    10    6   31 1   
    11    6   32 1   
    12    7    8 ar  
    13    8    9 1   
    14    8   10 ar  
    15    9   33 1   
    16    9   34 1   
    17   10   11 ar  
    18   11   12 ar  
    19   12   13 1   
    20   13   14 1   
    21   13   35 1   
    22   13   36 1   
    23   14   15 1   
    24   14   25 1   
    25   15   16 1   
    26   15   20 1   
    27   15   37 1   
    28   16   17 2   
    29   16   38 1   
    30   17   18 1   
    31   17   39 1   
    32   18   19 1   
    33   18   40 1   
    34   18   41 1   
    35   19   20 2   
    36   19   42 1   
    37   20   21 1   
    38   21   22 2   
    39   21   48 1   
    40   22   23 1   
    41   22   43 1   
    42   23   24 ar  
    43   23   25 ar  
    44   24   28 ar  
    45   24   44 1   
    46   25   26 ar  
    47   26   27 ar  
    48   26   45 1   
    49   27   28 ar  
    50   27   46 1   
    51   28   29 1   
    52   29   47 1   
@<TRIPOS>SUBSTRUCTURE
     1 Q22         1 TEMP              0 ****  ****    0 ROOT
