@<TRIPOS>MOLECULE
Q23
   27    28     1     0     0
SMALL
bcc


@<TRIPOS>ATOM
      1 C1          0.3050    0.6090    0.0660 c3        1 Q23     -0.355600
      2 O1          1.3190   -0.8320   -1.7980 o         1 Q23     -0.646800
      3 S1          1.7100   -0.0120   -0.7370 sy        1 Q23      1.366900
      4 C2          2.2140   -0.9110    0.5850 ce        1 Q23     -0.437100
      5 O2          2.6020    1.0190   -1.0340 o         1 Q23     -0.646800
      6 S2         -1.2300    1.8640    2.8200 sy        1 Q23      1.658800
      7 C3          1.4340   -0.8410    1.6690 c2        1 Q23      0.011800
      8 O3          0.1810    0.9960    2.4700 os        1 Q23     -0.562500
      9 C4          0.1930    0.0090    1.4720 c3        1 Q23      0.234300
     10 O4         -2.1940    0.8780    2.9190 o         1 Q23     -0.661300
     11 C5         -0.8130    2.5060    4.2760 ca        1 Q23     -0.421500
     12 O5         -1.2950    2.8090    1.8160 o         1 Q23     -0.661300
     13 C6         -0.1030    3.7150    4.3500 ca        1 Q23      0.002000
     14 C7          0.2450    4.2660    5.5790 ca        1 Q23     -0.158500
     15 C8         -0.1100    3.6110    6.7600 ca        1 Q23     -0.047000
     16 C9         -0.8170    2.4080    6.7050 ca        1 Q23     -0.158500
     17 C10        -1.1610    1.8620    5.4740 ca        1 Q23      0.002000
     18 H1         -0.6240    0.3760   -0.5150 h1        1 Q23      0.140200
     19 H1A         0.3450    1.7290    0.1450 h1        1 Q23      0.140200
     20 H4         -0.7300   -0.6340    1.5690 h1        1 Q23      0.084700
     21 H6          0.1730    4.2350    3.4140 ha        1 Q23      0.160000
     22 H7          0.8010    5.2150    5.6190 ha        1 Q23      0.149000
     23 H8          0.1670    4.0440    7.7340 ha        1 Q23      0.143000
     24 H9         -1.1000    1.8910    7.6350 ha        1 Q23      0.149000
     25 H10        -1.7240    0.9120    5.4290 ha        1 Q23      0.160000
     26 H2          3.1350   -1.5070    0.5550 h4        1 Q23      0.194000
     27 H3          1.5970   -1.3100    2.6450 ha        1 Q23      0.160000
@<TRIPOS>BOND
     1    1    3 1   
     2    1    9 1   
     3    1   18 1   
     4    1   19 1   
     5    2    3 2   
     6    3    4 1   
     7    3    5 2   
     8    4    7 2   
     9    4   26 1   
    10    6    8 1   
    11    6   10 2   
    12    6   11 1   
    13    6   12 2   
    14    7    9 1   
    15    7   27 1   
    16    8    9 1   
    17    9   20 1   
    18   11   13 ar  
    19   11   17 ar  
    20   13   14 ar  
    21   13   21 1   
    22   14   15 ar  
    23   14   22 1   
    24   15   16 ar  
    25   15   23 1   
    26   16   17 ar  
    27   16   24 1   
    28   17   25 1   
@<TRIPOS>SUBSTRUCTURE
     1 Q23         1 TEMP              0 ****  ****    0 ROOT
