@<TRIPOS>MOLECULE
Q23
   27    28     1     0     0
SMALL
bcc


@<TRIPOS>ATOM
      1 C1          0.3240    0.6260    0.0600 c3        1 Q23     -0.355600
      2 O1          1.3490   -0.8080   -1.8030 o         1 Q23     -0.646800
      3 S1          1.7340    0.0040   -0.7330 sy        1 Q23      1.366900
      4 C2          2.2210   -0.9040    0.5890 ce        1 Q23     -0.437100
      5 O2          2.6320    1.0330   -1.0160 o         1 Q23     -0.646800
      6 S2         -1.2320    1.8740    2.8040 sy        1 Q23      1.658800
      7 C3          1.4320   -0.8360    1.6660 c2        1 Q23      0.011800
      8 O3          0.1790    1.0010    2.4640 os        1 Q23     -0.562500
      9 C4          0.1960    0.0200    1.4610 c3        1 Q23      0.234300
     10 O4         -2.2020    0.8910    2.8890 o         1 Q23     -0.661300
     11 C5         -0.8270    2.5060    4.2690 ca        1 Q23     -0.421500
     12 O5         -1.2830    2.8240    1.8060 o         1 Q23     -0.661300
     13 C6         -0.1120    3.7110    4.3560 ca        1 Q23      0.002000
     14 C7          0.2260    4.2530    5.5920 ca        1 Q23     -0.158500
     15 C8         -0.1450    3.5940    6.7650 ca        1 Q23     -0.047000
     16 C9         -0.8570    2.3940    6.6970 ca        1 Q23     -0.158500
     17 C10        -1.1920    1.8570    5.4590 ca        1 Q23      0.002000
     18 H1          0.3670    1.7460    0.1450 h1        1 Q23      0.140200
     19 H1A        -0.6010    0.4010   -0.5310 h1        1 Q23      0.140200
     20 H4         -0.7300   -0.6210    1.5460 h1        1 Q23      0.084700
     21 H6          0.1760    4.2340    3.4260 ha        1 Q23      0.160000
     22 H7          0.7860    5.1990    5.6430 ha        1 Q23      0.149000
     23 H8          0.1240    4.0200    7.7450 ha        1 Q23      0.143000
     24 H9         -1.1520    1.8750    7.6210 ha        1 Q23      0.149000
     25 H10        -1.7590    0.9100    5.4040 ha        1 Q23      0.160000
     26 H2          3.1400   -1.5030    0.5640 h4        1 Q23      0.194000
     27 H3          1.5840   -1.3110    2.6400 ha        1 Q23      0.160000
@<TRIPOS>BOND
     1    1    3 1   
     2    1    9 1   
     3    1   18 1   
     4    1   19 1   
     5    2    3 2   
     6    3    4 1   
     7    3    5 2   
     8    4    7 2   
     9    4   26 1   
    10    6    8 1   
    11    6   10 2   
    12    6   11 1   
    13    6   12 2   
    14    7    9 1   
    15    7   27 1   
    16    8    9 1   
    17    9   20 1   
    18   11   13 ar  
    19   11   17 ar  
    20   13   14 ar  
    21   13   21 1   
    22   14   15 ar  
    23   14   22 1   
    24   15   16 ar  
    25   15   23 1   
    26   16   17 ar  
    27   16   24 1   
    28   17   25 1   
@<TRIPOS>SUBSTRUCTURE
     1 Q23         1 TEMP              0 ****  ****    0 ROOT
