@<TRIPOS>MOLECULE
Q23
   27    28     1     0     0
SMALL
bcc


@<TRIPOS>ATOM
      1 C1         -2.2170    0.8130    0.0330 c3        1 Q23     -0.355600
      2 O1         -4.7710    0.6320    0.1830 o         1 Q23     -0.646800
      3 S1         -3.6780   -0.0100   -0.4050 sy        1 Q23      1.366900
      4 C2         -3.2720   -1.4150    0.4120 ce        1 Q23     -0.437100
      5 O2         -3.7350   -0.2090   -1.7850 o         1 Q23     -0.646800
      6 S2          1.1380    0.8410    0.5370 sy        1 Q23      1.658800
      7 C3         -2.0950   -1.4010    1.0460 c2        1 Q23      0.011800
      8 O3         -0.0910   -0.3180    0.4170 os        1 Q23     -0.562500
      9 C4         -1.3670   -0.0740    0.9490 c3        1 Q23      0.234300
     10 O4          1.0890    1.2210    1.8650 o         1 Q23     -0.661300
     11 C5          2.4440   -0.0960    0.1840 ca        1 Q23     -0.421500
     12 O5          0.8410    1.7440   -0.4620 o         1 Q23     -0.661300
     13 C6          2.8340   -0.3090   -1.1480 ca        1 Q23      0.002000
     14 C7          3.9420   -1.0950   -1.4500 ca        1 Q23     -0.158500
     15 C8          4.6790   -1.6840   -0.4220 ca        1 Q23     -0.047000
     16 C9          4.3060   -1.4820    0.9080 ca        1 Q23     -0.158500
     17 C10         3.1970   -0.6970    1.2060 ca        1 Q23      0.002000
     18 H1         -1.6170    1.0850   -0.8780 h1        1 Q23      0.140200
     19 H1A        -2.4410    1.7800    0.5510 h1        1 Q23      0.140200
     20 H4         -1.2640    0.3820    1.9770 h1        1 Q23      0.084700
     21 H6          2.2520    0.1620   -1.9610 ha        1 Q23      0.160000
     22 H7          4.2340   -1.2520   -2.5000 ha        1 Q23      0.149000
     23 H8          5.5550   -2.3080   -0.6590 ha        1 Q23      0.143000
     24 H9          4.8870   -1.9440    1.7210 ha        1 Q23      0.149000
     25 H10         2.9030   -0.5320    2.2580 ha        1 Q23      0.160000
     26 H2         -3.9330   -2.2910    0.4090 h4        1 Q23      0.194000
     27 H3         -1.6210   -2.2180    1.6000 ha        1 Q23      0.160000
@<TRIPOS>BOND
     1    1    3 1   
     2    1    9 1   
     3    1   18 1   
     4    1   19 1   
     5    2    3 2   
     6    3    4 1   
     7    3    5 2   
     8    4    7 2   
     9    4   26 1   
    10    6    8 1   
    11    6   10 2   
    12    6   11 1   
    13    6   12 2   
    14    7    9 1   
    15    7   27 1   
    16    8    9 1   
    17    9   20 1   
    18   11   13 ar  
    19   11   17 ar  
    20   13   14 ar  
    21   13   21 1   
    22   14   15 ar  
    23   14   22 1   
    24   15   16 ar  
    25   15   23 1   
    26   16   17 ar  
    27   16   24 1   
    28   17   25 1   
@<TRIPOS>SUBSTRUCTURE
     1 Q23         1 TEMP              0 ****  ****    0 ROOT
