@<TRIPOS>MOLECULE
Q24
   20    21     1     0     0
SMALL
bcc


@<TRIPOS>ATOM
      1 N1         -0.0400    0.1070   -0.0500 nb        1 Q24     -0.791000
      2 C2          1.3250    0.1280   -0.0340 ca        1 Q24      0.905900
      3 N3          2.1330    0.0170    1.1090 nb        1 Q24     -0.826000
      4 C4          1.5030   -0.0260    2.3020 ca        1 Q24      0.727200
      5 C5         -0.6660   -0.0470    3.6240 ca        1 Q24     -0.075000
      6 C6         -2.0420   -0.0480    3.6330 ca        1 Q24     -0.165000
      7 C7         -2.7600   -0.0100    2.4170 ca        1 Q24     -0.094000
      8 C8         -2.1030    0.0370    1.2130 ca        1 Q24     -0.198300
      9 C4A         0.0460   -0.0120    2.4050 ca        1 Q24     -0.333600
     10 C8A        -0.6690    0.0450    1.1680 ca        1 Q24      0.483600
     11 NA2         1.9970    0.3180   -1.2480 nv        1 Q24     -0.926500
     12 NA4         2.2770   -0.0410    3.4530 nv        1 Q24     -0.947500
     13 H5         -0.1310   -0.0620    4.5850 ha        1 Q24      0.123000
     14 H6         -2.5950   -0.0740    4.5830 ha        1 Q24      0.134000
     15 H7         -3.8600   -0.0140    2.4470 ha        1 Q24      0.134000
     16 H8         -2.6630    0.0730    0.2660 ha        1 Q24      0.152000
     17 HNA2        2.9570    0.0640   -1.2700 hn        1 Q24      0.424300
     18 HNAA        1.4760    0.1320   -2.0740 hn        1 Q24      0.424300
     19 HNA4        1.8580   -0.4180    4.2690 hn        1 Q24      0.425300
     20 HNAB        3.2580   -0.1740    3.3590 hn        1 Q24      0.425300
@<TRIPOS>BOND
     1    1    2 ar  
     2    1   10 ar  
     3    2    3 ar  
     4    2   11 1   
     5    3    4 ar  
     6    4    9 ar  
     7    4   12 1   
     8    5    6 ar  
     9    5    9 ar  
    10    5   13 1   
    11    6    7 ar  
    12    6   14 1   
    13    7    8 ar  
    14    7   15 1   
    15    8   10 ar  
    16    8   16 1   
    17    9   10 ar  
    18   11   17 1   
    19   11   18 1   
    20   12   19 1   
    21   12   20 1   
@<TRIPOS>SUBSTRUCTURE
     1 Q24         1 TEMP              0 ****  ****    0 ROOT
