@<TRIPOS>MOLECULE
Q24
   20    21     1     0     0
SMALL
bcc


@<TRIPOS>ATOM
      1 N1         -0.0090    0.1050   -0.0520 nb        1 Q24     -0.791000
      2 C2          1.3560    0.1300   -0.0120 ca        1 Q24      0.905900
      3 N3          2.1440    0.0220    1.1440 nb        1 Q24     -0.826000
      4 C4          1.4950   -0.0210    2.3260 ca        1 Q24      0.727200
      5 C5         -0.6970   -0.0470    3.6110 ca        1 Q24     -0.075000
      6 C6         -2.0720   -0.0520    3.5970 ca        1 Q24     -0.165000
      7 C7         -2.7690   -0.0180    2.3690 ca        1 Q24     -0.094000
      8 C8         -2.0930    0.0300    1.1770 ca        1 Q24     -0.198300
      9 C4A         0.0360   -0.0110    2.4040 ca        1 Q24     -0.333600
     10 C8A        -0.6580    0.0420    1.1560 ca        1 Q24      0.483600
     11 NA2         2.0470    0.3210   -1.2160 nh        1 Q24     -0.926500
     12 NA4         2.2490   -0.0330    3.4900 nh        1 Q24     -0.947500
     13 H5         -0.1770   -0.0600    4.5810 ha        1 Q24      0.123000
     14 H6         -2.6410   -0.0800    4.5380 ha        1 Q24      0.134000
     15 H7         -3.8700   -0.0250    2.3810 ha        1 Q24      0.134000
     16 H8         -2.6370    0.0640    0.2200 ha        1 Q24      0.152000
     17 HNA2        1.5400    0.1330   -2.0500 hn        1 Q24      0.424300
     18 HNAA        3.0080    0.0700   -1.2210 hn        1 Q24      0.424300
     19 HNA4        1.8180   -0.4100    4.2990 hn        1 Q24      0.425300
     20 HNAB        3.2320   -0.1630    3.4130 hn        1 Q24      0.425300
@<TRIPOS>BOND
     1    1    2 ar  
     2    1   10 ar  
     3    2    3 ar  
     4    2   11 1   
     5    3    4 ar  
     6    4    9 ar  
     7    4   12 1   
     8    5    6 ar  
     9    5    9 ar  
    10    5   13 1   
    11    6    7 ar  
    12    6   14 1   
    13    7    8 ar  
    14    7   15 1   
    15    8   10 ar  
    16    8   16 1   
    17    9   10 ar  
    18   11   17 1   
    19   11   18 1   
    20   12   19 1   
    21   12   20 1   
@<TRIPOS>SUBSTRUCTURE
     1 Q24         1 TEMP              0 ****  ****    0 ROOT
