@<TRIPOS>MOLECULE
Q24
   20    15     1     0     0
SMALL
bcc


@<TRIPOS>ATOM
      1 N1         -0.0990   -0.0540   -1.7600 n1        1 Q24     -0.608300
      2 C2          1.2670   -0.0540   -1.7600 c1        1 Q24      0.578100
      3 N3          1.9540   -0.0540   -0.5740 n1        1 Q24     -0.608300
      4 C4          1.2840   -0.0540    0.5930 c1        1 Q24      0.578100
      5 C5         -0.8080   -0.0540    1.8190 c1        1 Q24     -0.059250
      6 C6         -2.1930   -0.0540    1.8190 c1        1 Q24     -0.059250
      7 C7         -2.8860   -0.0540    0.6200 c1        1 Q24     -0.059250
      8 C8         -2.1940   -0.0540   -0.5790 c1        1 Q24     -0.059250
      9 C4A        -0.1020   -0.0540    0.5960 c1        1 Q24     -0.056500
     10 C8A        -0.7820   -0.0540   -0.5800 c1        1 Q24     -0.056500
     11 NA2         1.9760   -0.0560   -2.9890 n3        1 Q24     -0.799900
     12 NA4         2.3480    0.2550    1.4780 n3        1 Q24     -0.799900
     13 H5         -0.3190   -0.0540    2.6640 ha        1 Q24      0.078250
     14 H6         -2.6810   -0.0540    2.6650 ha        1 Q24      0.078250
     15 H7         -3.8620   -0.0540    0.6210 ha        1 Q24      0.078250
     16 H8         -2.6830   -0.0540   -1.4240 ha        1 Q24      0.078250
     17 HNA2        2.0300    0.7070   -3.4850 hn        1 Q24      0.424800
     18 HNAA        2.3850   -0.8180   -3.2780 hn        1 Q24      0.424800
     19 HNA4        3.1490   -0.1750    1.3950 hn        1 Q24      0.424800
     20 HNAB        2.2170    0.8460    2.1600 hn        1 Q24      0.424800
@<TRIPOS>BOND
     1    1    2 3   
     2    2   11 1   
     3    3    4 3   
     4    4   12 1   
     5    5    6 3   
     6    5   13 1   
     7    6   14 1   
     8    7    8 3   
     9    7   15 1   
    10    8   16 1   
    11    9   10 1   
    12   11   17 1   
    13   11   18 1   
    14   12   19 1   
    15   12   20 1   
@<TRIPOS>SUBSTRUCTURE
     1 Q24         1 TEMP              0 ****  ****    0 ROOT
