@<TRIPOS>MOLECULE
Q24
   22    23     1     0     0
SMALL
bcc


@<TRIPOS>ATOM
      1 N1         -0.0510    0.0660   -0.0500 nb        1 Q24     -0.566000
      2 C2          1.2960    0.0330   -0.0280 ca        1 Q24      0.700900
      3 N3          2.1170   -0.0160    1.0970 nb        1 Q24     -0.666000
      4 C4          1.4760   -0.0310    2.2730 ca        1 Q24      0.554200
      5 C5         -0.6630   -0.0140    3.6290 ca        1 Q24     -0.150000
      6 C6         -2.0460    0.0200    3.6340 ca        1 Q24     -0.010000
      7 C7         -2.7720    0.0690    2.4210 ca        1 Q24     -0.061000
      8 C8         -2.1240    0.0850    1.2060 ca        1 Q24     -0.118300
      9 C4A         0.0420    0.0010    2.4100 ca        1 Q24     -0.210600
     10 C8A        -0.6940    0.0510    1.1610 ca        1 Q24      0.427600
     11 NA2         2.0010    0.0500   -1.3420 n4        1 Q24     -0.809300
     12 NA4         2.3120   -0.0830    3.4930 n4        1 Q24     -0.832300
     13 H5         -0.1340   -0.0520    4.5940 ha        1 Q24      0.153000
     14 H6         -2.5990    0.0090    4.5930 ha        1 Q24      0.200000
     15 H7         -3.8800    0.0950    2.4580 ha        1 Q24      0.206000
     16 H8         -2.6970    0.1230    0.2590 ha        1 Q24      0.206000
     17 HNA2        2.5710   -0.8040   -1.4370 hn        1 Q24      0.497467
     18 HNAA        2.6120    0.8780   -1.3940 hn        1 Q24      0.497467
     19 HNA4        2.0710   -0.9330    4.0240 hn        1 Q24      0.494467
     20 HNAB        2.1120    0.7500    4.0670 hn        1 Q24      0.494467
     21 HA23        1.3110    0.0860   -2.1120 hn        1 Q24      0.497467
     22 HA43        3.3210   -0.1020    3.2680 hn        1 Q24      0.494467
@<TRIPOS>BOND
     1    1    2 ar  
     2    1   10 ar  
     3    2    3 ar  
     4    2   11 1   
     5    3    4 ar  
     6    4    9 ar  
     7    4   12 1   
     8    5    6 ar  
     9    5    9 ar  
    10    5   13 1   
    11    6    7 ar  
    12    6   14 1   
    13    7    8 ar  
    14    7   15 1   
    15    8   10 ar  
    16    8   16 1   
    17    9   10 ar  
    18   11   17 1   
    19   11   18 1   
    20   11   21 1   
    21   12   19 1   
    22   12   20 1   
    23   12   22 1   
@<TRIPOS>SUBSTRUCTURE
     1 Q24         1 TEMP              0 ****  ****    0 ROOT
