@<TRIPOS>MOLECULE
Q24
   20    21     1     0     0
SMALL
bcc


@<TRIPOS>ATOM
      1 N1         -0.8750   -1.4620    0.0130 nb        1 Q24     -0.790000
      2 C2         -1.9510   -0.6220    0.0340 ca        1 Q24      0.903900
      3 N3         -1.8960    0.7810    0.0090 nb        1 Q24     -0.823000
      4 C4         -0.6720    1.3470   -0.0190 ca        1 Q24      0.724200
      5 C5          1.8550    1.0800   -0.0240 ca        1 Q24     -0.076000
      6 C6          2.9530    0.2520   -0.0190 ca        1 Q24     -0.165000
      7 C7          2.7850   -1.1510    0.0000 ca        1 Q24     -0.094000
      8 C8          1.5320   -1.7090    0.0120 ca        1 Q24     -0.198300
      9 C4A         0.5480    0.5430   -0.0070 ca        1 Q24     -0.331600
     10 C8A         0.3650   -0.8740    0.0080 ca        1 Q24      0.482600
     11 NA2        -3.2280   -1.1870    0.1580 nh        1 Q24     -0.924500
     12 NA4        -0.5900    2.7290   -0.1290 nh        1 Q24     -0.944500
     13 H5          2.0130    2.1680   -0.0500 ha        1 Q24      0.123000
     14 H6          3.9700    0.6710   -0.0320 ha        1 Q24      0.134000
     15 H7          3.6780   -1.7940    0.0050 ha        1 Q24      0.134000
     16 H8          1.4010   -2.8020    0.0250 ha        1 Q24      0.152000
     17 HNA2       -3.3040   -2.1500   -0.0780 hn        1 Q24      0.423300
     18 HNAA       -3.9930   -0.6120   -0.1090 hn        1 Q24      0.423300
     19 HNA4       -1.4220    3.2560   -0.0010 hn        1 Q24      0.423300
     20 HNAB        0.2470    3.1490    0.1970 hn        1 Q24      0.423300
@<TRIPOS>BOND
     1    1    2 ar  
     2    1   10 ar  
     3    2    3 ar  
     4    2   11 1   
     5    3    4 ar  
     6    4    9 ar  
     7    4   12 1   
     8    5    6 ar  
     9    5    9 ar  
    10    5   13 1   
    11    6    7 ar  
    12    6   14 1   
    13    7    8 ar  
    14    7   15 1   
    15    8   10 ar  
    16    8   16 1   
    17    9   10 ar  
    18   11   17 1   
    19   11   18 1   
    20   12   19 1   
    21   12   20 1   
@<TRIPOS>SUBSTRUCTURE
     1 Q24         1 TEMP              0 ****  ****    0 ROOT
