@<TRIPOS>MOLECULE
Q26
   58    61     1     0     0
SMALL
bcc


@<TRIPOS>ATOM
      1 C1          0.2210    0.1300    0.0630 ca        1 Q26      0.559200
      2 N2          1.5610    0.0620    0.0820 nb        1 Q26     -0.677000
      3 C3          2.1290   -0.0750    1.3460 ca        1 Q26      0.710900
      4 N4          1.4840   -0.1510    2.5260 nb        1 Q26     -0.585000
      5 C5          0.1110   -0.0760    2.4930 ca        1 Q26      0.445600
      6 C6         -0.6020    0.0710    1.2380 ca        1 Q26     -0.222600
      7 C7         -0.6310   -0.1260    3.7090 ca        1 Q26     -0.163300
      8 C8         -2.0160   -0.0250    3.7000 cp        1 Q26      0.092000
      9 C9         -2.6960    0.1100    2.4520 ca        1 Q26     -0.007000
     10 C10        -2.0100    0.1530    1.2590 ca        1 Q26     -0.147000
     11 N11        -0.4200    0.2780   -1.2630 n4        1 Q26     -0.832300
     12 N12         3.6190   -0.1430    1.3730 n4        1 Q26     -0.810300
     13 C13        -2.7820   -0.0530    4.9380 cp        1 Q26     -0.154000
     14 C14        -2.4420   -0.9560    5.9610 ca        1 Q26     -0.045000
     15 C15        -3.1780   -1.0250    7.1450 cp        1 Q26     -0.092000
     16 C16        -4.2690   -0.1530    7.3230 ca        1 Q26     -0.030000
     17 C17        -4.6170    0.7600    6.3400 ca        1 Q26     -0.196000
     18 C18        -3.8870    0.8150    5.1390 ca        1 Q26      0.204100
     19 O19        -4.1740    1.6780    4.1180 os        1 Q26     -0.356900
     20 C20        -5.2130    2.6580    4.3590 c3        1 Q26      0.128400
     21 C21        -5.2520    3.5250    3.1250 c3        1 Q26     -0.107100
     22 C22        -2.8570   -2.0070    8.1810 cp        1 Q26     -0.014000
     23 C23        -2.4980   -3.3170    7.8280 ca        1 Q26     -0.077000
     24 C24        -2.2310   -4.2670    8.8120 ca        1 Q26     -0.095000
     25 C25        -2.3220   -3.9380   10.1620 ca        1 Q26     -0.085000
     26 C26        -2.6730   -2.6230   10.5240 ca        1 Q26     -0.055400
     27 C27        -2.9460   -1.6600    9.5350 ca        1 Q26     -0.091000
     28 N28        -2.7730   -2.2730   11.9350 n4        1 Q26     -0.569300
     29 S29        -1.0270   -2.0480   12.7160 s6        1 Q26      1.426900
     30 O30        -0.4290   -3.2540   12.4440 o         1 Q26     -0.550800
     31 O31        -0.6210   -0.8670   12.1420 o         1 Q26     -0.550800
     32 C32        -1.5280   -1.8930   14.2660 c3        1 Q26     -0.487300
     33 H7         -0.0880   -0.2260    4.6670 ha        1 Q26      0.193000
     34 H9         -3.8020    0.1890    2.4580 ha        1 Q26      0.205000
     35 H10        -2.5860    0.2530    0.3250 ha        1 Q26      0.151000
     36 HN11       -1.0530   -0.5210   -1.4170 hn        1 Q26      0.494467
     37 HN1A       -0.9640    1.1540   -1.2720 hn        1 Q26      0.494467
     38 HN12        4.0080    0.7260    0.9760 hn        1 Q26      0.497133
     39 HN1B        3.9500   -0.2520    2.3450 hn        1 Q26      0.497133
     40 H14        -1.5840   -1.6330    5.8140 ha        1 Q26      0.140000
     41 H16        -4.8680   -0.2050    8.2470 ha        1 Q26      0.155000
     42 H17        -5.4760    1.4300    6.5040 ha        1 Q26      0.174000
     43 H20        -4.9470    3.2530    5.2710 h1        1 Q26      0.063700
     44 H20A       -6.1840    2.1190    4.5140 h1        1 Q26      0.063700
     45 H21        -4.2720    4.0350    2.9670 hc        1 Q26      0.061700
     46 H21A       -5.4910    2.9170    2.2210 hc        1 Q26      0.061700
     47 H21B       -6.0470    4.3000    3.2590 hc        1 Q26      0.061700
     48 H23        -2.4460   -3.6040    6.7650 ha        1 Q26      0.157000
     49 H24        -1.9550   -5.2970    8.5260 ha        1 Q26      0.179000
     50 H25        -2.1010   -4.7060   10.9250 ha        1 Q26      0.176000
     51 H27        -3.2220   -0.6270    9.8090 ha        1 Q26      0.157000
     52 HN28       -3.3150   -1.4130   12.0200 hn        1 Q26      0.454300
     53 H32        -2.0450   -2.7870   14.7170 h1        1 Q26      0.184700
     54 H32A       -0.6590   -1.7290   14.9800 h1        1 Q26      0.184700
     55 H32B       -2.1980   -1.0160   14.4920 h1        1 Q26      0.184700
     56 H113        0.2760    0.3070   -2.0270 hn        1 Q26      0.494467
     57 H123        3.9370   -0.9470    0.8120 hn        1 Q26      0.497133
     58 H282       -3.2960   -3.0110   12.4080 hn        1 Q26      0.454300
@<TRIPOS>BOND
     1    1    2 ar  
     2    1    6 ar  
     3    1   11 1   
     4    2    3 ar  
     5    3    4 ar  
     6    3   12 1   
     7    4    5 ar  
     8    5    6 ar  
     9    5    7 ar  
    10    6   10 ar  
    11    7    8 ar  
    12    7   33 1   
    13    8    9 ar  
    14    8   13 1   
    15    9   10 ar  
    16    9   34 1   
    17   10   35 1   
    18   11   36 1   
    19   11   37 1   
    20   11   56 1   
    21   12   38 1   
    22   12   39 1   
    23   12   57 1   
    24   13   14 ar  
    25   13   18 ar  
    26   14   15 ar  
    27   14   40 1   
    28   15   16 ar  
    29   15   22 1   
    30   16   17 ar  
    31   16   41 1   
    32   17   18 ar  
    33   17   42 1   
    34   18   19 1   
    35   19   20 1   
    36   20   21 1   
    37   20   43 1   
    38   20   44 1   
    39   21   45 1   
    40   21   46 1   
    41   21   47 1   
    42   22   23 ar  
    43   22   27 ar  
    44   23   24 ar  
    45   23   48 1   
    46   24   25 ar  
    47   24   49 1   
    48   25   26 ar  
    49   25   50 1   
    50   26   27 ar  
    51   26   28 1   
    52   27   51 1   
    53   28   29 1   
    54   28   52 1   
    55   28   58 1   
    56   29   30 2   
    57   29   31 2   
    58   29   32 1   
    59   32   53 1   
    60   32   54 1   
    61   32   55 1   
@<TRIPOS>SUBSTRUCTURE
     1 Q26         1 TEMP              0 ****  ****    0 ROOT
