@<TRIPOS>MOLECULE
Q26
   55    58     1     0     0
SMALL
bcc


@<TRIPOS>ATOM
      1 C1         -6.3570   -1.3590    0.0950 ca        1 Q26      0.725200
      2 N2         -6.4770   -2.4650   -0.6670 nb        1 Q26     -0.825000
      3 C3         -5.3150   -2.9290   -1.3040 ca        1 Q26      0.901900
      4 N4         -4.0980   -2.3120   -1.2920 nb        1 Q26     -0.791000
      5 C5         -3.9930   -1.1740   -0.5280 ca        1 Q26      0.479600
      6 C6         -5.0910   -0.6390    0.2120 ca        1 Q26     -0.328600
      7 C7         -2.7340   -0.4950   -0.4650 ca        1 Q26     -0.194300
      8 C8         -2.5810    0.6420    0.3030 cp        1 Q26      0.013000
      9 C9         -3.6820    1.1520    1.0390 ca        1 Q26     -0.135000
     10 C10        -4.9030    0.5230    0.9930 ca        1 Q26     -0.083000
     11 N11        -7.4640   -0.9310    0.8140 nh        1 Q26     -0.946500
     12 N12        -5.4240   -4.1590   -1.9690 nh        1 Q26     -0.924500
     13 C13        -1.2780    1.3030    0.3820 cp        1 Q26     -0.070000
     14 C14        -0.1280    0.5230    0.5450 ca        1 Q26     -0.074000
     15 C15         1.1460    1.1010    0.6190 cp        1 Q26     -0.080000
     16 C16         1.2680    2.4930    0.5290 ca        1 Q26     -0.077000
     17 C17         0.1420    3.2930    0.3720 ca        1 Q26     -0.208000
     18 C18        -1.1300    2.7080    0.3000 ca        1 Q26      0.150100
     19 O19        -2.2930    3.4380    0.1690 os        1 Q26     -0.327900
     20 C20        -2.1350    4.8150   -0.2040 c3        1 Q26      0.127400
     21 C21        -3.5250    5.3250   -0.5060 c3        1 Q26     -0.100100
     22 C22         2.3290    0.2590    0.7920 cp        1 Q26     -0.002000
     23 C23         2.3010   -0.8260    1.6780 ca        1 Q26     -0.141000
     24 C24         3.4360   -1.6150    1.8430 ca        1 Q26     -0.097000
     25 C25         4.6050   -1.3490    1.1360 ca        1 Q26     -0.182000
     26 C26         4.6440   -0.2700    0.2250 ca        1 Q26      0.159600
     27 C27         3.4940    0.5330    0.0680 ca        1 Q26     -0.162000
     28 N28         5.8010    0.0180   -0.5180 nh        1 Q26     -0.782500
     29 S29         6.9860   -1.0060   -0.9650 s6        1 Q26      1.469900
     30 O30         7.9580   -0.2440   -1.6470 o         1 Q26     -0.650300
     31 O31         7.4360   -1.7980    0.1060 o         1 Q26     -0.650300
     32 C32         6.2200   -2.0280   -2.0830 c3        1 Q26     -0.371300
     33 H7         -1.8870   -0.8970   -1.0440 ha        1 Q26      0.153000
     34 H9         -3.5420    2.0650    1.6370 ha        1 Q26      0.148000
     35 H10        -5.7300    0.9370    1.5890 ha        1 Q26      0.124000
     36 HN11       -8.3410   -1.3580    0.6230 hn        1 Q26      0.424300
     37 HN1A       -7.4870    0.0270    1.0680 hn        1 Q26      0.424300
     38 HN12       -6.3430   -4.4510   -2.2080 hn        1 Q26      0.421800
     39 HN1B       -4.7180   -4.3580   -2.6400 hn        1 Q26      0.421800
     40 H14        -0.2310   -0.5730    0.6120 ha        1 Q26      0.148000
     41 H16         2.2630    2.9610    0.5940 ha        1 Q26      0.137000
     42 H17         0.2620    4.3840    0.3110 ha        1 Q26      0.140000
     43 H20        -1.6750    5.3750    0.6530 h1        1 Q26      0.040200
     44 H20A       -1.4700    4.8910   -1.1050 h1        1 Q26      0.040200
     45 H21        -4.1830    5.2180    0.3890 hc        1 Q26      0.050033
     46 H21A       -3.4640    6.4020   -0.7900 hc        1 Q26      0.050033
     47 H21B       -3.9790    4.7480   -1.3460 hc        1 Q26      0.050033
     48 H23         1.3880   -1.0450    2.2510 ha        1 Q26      0.142000
     49 H24         3.4170   -2.4600    2.5490 ha        1 Q26      0.141000
     50 H25         5.4960   -1.9780    1.3090 ha        1 Q26      0.168000
     51 H27         3.5010    1.3840   -0.6300 ha        1 Q26      0.136000
     52 HN28        5.8420    0.9680   -0.8200 hn        1 Q26      0.457800
     53 H32         5.9390   -1.5110   -3.0330 h1        1 Q26      0.118700
     54 H32A        6.9030   -2.8660   -2.3760 h1        1 Q26      0.118700
     55 H32B        5.2900   -2.5110   -1.6940 h1        1 Q26      0.118700
@<TRIPOS>BOND
     1    1    2 ar  
     2    1    6 ar  
     3    1   11 1   
     4    2    3 ar  
     5    3    4 ar  
     6    3   12 1   
     7    4    5 ar  
     8    5    6 ar  
     9    5    7 ar  
    10    6   10 ar  
    11    7    8 ar  
    12    7   33 1   
    13    8    9 ar  
    14    8   13 1   
    15    9   10 ar  
    16    9   34 1   
    17   10   35 1   
    18   11   36 1   
    19   11   37 1   
    20   12   38 1   
    21   12   39 1   
    22   13   14 ar  
    23   13   18 ar  
    24   14   15 ar  
    25   14   40 1   
    26   15   16 ar  
    27   15   22 1   
    28   16   17 ar  
    29   16   41 1   
    30   17   18 ar  
    31   17   42 1   
    32   18   19 1   
    33   19   20 1   
    34   20   21 1   
    35   20   43 1   
    36   20   44 1   
    37   21   45 1   
    38   21   46 1   
    39   21   47 1   
    40   22   23 ar  
    41   22   27 ar  
    42   23   24 ar  
    43   23   48 1   
    44   24   25 ar  
    45   24   49 1   
    46   25   26 ar  
    47   25   50 1   
    48   26   27 ar  
    49   26   28 1   
    50   27   51 1   
    51   28   29 1   
    52   28   52 1   
    53   29   30 2   
    54   29   31 2   
    55   29   32 1   
    56   32   53 1   
    57   32   54 1   
    58   32   55 1   
@<TRIPOS>SUBSTRUCTURE
     1 Q26         1 TEMP              0 ****  ****    0 ROOT
