@<TRIPOS>MOLECULE
Q26
   55    58     1     0     0
SMALL
bcc


@<TRIPOS>ATOM
      1 C1          0.4000    0.1790    0.2880 ca        1 Q26      0.722200
      2 N2          1.7390    0.1940    0.4410 nb        1 Q26     -0.822000
      3 C3          2.2320    0.1770    1.7560 ca        1 Q26      0.899900
      4 N4          1.4750    0.1640    2.8900 nb        1 Q26     -0.789000
      5 C5          0.1120    0.1250    2.7220 ca        1 Q26      0.479600
      6 C6         -0.5050    0.1290    1.4340 ca        1 Q26     -0.327600
      7 C7         -0.7290    0.0830    3.8800 ca        1 Q26     -0.194300
      8 C8         -2.1030    0.0480    3.7550 cp        1 Q26      0.013000
      9 C9         -2.6970    0.0640    2.4670 ca        1 Q26     -0.135000
     10 C10        -1.9140    0.1040    1.3380 ca        1 Q26     -0.083000
     11 N11        -0.1180    0.2790   -0.9980 nv        1 Q26     -0.944500
     12 N12         3.6270    0.0970    1.8910 nv        1 Q26     -0.922500
     13 C13        -2.9450   -0.0290    4.9500 cp        1 Q26     -0.071000
     14 C14        -2.5900   -0.9100    5.9770 ca        1 Q26     -0.074000
     15 C15        -3.3540   -1.0190    7.1460 cp        1 Q26     -0.080000
     16 C16        -4.5000   -0.2270    7.2880 ca        1 Q26     -0.077000
     17 C17        -4.8790    0.6540    6.2810 ca        1 Q26     -0.208000
     18 C18        -4.1110    0.7560    5.1120 ca        1 Q26      0.150100
     19 O19        -4.4400    1.5870    4.0620 os        1 Q26     -0.326900
     20 C20        -5.4210    2.5980    4.3400 c3        1 Q26      0.127400
     21 C21        -5.4240    3.5140    3.1380 c3        1 Q26     -0.101100
     22 C22        -2.9570   -1.9510    8.2010 cp        1 Q26     -0.002000
     23 C23        -2.4910   -3.2320    7.8760 ca        1 Q26     -0.141000
     24 C24        -2.1260   -4.1140    8.8890 ca        1 Q26     -0.097000
     25 C25        -2.2110   -3.7460   10.2280 ca        1 Q26     -0.182000
     26 C26        -2.6610   -2.4530   10.5720 ca        1 Q26      0.159600
     27 C27        -3.0390   -1.5640    9.5430 ca        1 Q26     -0.162000
     28 N28        -2.7450   -2.0400   11.9140 nu        1 Q26     -0.782500
     29 S29        -1.8800   -2.5800   13.1840 s6        1 Q26      1.469900
     30 O30        -2.3590   -1.9100   14.3280 o         1 Q26     -0.650300
     31 O31        -1.8390   -3.9840   13.2400 o         1 Q26     -0.650300
     32 C32        -0.3090   -2.0260   12.8530 c3        1 Q26     -0.371300
     33 H7         -0.2570    0.0840    4.8760 ha        1 Q26      0.153000
     34 H9         -3.7950    0.0590    2.3890 ha        1 Q26      0.149000
     35 H10        -2.4090    0.1260    0.3560 ha        1 Q26      0.124000
     36 HN11        0.5110    0.1730   -1.7610 hn        1 Q26      0.422800
     37 HN1A       -1.0320   -0.0790   -1.1340 hn        1 Q26      0.422800
     38 HN12        3.9920    0.3490    2.7800 hn        1 Q26      0.421300
     39 HN1B        4.1600    0.3950    1.1060 hn        1 Q26      0.421300
     40 H14        -1.6840   -1.5280    5.8610 ha        1 Q26      0.147000
     41 H16        -5.1130   -0.3090    8.1980 ha        1 Q26      0.137000
     42 H17        -5.7870    1.2600    6.4100 ha        1 Q26      0.141000
     43 H20        -5.1410    3.1530    5.2730 h1        1 Q26      0.039700
     44 H20A       -6.4200    2.1060    4.4770 h1        1 Q26      0.039700
     45 H21        -6.1830    4.3170    3.2940 hc        1 Q26      0.050700
     46 H21A       -4.4190    3.9790    2.9990 hc        1 Q26      0.050700
     47 H21B       -5.6780    2.9430    2.2130 hc        1 Q26      0.050700
     48 H23        -2.4270   -3.5410    6.8220 ha        1 Q26      0.142000
     49 H24        -1.7720   -5.1250    8.6320 ha        1 Q26      0.140000
     50 H25        -1.9380   -4.4780   11.0080 ha        1 Q26      0.168000
     51 H27        -3.4010   -0.5530    9.7860 ha        1 Q26      0.137000
     52 HN28       -3.3970   -1.2990   12.0520 hn        1 Q26      0.457800
     53 H32         0.0760   -2.3270   11.8480 h1        1 Q26      0.118700
     54 H32A        0.4160   -2.4430   13.5980 h1        1 Q26      0.118700
     55 H32B       -0.2120   -0.9140   12.9130 h1        1 Q26      0.118700
@<TRIPOS>BOND
     1    1    2 ar  
     2    1    6 ar  
     3    1   11 1   
     4    2    3 ar  
     5    3    4 ar  
     6    3   12 1   
     7    4    5 ar  
     8    5    6 ar  
     9    5    7 ar  
    10    6   10 ar  
    11    7    8 ar  
    12    7   33 1   
    13    8    9 ar  
    14    8   13 1   
    15    9   10 ar  
    16    9   34 1   
    17   10   35 1   
    18   11   36 1   
    19   11   37 1   
    20   12   38 1   
    21   12   39 1   
    22   13   14 ar  
    23   13   18 ar  
    24   14   15 ar  
    25   14   40 1   
    26   15   16 ar  
    27   15   22 1   
    28   16   17 ar  
    29   16   41 1   
    30   17   18 ar  
    31   17   42 1   
    32   18   19 1   
    33   19   20 1   
    34   20   21 1   
    35   20   43 1   
    36   20   44 1   
    37   21   45 1   
    38   21   46 1   
    39   21   47 1   
    40   22   23 ar  
    41   22   27 ar  
    42   23   24 ar  
    43   23   48 1   
    44   24   25 ar  
    45   24   49 1   
    46   25   26 ar  
    47   25   50 1   
    48   26   27 ar  
    49   26   28 1   
    50   27   51 1   
    51   28   29 1   
    52   28   52 1   
    53   29   30 2   
    54   29   31 2   
    55   29   32 1   
    56   32   53 1   
    57   32   54 1   
    58   32   55 1   
@<TRIPOS>SUBSTRUCTURE
     1 Q26         1 TEMP              0 ****  ****    0 ROOT
