@<TRIPOS>MOLECULE
Q26
   55    58     1     0     0
SMALL
bcc


@<TRIPOS>ATOM
      1 C1          0.3860    0.0990    0.2740 ca        1 Q26      0.722200
      2 N2          1.7260    0.1280    0.4220 nb        1 Q26     -0.822000
      3 C3          2.2240    0.1240    1.7350 ca        1 Q26      0.900900
      4 N4          1.4730    0.0730    2.8720 nb        1 Q26     -0.790000
      5 C5          0.1080    0.0700    2.7100 ca        1 Q26      0.479600
      6 C6         -0.5150    0.0850    1.4250 ca        1 Q26     -0.327600
      7 C7         -0.7280    0.0440    3.8720 ca        1 Q26     -0.194300
      8 C8         -2.1030    0.0330    3.7540 cp        1 Q26      0.013000
      9 C9         -2.7030    0.0510    2.4680 ca        1 Q26     -0.134000
     10 C10        -1.9240    0.0730    1.3350 ca        1 Q26     -0.083000
     11 N11        -0.1340    0.0150   -1.0110 nh        1 Q26     -0.944500
     12 N12         3.6150    0.2510    1.8670 nh        1 Q26     -0.923500
     13 C13        -2.9410   -0.0230    4.9520 cp        1 Q26     -0.070000
     14 C14        -2.5980   -0.9050    5.9830 ca        1 Q26     -0.074000
     15 C15        -3.3590   -0.9950    7.1550 cp        1 Q26     -0.080000
     16 C16        -4.4900   -0.1830    7.2970 ca        1 Q26     -0.077000
     17 C17        -4.8580    0.7000    6.2870 ca        1 Q26     -0.208000
     18 C18        -4.0930    0.7830    5.1150 ca        1 Q26      0.150100
     19 O19        -4.4110    1.6150    4.0620 os        1 Q26     -0.327900
     20 C20        -5.3750    2.6430    4.3390 c3        1 Q26      0.127400
     21 C21        -5.3670    3.5540    3.1330 c3        1 Q26     -0.101100
     22 C22        -2.9740   -1.9290    8.2130 cp        1 Q26     -0.002000
     23 C23        -2.5330   -3.2200    7.8930 ca        1 Q26     -0.141000
     24 C24        -2.1790   -4.1030    8.9080 ca        1 Q26     -0.098000
     25 C25        -2.2510   -3.7260   10.2450 ca        1 Q26     -0.181000
     26 C26        -2.6760   -2.4230   10.5850 ca        1 Q26      0.159600
     27 C27        -3.0430   -1.5330    9.5530 ca        1 Q26     -0.161000
     28 N28        -2.7460   -2.0020   11.9250 nh        1 Q26     -0.782500
     29 S29        -1.8810   -2.5460   13.1920 s6        1 Q26      1.469900
     30 O30        -2.3480   -1.8670   14.3370 o         1 Q26     -0.650300
     31 O31        -1.8520   -3.9500   13.2540 o         1 Q26     -0.650300
     32 C32        -0.3060   -2.0070   12.8520 c3        1 Q26     -0.371300
     33 H7         -0.2520    0.0420    4.8660 ha        1 Q26      0.153000
     34 H9         -3.8010    0.0570    2.3950 ha        1 Q26      0.149000
     35 H10        -2.4240    0.0740    0.3550 ha        1 Q26      0.124000
     36 HN11       -1.0610    0.3430   -1.1350 hn        1 Q26      0.422800
     37 HN1A        0.4860    0.1640   -1.7740 hn        1 Q26      0.422800
     38 HN12        3.9940   -0.0110    2.7480 hn        1 Q26      0.421800
     39 HN1B        4.1550   -0.0040    1.0720 hn        1 Q26      0.421800
     40 H14        -1.7040   -1.5400    5.8660 ha        1 Q26      0.147000
     41 H16        -5.1020   -0.2490    8.2100 ha        1 Q26      0.137000
     42 H17        -5.7550    1.3220    6.4170 ha        1 Q26      0.140000
     43 H20        -5.0830    3.1970    5.2690 h1        1 Q26      0.040200
     44 H20A       -6.3810    2.1680    4.4820 h1        1 Q26      0.040200
     45 H21        -4.3560    4.0040    2.9900 hc        1 Q26      0.050367
     46 H21A       -5.6310    2.9830    2.2110 hc        1 Q26      0.050367
     47 H21B       -6.1140    4.3680    3.2880 hc        1 Q26      0.050367
     48 H23        -2.4790   -3.5350    6.8400 ha        1 Q26      0.142000
     49 H24        -1.8450   -5.1210    8.6550 ha        1 Q26      0.140000
     50 H25        -1.9870   -4.4590   11.0280 ha        1 Q26      0.168000
     51 H27        -3.3850   -0.5140    9.7920 ha        1 Q26      0.137000
     52 HN28       -3.3890   -1.2520   12.0630 hn        1 Q26      0.457800
     53 H32         0.0730   -2.3170   11.8480 h1        1 Q26      0.118700
     54 H32A        0.4180   -2.4250   13.5970 h1        1 Q26      0.118700
     55 H32B       -0.1990   -0.8960   12.9050 h1        1 Q26      0.118700
@<TRIPOS>BOND
     1    1    2 ar  
     2    1    6 ar  
     3    1   11 1   
     4    2    3 ar  
     5    3    4 ar  
     6    3   12 1   
     7    4    5 ar  
     8    5    6 ar  
     9    5    7 ar  
    10    6   10 ar  
    11    7    8 ar  
    12    7   33 1   
    13    8    9 ar  
    14    8   13 1   
    15    9   10 ar  
    16    9   34 1   
    17   10   35 1   
    18   11   36 1   
    19   11   37 1   
    20   12   38 1   
    21   12   39 1   
    22   13   14 ar  
    23   13   18 ar  
    24   14   15 ar  
    25   14   40 1   
    26   15   16 ar  
    27   15   22 1   
    28   16   17 ar  
    29   16   41 1   
    30   17   18 ar  
    31   17   42 1   
    32   18   19 1   
    33   19   20 1   
    34   20   21 1   
    35   20   43 1   
    36   20   44 1   
    37   21   45 1   
    38   21   46 1   
    39   21   47 1   
    40   22   23 ar  
    41   22   27 ar  
    42   23   24 ar  
    43   23   48 1   
    44   24   25 ar  
    45   24   49 1   
    46   25   26 ar  
    47   25   50 1   
    48   26   27 ar  
    49   26   28 1   
    50   27   51 1   
    51   28   29 1   
    52   28   52 1   
    53   29   30 2   
    54   29   31 2   
    55   29   32 1   
    56   32   53 1   
    57   32   54 1   
    58   32   55 1   
@<TRIPOS>SUBSTRUCTURE
     1 Q26         1 TEMP              0 ****  ****    0 ROOT
