@<TRIPOS>MOLECULE
Q27
   46    49     1     0     0
SMALL
bcc


@<TRIPOS>ATOM
      1 C1          0.0120    0.0530   -0.0160 ca        1 Q27      0.718200
      2 N2          1.3580   -0.0240   -0.0290 nb        1 Q27     -0.821000
      3 C3          2.0030   -0.1210    1.2150 ca        1 Q27      0.894900
      4 N4          1.3880   -0.1640    2.4310 nb        1 Q27     -0.785000
      5 C5          0.0180   -0.0590    2.4310 ca        1 Q27      0.472600
      6 C6         -0.7480    0.0550    1.2320 ca        1 Q27     -0.321600
      7 C7         -0.6810   -0.0700    3.6810 ca        1 Q27     -0.185300
      8 C8         -2.0550    0.0290    3.7270 cp        1 Q27      0.018000
      9 C9         -2.8100    0.1420    2.5230 ca        1 Q27     -0.079300
     10 C10        -2.1530    0.1500    1.3090 ca        1 Q27     -0.089000
     11 N11        -0.6590    0.0620   -1.2340 nv        1 Q27     -0.942500
     12 N12         3.4080   -0.1020    1.1840 nv        1 Q27     -0.921500
     13 C13        -4.2850    0.2590    2.5850 c3        1 Q27     -0.052800
     14 C14        -2.7360    0.0140    5.0290 cp        1 Q27     -0.070000
     15 C15        -3.2110    1.1860    5.6120 ca        1 Q27      0.135100
     16 C16        -3.8450    1.1720    6.8840 ca        1 Q27     -0.183000
     17 C17        -4.0060   -0.0140    7.5530 ca        1 Q27     -0.085000
     18 C18        -3.5480   -1.2340    6.9900 ca        1 Q27     -0.064000
     19 C19        -2.9110   -1.2220    5.7230 ca        1 Q27      0.003000
     20 C20        -2.4560   -2.4570    5.1780 ca        1 Q27     -0.122000
     21 C21        -2.6320   -3.6340    5.8610 ca        1 Q27     -0.120000
     22 C22        -3.2700   -3.6420    7.1250 ca        1 Q27     -0.134000
     23 C23        -3.7170   -2.4680    7.6770 ca        1 Q27     -0.112000
     24 O24        -3.0880    2.3490    4.8740 os        1 Q27     -0.329900
     25 C25        -3.0230    3.5640    5.6370 c3        1 Q27      0.129400
     26 C26        -2.4560    4.6120    4.7070 c3        1 Q27     -0.102100
     27 H7         -0.0990   -0.1560    4.6130 ha        1 Q27      0.157000
     28 H10        -2.7560    0.2280    0.3910 ha        1 Q27      0.124000
     29 HN11       -0.1190    0.2020   -2.0580 hn        1 Q27      0.421300
     30 HN1A       -1.5600    0.4760   -1.2340 hn        1 Q27      0.421300
     31 HN12        3.8270   -0.3720    0.3240 hn        1 Q27      0.419300
     32 HN1B        3.8610   -0.4360    2.0040 hn        1 Q27      0.419300
     33 H13        -4.5670    1.1390    3.2200 hc        1 Q27      0.048033
     34 H13A       -4.7290    0.3950    1.5680 hc        1 Q27      0.048033
     35 H13B       -4.7280   -0.6600    3.0450 hc        1 Q27      0.048033
     36 H16        -4.2090    2.1130    7.3200 ha        1 Q27      0.139000
     37 H17        -4.4980   -0.0370    8.5380 ha        1 Q27      0.135000
     38 H20        -1.9550   -2.4450    4.1970 ha        1 Q27      0.146000
     39 H21        -2.2780   -4.5850    5.4360 ha        1 Q27      0.134000
     40 H22        -3.4000   -4.5980    7.6540 ha        1 Q27      0.132000
     41 H23        -4.2140   -2.4590    8.6590 ha        1 Q27      0.131000
     42 H25        -2.3700    3.4220    6.5370 h1        1 Q27      0.037700
     43 H25A       -4.0620    3.8340    5.9640 h1        1 Q27      0.037700
     44 H26        -2.4200    5.5920    5.2390 hc        1 Q27      0.050033
     45 H26A       -3.0940    4.7110    3.7960 hc        1 Q27      0.050033
     46 H26B       -1.4250    4.3300    4.3840 hc        1 Q27      0.050033
@<TRIPOS>BOND
     1    1    2 ar  
     2    1    6 ar  
     3    1   11 1   
     4    2    3 ar  
     5    3    4 ar  
     6    3   12 1   
     7    4    5 ar  
     8    5    6 ar  
     9    5    7 ar  
    10    6   10 ar  
    11    7    8 ar  
    12    7   27 1   
    13    8    9 ar  
    14    8   14 1   
    15    9   10 ar  
    16    9   13 1   
    17   10   28 1   
    18   11   29 1   
    19   11   30 1   
    20   12   31 1   
    21   12   32 1   
    22   13   33 1   
    23   13   34 1   
    24   13   35 1   
    25   14   15 ar  
    26   14   19 ar  
    27   15   16 ar  
    28   15   24 1   
    29   16   17 ar  
    30   16   36 1   
    31   17   18 ar  
    32   17   37 1   
    33   18   19 ar  
    34   18   23 ar  
    35   19   20 ar  
    36   20   21 ar  
    37   20   38 1   
    38   21   22 ar  
    39   21   39 1   
    40   22   23 ar  
    41   22   40 1   
    42   23   41 1   
    43   24   25 1   
    44   25   26 1   
    45   25   42 1   
    46   25   43 1   
    47   26   44 1   
    48   26   45 1   
    49   26   46 1   
@<TRIPOS>SUBSTRUCTURE
     1 Q27         1 TEMP              0 ****  ****    0 ROOT
