@<TRIPOS>MOLECULE
Q27
   46    49     1     0     0
SMALL
bcc


@<TRIPOS>ATOM
      1 C1         -4.0660    0.2460   -0.8920 ca        1 Q27      0.721200
      2 N2         -4.8680    0.4580    0.1710 nb        1 Q27     -0.824000
      3 C3         -4.2430    0.6370    1.4150 ca        1 Q27      0.896900
      4 N4         -2.9060    0.5280    1.6590 nb        1 Q27     -0.786000
      5 C5         -2.1010    0.2930    0.5700 ca        1 Q27      0.473600
      6 C6         -2.6140    0.1530   -0.7540 ca        1 Q27     -0.322600
      7 C7         -0.6850    0.1830    0.7610 ca        1 Q27     -0.186300
      8 C8          0.1600   -0.0390   -0.3040 cp        1 Q27      0.018000
      9 C9         -0.3630   -0.1620   -1.6250 ca        1 Q27     -0.080300
     10 C10        -1.7240   -0.0620   -1.8270 ca        1 Q27     -0.089000
     11 N11        -4.6470    0.1610   -2.1510 nh        1 Q27     -0.944500
     12 N12        -5.0820    1.0060    2.4800 nh        1 Q27     -0.922500
     13 C13         0.5550   -0.4010   -2.7630 c3        1 Q27     -0.052800
     14 C14         1.6070   -0.1420   -0.0680 cp        1 Q27     -0.070000
     15 C15         2.2550   -1.3740   -0.0580 ca        1 Q27      0.135100
     16 C16         3.6500   -1.4700    0.1950 ca        1 Q27     -0.183000
     17 C17         4.3820   -0.3350    0.4260 ca        1 Q27     -0.084000
     18 C18         3.7640    0.9440    0.4150 ca        1 Q27     -0.064000
     19 C19         2.3700    1.0420    0.1680 ca        1 Q27      0.003000
     20 C20         1.7700    2.3330    0.1650 ca        1 Q27     -0.122000
     21 C21         2.5210    3.4590    0.3950 ca        1 Q27     -0.119000
     22 C22         3.9110    3.3560    0.6400 ca        1 Q27     -0.134000
     23 C23         4.5190    2.1260    0.6500 ca        1 Q27     -0.112000
     24 O24         1.4910   -2.4870   -0.3600 os        1 Q27     -0.329900
     25 C25         1.9670   -3.7300    0.1780 c3        1 Q27      0.129400
     26 C26         0.8010   -4.6890    0.1080 c3        1 Q27     -0.101100
     27 H7         -0.2800    0.2820    1.7810 ha        1 Q27      0.157000
     28 H10        -2.1060   -0.1450   -2.8570 ha        1 Q27      0.124000
     29 HN11       -5.6380    0.0970   -2.2030 hn        1 Q27      0.422300
     30 HN1A       -4.1410   -0.3440   -2.8380 hn        1 Q27      0.422300
     31 HN12       -6.0470    0.8020    2.3670 hn        1 Q27      0.419800
     32 HN1B       -4.7140    0.8590    3.3920 hn        1 Q27      0.419800
     33 H13         1.1550   -1.3280   -2.5740 hc        1 Q27      0.047700
     34 H13A       -0.0050   -0.5270   -3.7210 hc        1 Q27      0.047700
     35 H13B        1.2640    0.4570   -2.8760 hc        1 Q27      0.047700
     36 H16         4.1360   -2.4560    0.1960 ha        1 Q27      0.139000
     37 H17         5.4640   -0.3970    0.6210 ha        1 Q27      0.135000
     38 H20         0.6860    2.4090   -0.0200 ha        1 Q27      0.147000
     39 H21         2.0500    4.4540    0.3930 ha        1 Q27      0.134000
     40 H22         4.4920    4.2720    0.8210 ha        1 Q27      0.132000
     41 H23         5.5980    2.0310    0.8410 ha        1 Q27      0.131000
     42 H25         2.8220   -4.0880   -0.4550 h1        1 Q27      0.037700
     43 H25A        2.3140   -3.5880    1.2340 h1        1 Q27      0.037700
     44 H26         1.1280   -5.6900    0.4780 hc        1 Q27      0.049367
     45 H26A       -0.0440   -4.3220    0.7370 hc        1 Q27      0.049367
     46 H26B        0.4390   -4.7870   -0.9430 hc        1 Q27      0.049367
@<TRIPOS>BOND
     1    1    2 ar  
     2    1    6 ar  
     3    1   11 1   
     4    2    3 ar  
     5    3    4 ar  
     6    3   12 1   
     7    4    5 ar  
     8    5    6 ar  
     9    5    7 ar  
    10    6   10 ar  
    11    7    8 ar  
    12    7   27 1   
    13    8    9 ar  
    14    8   14 1   
    15    9   10 ar  
    16    9   13 1   
    17   10   28 1   
    18   11   29 1   
    19   11   30 1   
    20   12   31 1   
    21   12   32 1   
    22   13   33 1   
    23   13   34 1   
    24   13   35 1   
    25   14   15 ar  
    26   14   19 ar  
    27   15   16 ar  
    28   15   24 1   
    29   16   17 ar  
    30   16   36 1   
    31   17   18 ar  
    32   17   37 1   
    33   18   19 ar  
    34   18   23 ar  
    35   19   20 ar  
    36   20   21 ar  
    37   20   38 1   
    38   21   22 ar  
    39   21   39 1   
    40   22   23 ar  
    41   22   40 1   
    42   23   41 1   
    43   24   25 1   
    44   25   26 1   
    45   25   42 1   
    46   25   43 1   
    47   26   44 1   
    48   26   45 1   
    49   26   46 1   
@<TRIPOS>SUBSTRUCTURE
     1 Q27         1 TEMP              0 ****  ****    0 ROOT
