@<TRIPOS>MOLECULE
Q27
   48    51     1     0     0
SMALL
bcc


@<TRIPOS>ATOM
      1 C1          0.0910    0.1790    0.0210 ca        1 Q27      0.527200
      2 N2          1.4040   -0.1020   -0.0430 nb        1 Q27     -0.675000
      3 C3          1.9900   -0.4470    1.1670 ca        1 Q27      0.680900
      4 N4          1.3890   -0.5290    2.3750 nb        1 Q27     -0.576000
      5 C5          0.0540   -0.2380    2.4240 ca        1 Q27      0.429600
      6 C6         -0.6850    0.1390    1.2290 ca        1 Q27     -0.197600
      7 C7         -0.6450   -0.2890    3.6660 ca        1 Q27     -0.142300
      8 C8         -1.9930    0.0180    3.7430 cp        1 Q27      0.099000
      9 C9         -2.7150    0.3720    2.5530 ca        1 Q27      0.086700
     10 C10        -2.0540    0.4260    1.3310 ca        1 Q27     -0.189000
     11 N11        -0.5760    0.5520   -1.2450 n4        1 Q27     -0.827300
     12 N12         3.4470   -0.7600    1.1150 n4        1 Q27     -0.806300
     13 C13        -4.1590    0.6660    2.6260 c3        1 Q27     -0.100800
     14 C14        -2.6610   -0.0250    5.0400 cp        1 Q27     -0.188000
     15 C15        -3.1400    1.1450    5.6390 ca        1 Q27      0.200100
     16 C16        -3.7440    1.1110    6.9250 ca        1 Q27     -0.209000
     17 C17        -3.8680   -0.0820    7.5880 ca        1 Q27     -0.019000
     18 C18        -3.4030   -1.2950    7.0110 ca        1 Q27     -0.075000
     19 C19        -2.7920   -1.2720    5.7310 ca        1 Q27      0.023000
     20 C20        -2.3500   -2.5000    5.1700 ca        1 Q27     -0.175000
     21 C21        -2.5020   -3.6830    5.8540 ca        1 Q27     -0.075000
     22 C22        -3.1030   -3.7020    7.1330 ca        1 Q27     -0.128000
     23 C23        -3.5460   -2.5300    7.6990 ca        1 Q27     -0.079000
     24 O24        -2.9790    2.3040    4.9180 os        1 Q27     -0.363900
     25 C25        -3.3530    3.5350    5.5730 c3        1 Q27      0.127400
     26 C26        -3.0080    4.6380    4.6020 c3        1 Q27     -0.104100
     27 H7         -0.0970   -0.5750    4.5860 ha        1 Q27      0.204000
     28 H10        -2.6410    0.7000    0.4400 ha        1 Q27      0.142000
     29 HN11       -1.3310   -0.1230   -1.4300 hn        1 Q27      0.488467
     30 HN1A       -0.9780    1.4950   -1.1390 hn        1 Q27      0.488467
     31 HN12        3.9620    0.0630    0.7730 hn        1 Q27      0.492133
     32 HN1B        3.7850   -1.0080    2.0590 hn        1 Q27      0.492133
     33 H13        -4.6880   -0.1230    3.2240 hc        1 Q27      0.094033
     34 H13A       -4.3090    1.6460    3.1590 hc        1 Q27      0.094033
     35 H13B       -4.6290    0.7310    1.6150 hc        1 Q27      0.094033
     36 H16        -4.1110    2.0400    7.3880 ha        1 Q27      0.164000
     37 H17        -4.3360   -0.1170    8.5880 ha        1 Q27      0.163000
     38 H20        -1.8880   -2.4980    4.1730 ha        1 Q27      0.111000
     39 H21        -2.1590   -4.6320    5.4120 ha        1 Q27      0.146000
     40 H22        -3.2150   -4.6610    7.6630 ha        1 Q27      0.160000
     41 H23        -4.0210   -2.5290    8.6940 ha        1 Q27      0.156000
     42 H25        -4.4540    3.5110    5.7880 h1        1 Q27      0.060200
     43 H25A       -2.7740    3.6340    6.5280 h1        1 Q27      0.060200
     44 H26        -3.2950    5.6180    5.0550 hc        1 Q27      0.055367
     45 H26A       -3.5620    4.5070    3.6420 hc        1 Q27      0.055367
     46 H26B       -1.9130    4.6460    4.3850 hc        1 Q27      0.055367
     47 H113        0.0820    0.5520   -2.0410 hn        1 Q27      0.488467
     48 H123        3.6040   -1.5540    0.4780 hn        1 Q27      0.492133
@<TRIPOS>BOND
     1    1    2 ar  
     2    1    6 ar  
     3    1   11 1   
     4    2    3 ar  
     5    3    4 ar  
     6    3   12 1   
     7    4    5 ar  
     8    5    6 ar  
     9    5    7 ar  
    10    6   10 ar  
    11    7    8 ar  
    12    7   27 1   
    13    8    9 ar  
    14    8   14 1   
    15    9   10 ar  
    16    9   13 1   
    17   10   28 1   
    18   11   29 1   
    19   11   30 1   
    20   11   47 1   
    21   12   31 1   
    22   12   32 1   
    23   12   48 1   
    24   13   33 1   
    25   13   34 1   
    26   13   35 1   
    27   14   15 ar  
    28   14   19 ar  
    29   15   16 ar  
    30   15   24 1   
    31   16   17 ar  
    32   16   36 1   
    33   17   18 ar  
    34   17   37 1   
    35   18   19 ar  
    36   18   23 ar  
    37   19   20 ar  
    38   20   21 ar  
    39   20   38 1   
    40   21   22 ar  
    41   21   39 1   
    42   22   23 ar  
    43   22   40 1   
    44   23   41 1   
    45   24   25 1   
    46   25   26 1   
    47   25   42 1   
    48   25   43 1   
    49   26   44 1   
    50   26   45 1   
    51   26   46 1   
@<TRIPOS>SUBSTRUCTURE
     1 Q27         1 TEMP              0 ****  ****    0 ROOT
