@<TRIPOS>MOLECULE
Q27
   46    49     1     0     0
SMALL
bcc


@<TRIPOS>ATOM
      1 C1          0.0210    0.1050   -0.0130 ca        1 Q27      0.720200
      2 N2          1.3640   -0.0210   -0.0270 nb        1 Q27     -0.822000
      3 C3          2.0050   -0.1600    1.2150 ca        1 Q27      0.894900
      4 N4          1.3920   -0.1590    2.4330 nb        1 Q27     -0.785000
      5 C5          0.0210   -0.0530    2.4320 ca        1 Q27      0.472600
      6 C6         -0.7410    0.0820    1.2330 ca        1 Q27     -0.321600
      7 C7         -0.6800   -0.0740    3.6800 ca        1 Q27     -0.185300
      8 C8         -2.0530    0.0360    3.7250 cp        1 Q27      0.018000
      9 C9         -2.8040    0.1780    2.5220 ca        1 Q27     -0.079300
     10 C10        -2.1450    0.1990    1.3100 ca        1 Q27     -0.089000
     11 N11        -0.6310    0.3280   -1.2200 nh        1 Q27     -0.944500
     12 N12         3.3910   -0.3880    1.1720 nh        1 Q27     -0.921500
     13 C13        -4.2780    0.3140    2.5830 c3        1 Q27     -0.053800
     14 C14        -2.7360    0.0050    5.0260 cp        1 Q27     -0.071000
     15 C15        -3.2100    1.1700    5.6240 ca        1 Q27      0.136100
     16 C16        -3.8480    1.1380    6.8940 ca        1 Q27     -0.183000
     17 C17        -4.0140   -0.0560    7.5460 ca        1 Q27     -0.084000
     18 C18        -3.5550   -1.2690    6.9680 ca        1 Q27     -0.064000
     19 C19        -2.9130   -1.2400    5.7030 ca        1 Q27      0.003000
     20 C20        -2.4570   -2.4680    5.1440 ca        1 Q27     -0.122000
     21 C21        -2.6350   -3.6540    5.8110 ca        1 Q27     -0.119000
     22 C22        -3.2790   -3.6790    7.0710 ca        1 Q27     -0.134000
     23 C23        -3.7280   -2.5120    7.6370 ca        1 Q27     -0.112000
     24 O24        -3.0810    2.3420    4.9030 os        1 Q27     -0.328900
     25 C25        -3.0320    3.5480    5.6810 c3        1 Q27      0.129400
     26 C26        -2.4660    4.6120    4.7680 c3        1 Q27     -0.101100
     27 H7         -0.1000   -0.1790    4.6110 ha        1 Q27      0.157000
     28 H10        -2.7440    0.3220    0.3940 ha        1 Q27      0.124000
     29 HN11       -0.1120    0.1990   -2.0580 hn        1 Q27      0.421800
     30 HN1A       -1.5870    0.0680   -1.2580 hn        1 Q27      0.421800
     31 HN12        3.8810   -0.2170    2.0200 hn        1 Q27      0.418800
     32 HN1B        3.8540   -0.0910    0.3440 hn        1 Q27      0.418800
     33 H13        -4.7180    0.4660    1.5680 hc        1 Q27      0.048033
     34 H13A       -4.7340   -0.6020    3.0350 hc        1 Q27      0.048033
     35 H13B       -4.5480    1.1920    3.2250 hc        1 Q27      0.048033
     36 H16        -4.2120    2.0740    7.3430 ha        1 Q27      0.139000
     37 H17        -4.5090   -0.0920    8.5290 ha        1 Q27      0.135000
     38 H20        -1.9510   -2.4430    4.1650 ha        1 Q27      0.146000
     39 H21        -2.2790   -4.5990    5.3740 ha        1 Q27      0.134000
     40 H22        -3.4110   -4.6410    7.5870 ha        1 Q27      0.132000
     41 H23        -4.2280   -2.5160    8.6170 ha        1 Q27      0.131000
     42 H25        -2.3840    3.4010    6.5840 h1        1 Q27      0.037200
     43 H25A       -4.0750    3.8070    6.0040 h1        1 Q27      0.037200
     44 H26        -3.0980    4.7150    3.8530 hc        1 Q27      0.050033
     45 H26A       -2.4440    5.5860    5.3110 hc        1 Q27      0.050033
     46 H26B       -1.4310    4.3430    4.4500 hc        1 Q27      0.050033
@<TRIPOS>BOND
     1    1    2 ar  
     2    1    6 ar  
     3    1   11 1   
     4    2    3 ar  
     5    3    4 ar  
     6    3   12 1   
     7    4    5 ar  
     8    5    6 ar  
     9    5    7 ar  
    10    6   10 ar  
    11    7    8 ar  
    12    7   27 1   
    13    8    9 ar  
    14    8   14 1   
    15    9   10 ar  
    16    9   13 1   
    17   10   28 1   
    18   11   29 1   
    19   11   30 1   
    20   12   31 1   
    21   12   32 1   
    22   13   33 1   
    23   13   34 1   
    24   13   35 1   
    25   14   15 ar  
    26   14   19 ar  
    27   15   16 ar  
    28   15   24 1   
    29   16   17 ar  
    30   16   36 1   
    31   17   18 ar  
    32   17   37 1   
    33   18   19 ar  
    34   18   23 ar  
    35   19   20 ar  
    36   20   21 ar  
    37   20   38 1   
    38   21   22 ar  
    39   21   39 1   
    40   22   23 ar  
    41   22   40 1   
    42   23   41 1   
    43   24   25 1   
    44   25   26 1   
    45   25   42 1   
    46   25   43 1   
    47   26   44 1   
    48   26   45 1   
    49   26   46 1   
@<TRIPOS>SUBSTRUCTURE
     1 Q27         1 TEMP              0 ****  ****    0 ROOT
