@<TRIPOS>MOLECULE
Q2T
   60    64     1     0     0
SMALL
bcc


@<TRIPOS>ATOM
      1 C32        -0.2470   -0.9110    0.3890 c3        1 Q2T     -0.093100
      2 C31         1.2510   -0.8940    0.2300 c3        1 Q2T     -0.078400
      3 C30         1.9400   -0.6620    1.5570 c3        1 Q2T     -0.086400
      4 C29         3.4470   -0.6500    1.3710 c3        1 Q2T      0.126400
      5 O28         3.9970   -0.4130    2.6770 os        1 Q2T     -0.318900
      6 C26         5.3690   -0.4430    2.7600 ca        1 Q2T      0.013800
      7 C25         6.2490   -0.5570    1.6620 ca        1 Q2T      0.331200
      8 N24         7.5880   -0.5690    1.8020 nb        1 Q2T     -0.636000
      9 C23         8.0960   -0.4640    3.0400 ca        1 Q2T      0.377200
     10 C27         5.9020   -0.3330    4.0610 ca        1 Q2T     -0.084000
     11 C22         7.2910   -0.3360    4.1980 ca        1 Q2T     -0.187200
     12 C9          7.8920   -0.2810    5.5230 cc        1 Q2T      0.363400
     13 N8          7.7510   -1.2460    6.5010 nd        1 Q2T     -0.339700
     14 N7          8.4250   -0.9180    7.5690 nd        1 Q2T     -0.052000
     15 C1          9.0460    0.2880    7.3530 cc        1 Q2T     -0.210600
     16 C6          9.9140    1.1150    8.1910 cc        1 Q2T      0.504600
     17 C14        10.2240    0.5690    9.5450 c3        1 Q2T     -0.152400
     18 N5         10.3830    2.2620    7.7640 nd        1 Q2T     -0.655000
     19 N2          8.7200    0.7320    6.0380 na        1 Q2T     -0.063200
     20 C3          9.1980    1.9670    5.5850 ca        1 Q2T     -0.069600
     21 C13         8.8800    2.4950    4.3160 ca        1 Q2T     -0.135000
     22 C12         9.3930    3.7240    3.9210 ca        1 Q2T     -0.058300
     23 C11        10.2260    4.4500    4.7880 ca        1 Q2T     -0.111000
     24 C10        10.5430    3.9590    6.0400 ca        1 Q2T     -0.150300
     25 C4         10.0410    2.7100    6.4830 ca        1 Q2T      0.372600
     26 C15         9.0950    4.2410    2.5420 c3        1 Q2T      0.209100
     27 N16         8.6420    5.6260    2.5200 n3        1 Q2T     -0.725600
     28 C21         8.6400    6.1700    1.1660 c3        1 Q2T      0.129800
     29 C20         8.1000    7.6040    1.1150 c3        1 Q2T      0.126900
     30 O19         6.8260    7.7100    1.7370 os        1 Q2T     -0.414600
     31 C18         6.8470    7.2500    3.0840 c3        1 Q2T      0.126900
     32 C17         7.3540    5.8070    3.1800 c3        1 Q2T      0.129800
     33 H321       -0.6110    0.0620    0.8000 hc        1 Q2T      0.037033
     34 H322       -0.7390   -1.0830   -0.5980 hc        1 Q2T      0.037033
     35 H323       -0.5600   -1.7250    1.0870 hc        1 Q2T      0.037033
     36 H311        1.5950   -1.8690   -0.2070 hc        1 Q2T      0.041200
     37 H312        1.5440   -0.0860   -0.4920 hc        1 Q2T      0.041200
     38 H301        1.6120    0.3140    2.0000 hc        1 Q2T      0.060200
     39 H302        1.6620   -1.4680    2.2850 hc        1 Q2T      0.060200
     40 H291        3.8170   -1.6340    0.9800 h1        1 Q2T      0.042200
     41 H292        3.7650    0.1760    0.6810 h1        1 Q2T      0.042200
     42 H25         5.8780   -0.6510    0.6270 h4        1 Q2T      0.031100
     43 H27         5.2320   -0.2580    4.9300 ha        1 Q2T      0.172000
     44 H23         9.1980   -0.4920    3.1180 h4        1 Q2T      0.035100
     45 H141        9.2680    0.4240   10.1080 hc        1 Q2T      0.070367
     46 H142       10.7250   -0.4250    9.4320 hc        1 Q2T      0.070367
     47 H143       10.8910    1.2490   10.1290 hc        1 Q2T      0.070367
     48 H13         8.2230    1.9300    3.6350 ha        1 Q2T      0.154000
     49 H11        10.6250    5.4240    4.4620 ha        1 Q2T      0.159000
     50 H151        8.3490    3.5530    2.0410 h1        1 Q2T      0.048200
     51 H152       10.0550    4.1880    1.9470 h1        1 Q2T      0.048200
     52 H10        11.1940    4.5420    6.7130 ha        1 Q2T      0.160000
     53 H211        8.0280    5.5320    0.4640 h1        1 Q2T      0.043450
     54 H212        9.7020    6.1750    0.7940 h1        1 Q2T      0.043450
     55 H171        7.4880    5.5410    4.2650 h1        1 Q2T      0.043450
     56 H172        6.5670    5.1240    2.7470 h1        1 Q2T      0.043450
     57 H201        8.8180    8.3140    1.6050 h1        1 Q2T      0.054950
     58 H202        7.9190    7.9090    0.0510 h1        1 Q2T      0.054950
     59 H181        7.4790    7.9370    3.7050 h1        1 Q2T      0.054950
     60 H182        5.7770    7.3050    3.4150 h1        1 Q2T      0.054950
@<TRIPOS>BOND
     1    1    2 1   
     2    1   33 1   
     3    1   34 1   
     4    1   35 1   
     5    2    3 1   
     6    2   36 1   
     7    2   37 1   
     8    3    4 1   
     9    3   38 1   
    10    3   39 1   
    11    4    5 1   
    12    4   40 1   
    13    4   41 1   
    14    5    6 1   
    15    6    7 ar  
    16    6   10 ar  
    17    7    8 ar  
    18    7   42 1   
    19    8    9 ar  
    20    9   11 ar  
    21    9   44 1   
    22   10   11 ar  
    23   10   43 1   
    24   11   12 1   
    25   12   13 2   
    26   12   19 1   
    27   13   14 1   
    28   14   15 2   
    29   15   16 1   
    30   15   19 1   
    31   16   17 1   
    32   16   18 2   
    33   17   45 1   
    34   17   46 1   
    35   17   47 1   
    36   18   25 1   
    37   19   20 1   
    38   20   21 ar  
    39   20   25 ar  
    40   21   22 ar  
    41   21   48 1   
    42   22   23 ar  
    43   22   26 1   
    44   23   24 ar  
    45   23   49 1   
    46   24   25 ar  
    47   24   52 1   
    48   26   27 1   
    49   26   50 1   
    50   26   51 1   
    51   27   28 1   
    52   27   32 1   
    53   28   29 1   
    54   28   53 1   
    55   28   54 1   
    56   29   30 1   
    57   29   57 1   
    58   29   58 1   
    59   30   31 1   
    60   31   32 1   
    61   31   59 1   
    62   31   60 1   
    63   32   55 1   
    64   32   56 1   
@<TRIPOS>SUBSTRUCTURE
     1 Q2T         1 TEMP              0 ****  ****    0 ROOT
