@<TRIPOS>MOLECULE
Q2T
   60    64     1     0     0
SMALL
bcc


@<TRIPOS>ATOM
      1 C32        -0.2500   -0.9020    0.3850 c3        1 Q2T     -0.093100
      2 C31         1.2490   -0.8880    0.2280 c3        1 Q2T     -0.078400
      3 C30         1.9370   -0.6550    1.5550 c3        1 Q2T     -0.086400
      4 C29         3.4440   -0.6460    1.3710 c3        1 Q2T      0.126400
      5 O28         3.9920   -0.4080    2.6770 os        1 Q2T     -0.318900
      6 C26         5.3640   -0.4400    2.7620 ca        1 Q2T      0.013800
      7 C25         6.2450   -0.5590    1.6660 ca        1 Q2T      0.331200
      8 N24         7.5850   -0.5730    1.8080 nb        1 Q2T     -0.636000
      9 C23         8.0910   -0.4670    3.0460 ca        1 Q2T      0.377200
     10 C27         5.8960   -0.3300    4.0630 ca        1 Q2T     -0.084000
     11 C22         7.2840   -0.3350    4.2020 ca        1 Q2T     -0.187200
     12 C9          7.8840   -0.2790    5.5280 cc        1 Q2T      0.363400
     13 N8          7.7400   -1.2420    6.5080 nd        1 Q2T     -0.339700
     14 N7          8.4140   -0.9140    7.5760 nd        1 Q2T     -0.052000
     15 C1          9.0370    0.2900    7.3590 cc        1 Q2T     -0.210600
     16 C6          9.9070    1.1160    8.1960 cc        1 Q2T      0.504600
     17 C14        10.2140    0.5720    9.5510 c3        1 Q2T     -0.152400
     18 N5         10.3790    2.2610    7.7680 nd        1 Q2T     -0.655000
     19 N2          8.7140    0.7320    6.0420 na        1 Q2T     -0.063200
     20 C3          9.1950    1.9660    5.5870 ca        1 Q2T     -0.069600
     21 C13         8.8800    2.4930    4.3170 ca        1 Q2T     -0.135000
     22 C12         9.3960    3.7190    3.9210 ca        1 Q2T     -0.058300
     23 C11        10.2300    4.4450    4.7880 ca        1 Q2T     -0.111000
     24 C10        10.5440    3.9560    6.0410 ca        1 Q2T     -0.150300
     25 C4         10.0400    2.7080    6.4850 ca        1 Q2T      0.372600
     26 C15         9.1010    4.2350    2.5410 c3        1 Q2T      0.209100
     27 N16         8.6510    5.6210    2.5170 n3        1 Q2T     -0.725600
     28 C21         8.6510    6.1620    1.1620 c3        1 Q2T      0.129800
     29 C20         8.1140    7.5970    1.1090 c3        1 Q2T      0.126900
     30 O19         6.8390    7.7070    1.7290 os        1 Q2T     -0.414600
     31 C18         6.8580    7.2490    3.0760 c3        1 Q2T      0.126900
     32 C17         7.3630    5.8060    3.1750 c3        1 Q2T      0.129800
     33 H321       -0.6120    0.0720    0.7940 hc        1 Q2T      0.037033
     34 H322       -0.7400   -1.0750   -0.6030 hc        1 Q2T      0.037033
     35 H323       -0.5650   -1.7140    1.0840 hc        1 Q2T      0.037033
     36 H311        1.5440   -0.0820   -0.4950 hc        1 Q2T      0.041200
     37 H312        1.5910   -1.8650   -0.2070 hc        1 Q2T      0.041200
     38 H301        1.6560   -1.4590    2.2840 hc        1 Q2T      0.060200
     39 H302        1.6090    0.3230    1.9960 hc        1 Q2T      0.060200
     40 H291        3.7640    0.1780    0.6810 h1        1 Q2T      0.042200
     41 H292        3.8120   -1.6310    0.9820 h1        1 Q2T      0.042200
     42 H25         5.8750   -0.6520    0.6300 h4        1 Q2T      0.031100
     43 H27         5.2250   -0.2530    4.9320 ha        1 Q2T      0.172000
     44 H23         9.1930   -0.4970    3.1250 h4        1 Q2T      0.035100
     45 H141        9.2570    0.4290   10.1130 hc        1 Q2T      0.070367
     46 H142       10.8810    1.2520   10.1350 hc        1 Q2T      0.070367
     47 H143       10.7130   -0.4230    9.4410 hc        1 Q2T      0.070367
     48 H13         8.2220    1.9270    3.6370 ha        1 Q2T      0.154000
     49 H11        10.6320    5.4180    4.4600 ha        1 Q2T      0.159000
     50 H151        8.3540    3.5480    2.0400 h1        1 Q2T      0.048200
     51 H152       10.0610    4.1790    1.9480 h1        1 Q2T      0.048200
     52 H10        11.1960    4.5380    6.7140 ha        1 Q2T      0.160000
     53 H211        9.7140    6.1650    0.7910 h1        1 Q2T      0.043450
     54 H212        8.0380    5.5250    0.4600 h1        1 Q2T      0.043450
     55 H171        6.5740    5.1230    2.7420 h1        1 Q2T      0.043450
     56 H172        7.4950    5.5400    4.2610 h1        1 Q2T      0.043450
     57 H201        7.9350    7.9010    0.0440 h1        1 Q2T      0.054950
     58 H202        8.8320    8.3070    1.5970 h1        1 Q2T      0.054950
     59 H181        7.4920    7.9360    3.6980 h1        1 Q2T      0.054950
     60 H182        5.7880    7.3070    3.4060 h1        1 Q2T      0.054950
@<TRIPOS>BOND
     1    1    2 1   
     2    1   33 1   
     3    1   34 1   
     4    1   35 1   
     5    2    3 1   
     6    2   36 1   
     7    2   37 1   
     8    3    4 1   
     9    3   38 1   
    10    3   39 1   
    11    4    5 1   
    12    4   40 1   
    13    4   41 1   
    14    5    6 1   
    15    6    7 ar  
    16    6   10 ar  
    17    7    8 ar  
    18    7   42 1   
    19    8    9 ar  
    20    9   11 ar  
    21    9   44 1   
    22   10   11 ar  
    23   10   43 1   
    24   11   12 1   
    25   12   13 2   
    26   12   19 1   
    27   13   14 1   
    28   14   15 2   
    29   15   16 1   
    30   15   19 1   
    31   16   17 1   
    32   16   18 2   
    33   17   45 1   
    34   17   46 1   
    35   17   47 1   
    36   18   25 1   
    37   19   20 1   
    38   20   21 ar  
    39   20   25 ar  
    40   21   22 ar  
    41   21   48 1   
    42   22   23 ar  
    43   22   26 1   
    44   23   24 ar  
    45   23   49 1   
    46   24   25 ar  
    47   24   52 1   
    48   26   27 1   
    49   26   50 1   
    50   26   51 1   
    51   27   28 1   
    52   27   32 1   
    53   28   29 1   
    54   28   53 1   
    55   28   54 1   
    56   29   30 1   
    57   29   57 1   
    58   29   58 1   
    59   30   31 1   
    60   31   32 1   
    61   31   59 1   
    62   31   60 1   
    63   32   55 1   
    64   32   56 1   
@<TRIPOS>SUBSTRUCTURE
     1 Q2T         1 TEMP              0 ****  ****    0 ROOT
