@<TRIPOS>MOLECULE
Q2T
   60    64     1     0     0
SMALL
bcc


@<TRIPOS>ATOM
      1 C32        -0.2550   -0.9150    0.4080 c3        1 Q2T     -0.093100
      2 C31         1.2430   -0.8970    0.2440 c3        1 Q2T     -0.078400
      3 C30         1.9350   -0.6650    1.5690 c3        1 Q2T     -0.086400
      4 C29         3.4420   -0.6510    1.3790 c3        1 Q2T      0.126400
      5 O28         3.9940   -0.4140    2.6830 os        1 Q2T     -0.318900
      6 C26         5.3670   -0.4430    2.7630 ca        1 Q2T      0.013800
      7 C25         6.2440   -0.5560    1.6620 ca        1 Q2T      0.331200
      8 N24         7.5840   -0.5670    1.7990 nb        1 Q2T     -0.636000
      9 C23         8.0950   -0.4620    3.0350 ca        1 Q2T      0.377200
     10 C27         5.9030   -0.3340    4.0620 ca        1 Q2T     -0.084000
     11 C22         7.2930   -0.3350    4.1950 ca        1 Q2T     -0.187200
     12 C9          7.8970   -0.2810    5.5190 cc        1 Q2T      0.363400
     13 N8          7.7600   -1.2460    6.4970 nd        1 Q2T     -0.339700
     14 N7          8.4370   -0.9190    7.5630 nd        1 Q2T     -0.052000
     15 C1          9.0560    0.2870    7.3460 cc        1 Q2T     -0.210600
     16 C6          9.9280    1.1140    8.1810 cc        1 Q2T      0.504600
     17 C14        10.2410    0.5670    9.5340 c3        1 Q2T     -0.152400
     18 N5         10.3960    2.2610    7.7530 nd        1 Q2T     -0.655000
     19 N2          8.7270    0.7310    6.0320 na        1 Q2T     -0.063200
     20 C3          9.2040    1.9670    5.5780 ca        1 Q2T     -0.069600
     21 C13         8.8820    2.4960    4.3100 ca        1 Q2T     -0.135000
     22 C12         9.3930    3.7240    3.9140 ca        1 Q2T     -0.058300
     23 C11        10.2300    4.4500    4.7790 ca        1 Q2T     -0.111000
     24 C10        10.5500    3.9590    6.0300 ca        1 Q2T     -0.150300
     25 C4         10.0500    2.7090    6.4730 ca        1 Q2T      0.372600
     26 C15         9.0910    4.2420    2.5370 c3        1 Q2T      0.209100
     27 N16         8.6390    5.6280    2.5170 n3        1 Q2T     -0.725600
     28 C21         8.6330    6.1720    1.1630 c3        1 Q2T      0.129800
     29 C20         8.0930    7.6060    1.1150 c3        1 Q2T      0.126900
     30 O19         6.8210    7.7130    1.7410 os        1 Q2T     -0.414600
     31 C18         6.8460    7.2530    3.0880 c3        1 Q2T      0.126900
     32 C17         7.3540    5.8100    3.1810 c3        1 Q2T      0.129800
     33 H321       -0.6190    0.0570    0.8200 hc        1 Q2T      0.037033
     34 H322       -0.5660   -1.7300    1.1060 hc        1 Q2T      0.037033
     35 H323       -0.7500   -1.0880   -0.5790 hc        1 Q2T      0.037033
     36 H311        1.5330   -0.0890   -0.4790 hc        1 Q2T      0.041200
     37 H312        1.5860   -1.8720   -0.1940 hc        1 Q2T      0.041200
     38 H301        1.6070    0.3110    2.0130 hc        1 Q2T      0.060200
     39 H302        1.6590   -1.4710    2.2980 hc        1 Q2T      0.060200
     40 H291        3.8110   -1.6340    0.9870 h1        1 Q2T      0.042200
     41 H292        3.7560    0.1760    0.6890 h1        1 Q2T      0.042200
     42 H25         5.8700   -0.6490    0.6280 h4        1 Q2T      0.031100
     43 H27         5.2360   -0.2600    4.9340 ha        1 Q2T      0.172000
     44 H23         9.1970   -0.4900    3.1100 h4        1 Q2T      0.035100
     45 H141        9.2870    0.4220   10.1000 hc        1 Q2T      0.070367
     46 H142       10.9100    1.2470   10.1160 hc        1 Q2T      0.070367
     47 H143       10.7420   -0.4270    9.4200 hc        1 Q2T      0.070367
     48 H13         8.2220    1.9310    3.6310 ha        1 Q2T      0.154000
     49 H11        10.6280    5.4250    4.4520 ha        1 Q2T      0.159000
     50 H151       10.0490    4.1900    1.9390 h1        1 Q2T      0.048200
     51 H152        8.3440    3.5550    2.0370 h1        1 Q2T      0.048200
     52 H10        11.2030    4.5410    6.7010 ha        1 Q2T      0.160000
     53 H211        9.6930    6.1770    0.7870 h1        1 Q2T      0.043450
     54 H212        8.0170    5.5350    0.4630 h1        1 Q2T      0.043450
     55 H171        7.4920    5.5430    4.2660 h1        1 Q2T      0.043450
     56 H172        6.5640    5.1270    2.7510 h1        1 Q2T      0.043450
     57 H201        8.8120    8.3160    1.6010 h1        1 Q2T      0.054950
     58 H202        7.9080    7.9120    0.0520 h1        1 Q2T      0.054950
     59 H181        5.7780    7.3080    3.4230 h1        1 Q2T      0.054950
     60 H182        7.4820    7.9390    3.7070 h1        1 Q2T      0.054950
@<TRIPOS>BOND
     1    1    2 1   
     2    1   33 1   
     3    1   34 1   
     4    1   35 1   
     5    2    3 1   
     6    2   36 1   
     7    2   37 1   
     8    3    4 1   
     9    3   38 1   
    10    3   39 1   
    11    4    5 1   
    12    4   40 1   
    13    4   41 1   
    14    5    6 1   
    15    6    7 ar  
    16    6   10 ar  
    17    7    8 ar  
    18    7   42 1   
    19    8    9 ar  
    20    9   11 ar  
    21    9   44 1   
    22   10   11 ar  
    23   10   43 1   
    24   11   12 1   
    25   12   13 2   
    26   12   19 1   
    27   13   14 1   
    28   14   15 2   
    29   15   16 1   
    30   15   19 1   
    31   16   17 1   
    32   16   18 2   
    33   17   45 1   
    34   17   46 1   
    35   17   47 1   
    36   18   25 1   
    37   19   20 1   
    38   20   21 ar  
    39   20   25 ar  
    40   21   22 ar  
    41   21   48 1   
    42   22   23 ar  
    43   22   26 1   
    44   23   24 ar  
    45   23   49 1   
    46   24   25 ar  
    47   24   52 1   
    48   26   27 1   
    49   26   50 1   
    50   26   51 1   
    51   27   28 1   
    52   27   32 1   
    53   28   29 1   
    54   28   53 1   
    55   28   54 1   
    56   29   30 1   
    57   29   57 1   
    58   29   58 1   
    59   30   31 1   
    60   31   32 1   
    61   31   59 1   
    62   31   60 1   
    63   32   55 1   
    64   32   56 1   
@<TRIPOS>SUBSTRUCTURE
     1 Q2T         1 TEMP              0 ****  ****    0 ROOT
