@<TRIPOS>MOLECULE
Q2Y
   65    68     1     0     0
SMALL
bcc


@<TRIPOS>ATOM
      1 O36         8.3120    0.5690   -1.6780 o         1 Q2Y     -0.568000
      2 C6          7.6660    0.1110   -0.7270 c         1 Q2Y      0.673100
      3 O35         8.4740   -0.0850    0.3620 oh        1 Q2Y     -0.643100
      4 C7          6.2160   -0.2330   -0.6810 c3        1 Q2Y     -0.176400
      5 C27         5.3570    0.8910   -1.2990 c3        1 Q2Y     -0.004300
      6 C18         4.0500    0.2360   -1.7950 c         1 Q2Y      0.552100
      7 O32         3.0450    0.2220   -1.0830 o         1 Q2Y     -0.490100
      8 N5          5.1010    1.9760   -0.3800 n         1 Q2Y     -0.552900
      9 C10         5.7210    3.2020   -0.4950 c         1 Q2Y      0.671100
     10 O33         6.7460    3.3420   -1.1980 o         1 Q2Y     -0.653100
     11 C9          5.1170    4.3670    0.2850 c3        1 Q2Y     -0.093100
     12 C12         6.1350    5.3770    0.6210 cc        1 Q2Y     -0.063400
     13 C21         6.7650    5.4890    1.8540 cd        1 Q2Y     -0.155000
     14 C23         7.7650    6.4970    1.8440 cd        1 Q2Y     -0.075000
     15 C14         7.8550    7.1170    0.6000 cc        1 Q2Y     -0.280400
     16 S37         6.7020    6.5190   -0.4580 ss        1 Q2Y      0.127200
     17 C17         8.8100    8.1820    0.2800 c3        1 Q2Y      0.223100
     18 N3          9.9710    7.6820   -0.5580 n4        1 Q2Y     -0.681800
     19 C19        10.8610    6.7270    0.2000 c         1 Q2Y      0.566700
     20 O34        11.5380    7.2340    1.0850 o         1 Q2Y     -0.404100
     21 C20        10.8630    5.3100   -0.2000 ca        1 Q2Y     -0.158600
     22 C22         9.7830    4.6860   -0.8350 ca        1 Q2Y     -0.057500
     23 C11         9.8250    3.3240   -1.1210 ca        1 Q2Y     -0.094000
     24 C26        12.0000    4.5580    0.1430 ca        1 Q2Y     -0.057500
     25 C25        12.0530    3.1930   -0.1340 ca        1 Q2Y     -0.094000
     26 C24        10.9590    2.5730   -0.7570 ca        1 Q2Y      0.036600
     27 N2         10.9380    1.1280   -1.0170 n4        1 Q2Y     -0.622100
     28 C13        12.2710    0.5060   -1.1440 ca        1 Q2Y      0.322900
     29 C29        12.6810   -0.4730   -0.1520 ca        1 Q2Y      0.315900
     30 N4         13.8400   -1.0950   -0.2500 nb        1 Q2Y     -0.566000
     31 C31        14.6550   -0.7910   -1.3230 ca        1 Q2Y      0.319300
     32 C30        15.9140   -1.4410   -1.4830 ca        1 Q2Y     -0.158300
     33 C8         14.2420    0.1930   -2.3070 ca        1 Q2Y      0.289300
     34 N1         13.0330    0.8380   -2.1930 nb        1 Q2Y     -0.585000
     35 C16        15.1080    0.4800   -3.4080 ca        1 Q2Y     -0.153300
     36 C28        16.3100   -0.1750   -3.5200 ca        1 Q2Y     -0.089000
     37 C15        16.7130   -1.1340   -2.5590 ca        1 Q2Y     -0.069000
     38 C1          4.1150   -0.3390   -3.1650 c3        1 Q2Y     -0.202100
     39 H71         5.8860   -0.4580    0.3680 hc        1 Q2Y      0.107200
     40 H72         6.0750   -1.1690   -1.2940 hc        1 Q2Y      0.107200
     41 H27         5.9150    1.3000   -2.2000 h1        1 Q2Y      0.114700
     42 HN5         7.9830   -0.4750    1.1010 ho        1 Q2Y      0.470000
     43 H91         4.3070    4.8120   -0.3600 hc        1 Q2Y      0.105200
     44 H92         4.6260    4.0050    1.2320 hc        1 Q2Y      0.105200
     45 H21         6.5290    4.8850    2.7360 ha        1 Q2Y      0.183000
     46 H23         8.3750    6.7470    2.7190 ha        1 Q2Y      0.177000
     47 H171        8.3230    9.0110   -0.3170 hx        1 Q2Y      0.124700
     48 H172        9.2540    8.6230    1.2230 hx        1 Q2Y      0.124700
     49 HN3         9.6160    7.2280   -1.4040 hn        1 Q2Y      0.462800
     50 H22         8.8460    5.2230   -1.0830 ha        1 Q2Y      0.180500
     51 H11         8.9430    2.8520   -1.6070 ha        1 Q2Y      0.202000
     52 H26        12.8550    5.0460    0.6480 ha        1 Q2Y      0.180500
     53 H25        12.9560    2.6230    0.1470 ha        1 Q2Y      0.202000
     54 HN2        10.4260    0.6640   -0.2440 hn        1 Q2Y      0.494300
     55 H29        12.0400   -0.7370    0.7090 h4        1 Q2Y      0.054100
     56 H30        16.2310   -2.1920   -0.7370 ha        1 Q2Y      0.184000
     57 H16        14.7960    1.2220   -4.1620 ha        1 Q2Y      0.170000
     58 H28        16.9800    0.0400   -4.3710 ha        1 Q2Y      0.173000
     59 H15        17.6860   -1.6400   -2.6860 ha        1 Q2Y      0.175000
     60 H11A        3.3290   -1.1260   -3.2960 hc        1 Q2Y      0.084367
     61 H12         3.9210    0.4740   -3.9110 hc        1 Q2Y      0.084367
     62 H13         5.1180   -0.7820   -3.3740 hc        1 Q2Y      0.084367
     63 H52         4.2470    1.9110    0.1360 hn        1 Q2Y      0.342500
     64 H32        10.5350    8.4990   -0.8300 hn        1 Q2Y      0.462800
     65 H221       10.3900    0.9570   -1.8860 hn        1 Q2Y      0.494300
@<TRIPOS>BOND
     1    1    2 2   
     2    2    3 1   
     3    2    4 1   
     4    3   42 1   
     5    4    5 1   
     6    4   39 1   
     7    4   40 1   
     8    5    6 1   
     9    5    8 1   
    10    5   41 1   
    11    6    7 2   
    12    6   38 1   
    13    8    9 1   
    14    8   63 1   
    15    9   10 2   
    16    9   11 1   
    17   11   12 1   
    18   11   43 1   
    19   11   44 1   
    20   12   13 2   
    21   12   16 1   
    22   13   14 1   
    23   13   45 1   
    24   14   15 2   
    25   14   46 1   
    26   15   16 1   
    27   15   17 1   
    28   17   18 1   
    29   17   47 1   
    30   17   48 1   
    31   18   19 1   
    32   18   49 1   
    33   18   64 1   
    34   19   20 2   
    35   19   21 1   
    36   21   22 ar  
    37   21   24 ar  
    38   22   23 ar  
    39   22   50 1   
    40   23   26 ar  
    41   23   51 1   
    42   24   25 ar  
    43   24   52 1   
    44   25   26 ar  
    45   25   53 1   
    46   26   27 1   
    47   27   28 1   
    48   27   54 1   
    49   27   65 1   
    50   28   29 ar  
    51   28   34 ar  
    52   29   30 ar  
    53   29   55 1   
    54   30   31 ar  
    55   31   32 ar  
    56   31   33 ar  
    57   32   37 ar  
    58   32   56 1   
    59   33   34 ar  
    60   33   35 ar  
    61   35   36 ar  
    62   35   57 1   
    63   36   37 ar  
    64   36   58 1   
    65   37   59 1   
    66   38   60 1   
    67   38   61 1   
    68   38   62 1   
@<TRIPOS>SUBSTRUCTURE
     1 Q2Y         1 TEMP              0 ****  ****    0 ROOT
