@<TRIPOS>MOLECULE
Q2Y
   64    67     1     0     0
SMALL
bcc


@<TRIPOS>ATOM
      1 O36         3.8550    2.4280   -4.0720 o         1 Q2Y     -0.475000
      2 C6          4.2420    1.6380   -3.2120 c         1 Q2Y      0.633100
      3 O35         3.2620    0.8520   -2.6920 oh        1 Q2Y     -0.562100
      4 C7          5.6700    1.4900   -2.7680 c3        1 Q2Y     -0.195400
      5 C27         5.8400    1.4840   -1.2380 c3        1 Q2Y      0.005700
      6 C18         7.3130    1.7980   -0.9360 c         1 Q2Y      0.596100
      7 O32         7.6840    2.8850   -0.4650 o         1 Q2Y     -0.625100
      8 N5          4.9280    2.3660   -0.5620 n         1 Q2Y     -0.582900
      9 C10         3.9830    1.9010    0.3440 c         1 Q2Y      0.669100
     10 O33         3.6530    0.7030    0.3500 o         1 Q2Y     -0.578100
     11 C9          3.3730    2.9210    1.3030 c3        1 Q2Y     -0.087100
     12 C12         4.4480    3.7040    1.9360 cc        1 Q2Y     -0.088400
     13 C21         5.1330    3.3490    3.0880 cd        1 Q2Y     -0.139000
     14 C23         6.2930    4.1520    3.2760 cd        1 Q2Y     -0.094000
     15 C14         6.4360    5.0870    2.2590 cc        1 Q2Y     -0.233400
     16 S37         5.1290    5.0540    1.2130 ss        1 Q2Y      0.076200
     17 C17         7.6160    5.9380    2.0510 c3        1 Q2Y      0.216100
     18 N3          8.5840    5.2460    1.1260 n4        1 Q2Y     -0.678800
     19 C19         9.8420    6.0530    0.8710 c         1 Q2Y      0.578700
     20 O34         9.8290    7.1990    1.3120 o         1 Q2Y     -0.461100
     21 C20        10.9100    5.3860    0.1530 ca        1 Q2Y     -0.278600
     22 C22        12.1320    6.0880    0.0400 ca        1 Q2Y     -0.013500
     23 C11        13.2080    5.5400   -0.6260 ca        1 Q2Y     -0.213000
     24 C26        10.8050    4.1120   -0.4330 ca        1 Q2Y     -0.013500
     25 C25        11.8730    3.5530   -1.1050 ca        1 Q2Y     -0.213000
     26 C24        13.1080    4.2530   -1.2340 ca        1 Q2Y      0.265600
     27 N2         14.1700    3.7670   -1.9660 nh        1 Q2Y     -0.710300
     28 C13        14.1970    2.4340   -2.4660 ca        1 Q2Y      0.480900
     29 C29        13.2380    2.0490   -3.5020 ca        1 Q2Y      0.301900
     30 N4         13.2410    0.8530   -4.0500 nb        1 Q2Y     -0.605000
     31 C31        14.2030   -0.0470   -3.6230 ca        1 Q2Y      0.283300
     32 C30        14.2710   -1.3550   -4.1890 ca        1 Q2Y     -0.157300
     33 C8         15.1560    0.3270   -2.6070 ca        1 Q2Y      0.301300
     34 N1         15.1300    1.5800   -2.0290 nb        1 Q2Y     -0.637000
     35 C16        16.1400   -0.6250   -2.1960 ca        1 Q2Y     -0.159300
     36 C28        16.1680   -1.8730   -2.7680 ca        1 Q2Y     -0.106000
     37 C15        15.2340   -2.2380   -3.7660 ca        1 Q2Y     -0.106000
     38 C1          8.2690    0.6960   -1.2380 c3        1 Q2Y     -0.213100
     39 H71         6.0690    0.5250   -3.1810 hc        1 Q2Y      0.090700
     40 H72         6.2580    2.3330   -3.2220 hc        1 Q2Y      0.090700
     41 H27         5.6420    0.4270   -0.8650 h1        1 Q2Y      0.111700
     42 HN5         3.5990    0.3160   -1.9560 ho        1 Q2Y      0.442000
     43 H91         2.6540    3.5720    0.7360 hc        1 Q2Y      0.111200
     44 H92         2.7810    2.3520    2.0730 hc        1 Q2Y      0.111200
     45 H21         4.8490    2.5320    3.7590 ha        1 Q2Y      0.184000
     46 H23         6.9850    4.0190    4.1130 ha        1 Q2Y      0.170000
     47 H171        8.1580    6.1400    3.0210 hx        1 Q2Y      0.118200
     48 H172        7.3510    6.9320    1.5860 hx        1 Q2Y      0.118200
     49 HN3         8.1230    5.0500    0.2260 hn        1 Q2Y      0.462800
     50 H22        12.2210    7.0900    0.4970 ha        1 Q2Y      0.156500
     51 H11        14.1490    6.1100   -0.6920 ha        1 Q2Y      0.162500
     52 H26         9.8690    3.5260   -0.3840 ha        1 Q2Y      0.156500
     53 H25        11.7650    2.5470   -1.5440 ha        1 Q2Y      0.162500
     54 HN2        15.0630    4.1880   -1.7960 hn        1 Q2Y      0.462800
     55 H29        12.4880    2.7750   -3.8660 h4        1 Q2Y      0.043100
     56 H30        13.5470   -1.6390   -4.9710 ha        1 Q2Y      0.161000
     57 H16        16.8710   -0.3410   -1.4230 ha        1 Q2Y      0.161000
     58 H28        16.9280   -2.6070   -2.4560 ha        1 Q2Y      0.153000
     59 H15        15.2910   -3.2480   -4.2050 ha        1 Q2Y      0.153000
     60 H11A        8.1460    0.3580   -2.2970 hc        1 Q2Y      0.083367
     61 H12         8.0660   -0.1740   -0.5640 hc        1 Q2Y      0.083367
     62 H13         9.3250    1.0300   -1.0860 hc        1 Q2Y      0.083367
     63 H52         5.1590    3.3340   -0.5760 hn        1 Q2Y      0.319500
     64 H32         8.8430    4.3370    1.5250 hn        1 Q2Y      0.462800
@<TRIPOS>BOND
     1    1    2 2   
     2    2    3 1   
     3    2    4 1   
     4    3   42 1   
     5    4    5 1   
     6    4   39 1   
     7    4   40 1   
     8    5    6 1   
     9    5    8 1   
    10    5   41 1   
    11    6    7 2   
    12    6   38 1   
    13    8    9 1   
    14    8   63 1   
    15    9   10 2   
    16    9   11 1   
    17   11   12 1   
    18   11   43 1   
    19   11   44 1   
    20   12   13 2   
    21   12   16 1   
    22   13   14 1   
    23   13   45 1   
    24   14   15 2   
    25   14   46 1   
    26   15   16 1   
    27   15   17 1   
    28   17   18 1   
    29   17   47 1   
    30   17   48 1   
    31   18   19 1   
    32   18   49 1   
    33   18   64 1   
    34   19   20 2   
    35   19   21 1   
    36   21   22 ar  
    37   21   24 ar  
    38   22   23 ar  
    39   22   50 1   
    40   23   26 ar  
    41   23   51 1   
    42   24   25 ar  
    43   24   52 1   
    44   25   26 ar  
    45   25   53 1   
    46   26   27 1   
    47   27   28 1   
    48   27   54 1   
    49   28   29 ar  
    50   28   34 ar  
    51   29   30 ar  
    52   29   55 1   
    53   30   31 ar  
    54   31   32 ar  
    55   31   33 ar  
    56   32   37 ar  
    57   32   56 1   
    58   33   34 ar  
    59   33   35 ar  
    60   35   36 ar  
    61   35   57 1   
    62   36   37 ar  
    63   36   58 1   
    64   37   59 1   
    65   38   60 1   
    66   38   61 1   
    67   38   62 1   
@<TRIPOS>SUBSTRUCTURE
     1 Q2Y         1 TEMP              0 ****  ****    0 ROOT
