@<TRIPOS>MOLECULE
Q2Y
   62    57     1     0     0
SMALL
bcc


@<TRIPOS>ATOM
      1 O36        -6.4100    1.0380    6.8440 o         1 Q2Y     -0.580500
      2 C6         -5.3830    0.4670    7.3140 c2        1 Q2Y      0.332000
      3 O35        -4.3760    1.1560    7.6540 o         1 Q2Y     -0.580500
      4 C7         -5.3860   -1.0450    7.5420 c3        1 Q2Y     -0.223000
      5 C27        -4.5570   -1.7260    6.4560 c3        1 Q2Y     -0.007000
      6 C18        -4.1680   -3.1010    6.9110 c2        1 Q2Y      0.226000
      7 O32        -4.7020   -4.0760    6.4210 o         1 Q2Y     -0.306000
      8 N5         -5.3270   -1.8220    5.2560 n         1 Q2Y     -0.346000
      9 C10        -4.6970   -1.5940    3.9690 c2        1 Q2Y      0.294000
     10 O33        -3.6070   -2.0800    3.7310 o         1 Q2Y     -0.403000
     11 C9         -5.4200   -0.7910    2.9000 c3        1 Q2Y     -0.093000
     12 C12        -4.4090   -0.1960    1.9470 c2        1 Q2Y     -0.503000
     13 C21        -4.0810   -0.7000    0.6270 c1        1 Q2Y     -0.172000
     14 C23        -2.9000    0.1890    0.0310 c1        1 Q2Y     -0.178000
     15 C14        -2.5520    1.2010    1.0110 c1        1 Q2Y     -0.477000
     16 S37        -3.4740    1.0070    2.2450 ss        1 Q2Y      0.864000
     17 C17        -1.4060    2.2170    0.8910 c2        1 Q2Y      0.053000
     18 N3         -0.2020    1.5380    0.4590 n         1 Q2Y     -0.369000
     19 C19         0.8560    2.2830   -0.2120 c2        1 Q2Y      0.346000
     20 O34         1.3930    3.2240    0.3550 o         1 Q2Y     -0.416000
     21 C20         1.4190    1.7740   -1.5750 c2        1 Q2Y     -0.139000
     22 C22         2.4780    0.8790   -1.5960 c2        1 Q2Y     -0.064000
     23 C11         2.9730    0.4150   -2.8110 c1        1 Q2Y     -0.149000
     24 C26         0.8530    2.2070   -2.7650 c1        1 Q2Y     -0.067000
     25 C25         1.3480    1.7430   -3.9800 c1        1 Q2Y     -0.202000
     26 C24         2.4060    0.8480   -4.0010 c1        1 Q2Y      0.044000
     27 N2          2.8690    0.3250   -5.2380 n3        1 Q2Y     -0.245000
     28 C13         4.1020    0.7810   -5.7870 c2        1 Q2Y      0.103000
     29 C29         4.5470    2.0330   -6.2140 c2        1 Q2Y     -0.103000
     30 N4          5.7880    2.1700   -6.7250 n1        1 Q2Y     -0.091000
     31 C31         6.6120    1.0790   -6.8260 c1        1 Q2Y     -0.039500
     32 C30         7.9050    1.2150   -7.3860 c2        1 Q2Y     -0.094000
     33 C8          6.1720   -0.1570   -6.4040 c1        1 Q2Y     -0.039500
     34 N1          4.9130   -0.2950   -5.8860 n1        1 Q2Y     -0.199000
     35 C16         7.0100   -1.2850   -6.5320 c2        1 Q2Y     -0.094000
     36 C28         8.2820   -1.1490   -7.0830 c1        1 Q2Y     -0.136500
     37 C15         8.7290    0.1030   -7.5100 c1        1 Q2Y     -0.136500
     38 C1         -3.1370   -3.2720    8.0190 c3        1 Q2Y     -0.278000
     39 H71        -4.9990   -1.2430    8.4210 hc        1 Q2Y      0.098500
     40 H72        -6.3110   -1.3800    7.5080 hc        1 Q2Y      0.098500
     41 H27        -3.7530   -1.2020    6.2850 h1        1 Q2Y      0.118000
     42 HN5        -6.2040   -2.0750    5.2960 hn        1 Q2Y      0.251000
     43 H91        -5.9290   -0.0760    3.3200 hc        1 Q2Y      0.107500
     44 H92        -6.0270   -1.3770    2.4070 hc        1 Q2Y      0.107500
     45 H21        -4.5110   -1.4550    0.1790 DU        1 Q2Y      0.130500
     46 H23        -2.4770    0.0660   -0.8320 DU        1 Q2Y      0.130500
     47 H171       -1.2490    2.6380    1.7640 h4        1 Q2Y      0.095000
     48 H172       -1.6470    2.9030    0.2370 h4        1 Q2Y      0.095000
     49 HN3        -0.1150    0.6350    0.5880 hn        1 Q2Y      0.274000
     50 H22         2.8770    0.5740   -0.7590 ha        1 Q2Y      0.223000
     51 H11         3.7250   -0.2200   -2.8250 ha        1 Q2Y      0.167000
     52 H26         0.0930    2.8160   -2.7500 ha        1 Q2Y      0.151000
     53 H25         0.9860    2.0960   -4.8230 ha        1 Q2Y      0.130000
     54 HN2         2.3940   -0.3220   -5.6630 hn        1 Q2Y      0.240000
     55 H29         3.9470    2.8100   -6.1670 h4        1 Q2Y      0.189000
     56 H30         8.2390    2.0730   -7.7270 ha        1 Q2Y      0.145500
     57 H16         6.7780   -2.2110   -6.3030 ha        1 Q2Y      0.145500
     58 H28         8.8810   -1.9250   -6.9870 ha        1 Q2Y      0.128500
     59 H15         9.5810    0.2010   -7.9880 ha        1 Q2Y      0.128500
     60 H11A       -3.5760   -3.1760    8.8920 hc        1 Q2Y      0.105333
     61 H12        -2.4360   -2.5840    7.9250 hc        1 Q2Y      0.105333
     62 H13        -2.7290   -4.1680    7.9530 hc        1 Q2Y      0.105333
@<TRIPOS>BOND
     1    1    2 1   
     2    2    3 1   
     3    2    4 1   
     4    4    5 1   
     5    4   39 1   
     6    4   40 1   
     7    5    6 1   
     8    5    8 1   
     9    5   41 1   
    10    6    7 1   
    11    6   38 1   
    12    8    9 1   
    13    8   42 1   
    14    9   10 1   
    15    9   11 1   
    16   11   12 1   
    17   11   43 1   
    18   11   44 1   
    19   12   13 1   
    20   12   16 1   
    21   13   14 1   
    22   14   15 1   
    23   15   16 1   
    24   17   18 1   
    25   17   47 1   
    26   17   48 1   
    27   18   19 1   
    28   18   49 1   
    29   19   20 1   
    30   19   21 1   
    31   21   22 1   
    32   21   24 1   
    33   22   23 1   
    34   22   50 1   
    35   23   51 1   
    36   24   52 1   
    37   25   26 1   
    38   25   53 1   
    39   26   27 1   
    40   27   28 1   
    41   27   54 1   
    42   28   29 1   
    43   28   34 1   
    44   29   30 1   
    45   29   55 1   
    46   31   32 1   
    47   31   33 1   
    48   32   37 1   
    49   32   56 1   
    50   33   35 1   
    51   35   36 1   
    52   35   57 1   
    53   36   58 1   
    54   37   59 1   
    55   38   60 1   
    56   38   61 1   
    57   38   62 1   
@<TRIPOS>SUBSTRUCTURE
     1 Q2Y         1 TEMP              0 ****  ****    0 ROOT
