@<TRIPOS>MOLECULE
Q2Y
   62    65     1     0     0
SMALL
bcc


@<TRIPOS>ATOM
      1 O36         9.2220   -4.6840   -3.6440 o         1 Q2Y     -0.860300
      2 C6          8.2670   -4.0790   -3.0800 c         1 Q2Y      0.911600
      3 O35         8.2060   -3.9500   -1.8140 o         1 Q2Y     -0.860300
      4 C7          7.1410   -3.5080   -3.9390 c3        1 Q2Y     -0.195400
      5 C27         7.1250   -1.9750   -3.9420 c3        1 Q2Y      0.028700
      6 C18         5.9700   -1.5150   -4.8450 c         1 Q2Y      0.567100
      7 O32         4.7960   -1.8410   -4.6490 o         1 Q2Y     -0.547100
      8 N5          7.0190   -1.4140   -2.6110 n         1 Q2Y     -0.521900
      9 C10         7.3280   -0.1020   -2.3610 c         1 Q2Y      0.648100
     10 O33         7.5140    0.7280   -3.2840 o         1 Q2Y     -0.665100
     11 C9          7.3700    0.3940   -0.9180 c3        1 Q2Y     -0.067100
     12 C12         7.5160   -0.6600    0.0940 cc        1 Q2Y     -0.162400
     13 C21         6.5050   -1.1160    0.9280 cd        1 Q2Y     -0.152000
     14 C23         6.9270   -2.2280    1.7080 cd        1 Q2Y     -0.159000
     15 C14         8.2440   -2.5680    1.4380 cc        1 Q2Y     -0.142400
     16 S37         8.9210   -1.5360    0.3180 ss        1 Q2Y      0.132200
     17 C17         8.9410   -3.7600    1.9900 c3        1 Q2Y      0.171300
     18 N3          9.4600   -4.6310    0.9660 n         1 Q2Y     -0.559900
     19 C19        10.6910   -5.2290    1.1030 c         1 Q2Y      0.668700
     20 O34        11.3410   -5.1240    2.1730 o         1 Q2Y     -0.661100
     21 C20        11.2130   -6.0540   -0.0240 ca        1 Q2Y     -0.148600
     22 C22        12.1870   -7.0190    0.2750 ca        1 Q2Y     -0.077500
     23 C11        12.7270   -7.8110   -0.7280 ca        1 Q2Y     -0.155000
     24 C26        10.7890   -5.8910   -1.3430 ca        1 Q2Y     -0.077500
     25 C25        11.3210   -6.6890   -2.3600 ca        1 Q2Y     -0.155000
     26 C24        12.2980   -7.6540   -2.0670 ca        1 Q2Y      0.090600
     27 N2         12.7930   -8.5220   -3.0810 nh        1 Q2Y     -0.703300
     28 C13        13.7600   -8.0590   -3.9850 ca        1 Q2Y      0.546900
     29 C29        13.7410   -6.6540   -4.4360 ca        1 Q2Y      0.304900
     30 N4         14.5570   -6.1960   -5.3540 nb        1 Q2Y     -0.612000
     31 C31        15.4650   -7.0850   -5.9140 ca        1 Q2Y      0.244300
     32 C30        16.3710   -6.6490   -6.9230 ca        1 Q2Y     -0.139300
     33 C8         15.5020   -8.4540   -5.4800 ca        1 Q2Y      0.333300
     34 N1         14.6520   -8.9270   -4.5000 nb        1 Q2Y     -0.731000
     35 C16        16.4540   -9.3370   -6.0780 ca        1 Q2Y     -0.178300
     36 C28        17.3100   -8.8770   -7.0470 ca        1 Q2Y     -0.123000
     37 C15        17.2700   -7.5310   -7.4730 ca        1 Q2Y     -0.155000
     38 C1          6.3830   -0.6420   -5.9840 c3        1 Q2Y     -0.209100
     39 H71         6.1630   -3.8960   -3.5550 hc        1 Q2Y      0.056200
     40 H72         7.2730   -3.8530   -4.9950 hc        1 Q2Y      0.056200
     41 H27         8.0890   -1.6050   -4.4090 h1        1 Q2Y      0.064700
     42 HN5         7.0590   -2.0880   -1.8660 hn        1 Q2Y      0.362500
     43 H91         6.4150    0.9640   -0.7460 hc        1 Q2Y      0.072700
     44 H92         8.2170    1.1290   -0.8530 hc        1 Q2Y      0.072700
     45 H21         5.4950   -0.7030    0.9650 ha        1 Q2Y      0.144000
     46 H23         6.2760   -2.7590    2.4040 ha        1 Q2Y      0.145000
     47 H171        9.7830   -3.4350    2.6710 h1        1 Q2Y      0.056700
     48 H172        8.2080   -4.3470    2.6200 h1        1 Q2Y      0.056700
     49 HN3         8.9920   -4.6310    0.0760 hn        1 Q2Y      0.374500
     50 H22        12.5260   -7.1320    1.3180 ha        1 Q2Y      0.191000
     51 H11        13.4890   -8.5620   -0.4710 ha        1 Q2Y      0.154000
     52 H26        10.0230   -5.1370   -1.6470 ha        1 Q2Y      0.191000
     53 H25        10.9320   -6.5360   -3.3840 ha        1 Q2Y      0.154000
     54 HN2        12.9490   -9.4550   -2.7470 hn        1 Q2Y      0.419800
     55 H29        13.0120   -5.9420   -3.9990 h4        1 Q2Y      0.065100
     56 H30        16.3360   -5.5990   -7.2540 ha        1 Q2Y      0.146000
     57 H16        16.4860  -10.3880   -5.7500 ha        1 Q2Y      0.143000
     58 H28        18.0410   -9.5590   -7.5070 ha        1 Q2Y      0.125000
     59 H15        17.9690   -7.1960   -8.2530 ha        1 Q2Y      0.127000
     60 H11A        6.8590    0.2830   -5.5640 hc        1 Q2Y      0.064700
     61 H12         7.1320   -1.1750   -6.6190 hc        1 Q2Y      0.064700
     62 H13         5.5060   -0.3560   -6.6120 hc        1 Q2Y      0.064700
@<TRIPOS>BOND
     1    1    2 1   
     2    2    3 1   
     3    2    4 1   
     4    4    5 1   
     5    4   39 1   
     6    4   40 1   
     7    5    6 1   
     8    5    8 1   
     9    5   41 1   
    10    6    7 2   
    11    6   38 1   
    12    8    9 1   
    13    8   42 1   
    14    9   10 2   
    15    9   11 1   
    16   11   12 1   
    17   11   43 1   
    18   11   44 1   
    19   12   13 2   
    20   12   16 1   
    21   13   14 1   
    22   13   45 1   
    23   14   15 2   
    24   14   46 1   
    25   15   16 1   
    26   15   17 1   
    27   17   18 1   
    28   17   47 1   
    29   17   48 1   
    30   18   19 1   
    31   18   49 1   
    32   19   20 2   
    33   19   21 1   
    34   21   22 ar  
    35   21   24 ar  
    36   22   23 ar  
    37   22   50 1   
    38   23   26 ar  
    39   23   51 1   
    40   24   25 ar  
    41   24   52 1   
    42   25   26 ar  
    43   25   53 1   
    44   26   27 1   
    45   27   28 1   
    46   27   54 1   
    47   28   29 ar  
    48   28   34 ar  
    49   29   30 ar  
    50   29   55 1   
    51   30   31 ar  
    52   31   32 ar  
    53   31   33 ar  
    54   32   37 ar  
    55   32   56 1   
    56   33   34 ar  
    57   33   35 ar  
    58   35   36 ar  
    59   35   57 1   
    60   36   37 ar  
    61   36   58 1   
    62   37   59 1   
    63   38   60 1   
    64   38   61 1   
    65   38   62 1   
@<TRIPOS>SUBSTRUCTURE
     1 Q2Y         1 TEMP              0 ****  ****    0 ROOT
