@<TRIPOS>MOLECULE
Q2Y
   64    67     1     0     0
SMALL
bcc


@<TRIPOS>ATOM
      1 O36         7.9810    3.4100   -1.1140 o         1 Q2Y     -0.611000
      2 C6          7.1450    3.0720   -1.9690 c         1 Q2Y      0.680100
      3 O35         6.6920    4.1240   -2.6920 oh        1 Q2Y     -0.581100
      4 C7          6.6800    1.6740   -2.2280 c3        1 Q2Y     -0.197400
      5 C27         5.1490    1.5360   -2.3620 c3        1 Q2Y     -0.005300
      6 C18         4.8410    0.0270   -2.3030 c         1 Q2Y      0.559100
      7 O32         4.7290   -0.5500   -1.2210 o         1 Q2Y     -0.503100
      8 N5          4.4280    2.2760   -1.3600 ns        1 Q2Y     -0.574900
      9 C10         3.7770    3.4610   -1.6460 c         1 Q2Y      0.663100
     10 O33         3.7970    3.9380   -2.7980 o         1 Q2Y     -0.609100
     11 C9          3.1420    4.2050   -0.4730 c3        1 Q2Y     -0.079100
     12 C12         4.2240    4.6180    0.4390 cc        1 Q2Y     -0.115400
     13 C21         4.6340    3.9150    1.5670 cd        1 Q2Y     -0.153000
     14 C23         5.8470    4.4340    2.0910 cd        1 Q2Y     -0.102000
     15 C14         6.3050    5.5110    1.3370 cc        1 Q2Y     -0.248400
     16 S37         5.2300    5.9090    0.1260 ss        1 Q2Y      0.161200
     17 C17         7.6070    6.1690    1.5180 c3        1 Q2Y      0.217100
     18 N3          8.6680    5.4440    0.7360 ny        1 Q2Y     -0.677800
     19 C19        10.0270    6.1000    0.8410 c         1 Q2Y      0.580700
     20 O34        10.0220    7.2650    1.2310 o         1 Q2Y     -0.468100
     21 C20        11.1780    5.2890    0.4900 ca        1 Q2Y     -0.274600
     22 C22        12.4480    5.8130    0.8190 ca        1 Q2Y     -0.014000
     23 C11        13.6020    5.1180    0.5220 ca        1 Q2Y     -0.211500
     24 C26        11.1060    4.0440   -0.1600 ca        1 Q2Y     -0.014000
     25 C25        12.2540    3.3400   -0.4660 ca        1 Q2Y     -0.211500
     26 C24        13.5400    3.8580   -0.1420 ca        1 Q2Y      0.258600
     27 N2         14.7150    3.2280   -0.5030 nu        1 Q2Y     -0.711300
     28 C13        14.7310    1.9000   -1.0150 ca        1 Q2Y      0.483900
     29 C29        14.1360    1.6430   -2.3280 ca        1 Q2Y      0.304900
     30 N4         14.1680    0.4550   -2.8910 nb        1 Q2Y     -0.605000
     31 C31        14.8010   -0.5660   -2.2020 ca        1 Q2Y      0.283300
     32 C30        14.8820   -1.8750   -2.7650 ca        1 Q2Y     -0.156300
     33 C8         15.3930   -0.3210   -0.9110 ca        1 Q2Y      0.302300
     34 N1         15.3400    0.9280   -0.3250 nb        1 Q2Y     -0.641000
     35 C16        16.0440   -1.3970   -0.2320 ca        1 Q2Y     -0.160300
     36 C28        16.0970   -2.6410   -0.8110 ca        1 Q2Y     -0.108000
     37 C15        15.5170   -2.8810   -2.0780 ca        1 Q2Y     -0.109000
     38 C1          4.7000   -0.6370   -3.6270 c3        1 Q2Y     -0.201100
     39 H71         7.1550    1.3130   -3.1800 hc        1 Q2Y      0.103700
     40 H72         7.0460    1.0220   -1.3870 hc        1 Q2Y      0.103700
     41 H27         4.8370    1.9230   -3.3820 h1        1 Q2Y      0.101700
     42 HN5         4.3280    1.8530   -0.4650 hn        1 Q2Y      0.339500
     43 H91         2.3970    3.5480    0.0510 hc        1 Q2Y      0.103200
     44 H92         2.5860    5.0900   -0.8890 hc        1 Q2Y      0.103200
     45 H21         4.1090    3.0560    1.9950 ha        1 Q2Y      0.174000
     46 H23         6.3520    4.0180    2.9670 ha        1 Q2Y      0.166000
     47 H171        7.9240    6.1650    2.6020 hx        1 Q2Y      0.114700
     48 H172        7.5920    7.2410    1.1620 hx        1 Q2Y      0.114700
     49 HN3         8.7290    4.4730    1.0630 hn        1 Q2Y      0.470300
     50 H22        12.5110    6.7950    1.3230 ha        1 Q2Y      0.160500
     51 H11        14.5780    5.5510    0.7980 ha        1 Q2Y      0.163000
     52 H26        10.1390    3.6010   -0.4580 ha        1 Q2Y      0.160500
     53 H25        12.1660    2.3610   -0.9660 ha        1 Q2Y      0.163000
     54 HN2        15.5410    3.5120   -0.0100 hn        1 Q2Y      0.458800
     55 H29        13.6520    2.4620   -2.8910 h4        1 Q2Y      0.044100
     56 H30        14.4350   -2.0610   -3.7550 ha        1 Q2Y      0.160000
     57 H16        16.4990   -1.2120    0.7540 ha        1 Q2Y      0.160000
     58 H28        16.6010   -3.4720   -0.2900 ha        1 Q2Y      0.151000
     59 H15        15.5850   -3.8910   -2.5120 ha        1 Q2Y      0.151000
     60 H11A        5.5560   -0.3650   -4.2920 hc        1 Q2Y      0.080700
     61 H12         4.6660   -1.7490   -3.5090 hc        1 Q2Y      0.080700
     62 H13         3.7490   -0.3000   -4.1120 hc        1 Q2Y      0.080700
     63 H52         5.9640    3.8630   -3.2860 ho        1 Q2Y      0.472000
     64 H32         8.3940    5.3910   -0.2600 hn        1 Q2Y      0.470300
@<TRIPOS>BOND
     1    1    2 2   
     2    2    3 1   
     3    2    4 1   
     4    3   63 1   
     5    4    5 1   
     6    4   39 1   
     7    4   40 1   
     8    5    6 1   
     9    5    8 1   
    10    5   41 1   
    11    6    7 2   
    12    6   38 1   
    13    8    9 1   
    14    8   42 1   
    15    9   10 2   
    16    9   11 1   
    17   11   12 1   
    18   11   43 1   
    19   11   44 1   
    20   12   13 2   
    21   12   16 1   
    22   13   14 1   
    23   13   45 1   
    24   14   15 2   
    25   14   46 1   
    26   15   16 1   
    27   15   17 1   
    28   17   18 1   
    29   17   47 1   
    30   17   48 1   
    31   18   19 1   
    32   18   49 1   
    33   18   64 1   
    34   19   20 2   
    35   19   21 1   
    36   21   22 ar  
    37   21   24 ar  
    38   22   23 ar  
    39   22   50 1   
    40   23   26 ar  
    41   23   51 1   
    42   24   25 ar  
    43   24   52 1   
    44   25   26 ar  
    45   25   53 1   
    46   26   27 1   
    47   27   28 1   
    48   27   54 1   
    49   28   29 ar  
    50   28   34 ar  
    51   29   30 ar  
    52   29   55 1   
    53   30   31 ar  
    54   31   32 ar  
    55   31   33 ar  
    56   32   37 ar  
    57   32   56 1   
    58   33   34 ar  
    59   33   35 ar  
    60   35   36 ar  
    61   35   57 1   
    62   36   37 ar  
    63   36   58 1   
    64   37   59 1   
    65   38   60 1   
    66   38   61 1   
    67   38   62 1   
@<TRIPOS>SUBSTRUCTURE
     1 Q2Y         1 TEMP              0 ****  ****    0 ROOT
