@<TRIPOS>MOLECULE
Q31
   53    55     1     0     0
SMALL
bcc


@<TRIPOS>ATOM
      1 C1         -0.1830   -0.2080    0.0330 ca        1 Q31     -0.133000
      2 C2          1.2170   -0.2960   -0.0390 ca        1 Q31     -0.072000
      3 C3         -2.3000    6.9920   -2.9180 cc        1 Q31     -0.233600
      4 C4         -4.0810    7.3830   -1.6120 cc        1 Q31      0.393400
      5 C5         -0.1490    0.4900    2.3800 ca        1 Q31     -0.153600
      6 C6         -0.8630    0.1710    1.1950 ca        1 Q31     -0.014300
      7 C7          1.9060    0.0180    1.1140 ca        1 Q31      0.046100
      8 C8          1.2330    0.4100    2.2980 ca        1 Q31      0.077100
      9 C9         -2.1550    6.3320   -1.6780 cd        1 Q31      0.288600
     10 C10        -0.8180    0.8600    3.6400 c         1 Q31      0.658700
     11 C11        -1.3210    4.0210   -1.2670 c         1 Q31      0.664100
     12 C12         3.4780    0.4250    2.7130 c3        1 Q31      0.326200
     13 C13        -6.4920    2.8610    1.8130 c3        1 Q31     -0.091100
     14 C14        -4.3840    3.8900    2.6240 c3        1 Q31     -0.091100
     15 C15        -2.3530    0.2250    1.1690 c3        1 Q31     -0.054100
     16 C16        -1.0030    5.5110   -1.2620 c3        1 Q31     -0.167700
     17 C17        -4.3560    1.6470    1.4900 c3        1 Q31     -0.077400
     18 C18        -2.6950    2.1920   -0.3520 c3        1 Q31      0.089000
     19 C19        -5.0060    3.0200    1.5520 c3        1 Q31     -0.069700
     20 C20        -2.8900    1.6550    1.0790 c3        1 Q31     -0.072700
     21 N21        -3.2770    6.5890   -0.8760 nd        1 Q31     -0.674000
     22 N22        -3.5220    7.6560   -2.8670 na        1 Q31     -0.318900
     23 N23        -2.3040    3.5730   -0.4170 n         1 Q31     -0.563900
     24 O24        -0.2300    1.7700    4.4720 oh        1 Q31     -0.577100
     25 O25        -1.8920    0.4370    4.0740 o         1 Q31     -0.495000
     26 O26        -0.6800    3.2430   -2.0060 o         1 Q31     -0.631100
     27 O27         3.2790    0.0210    1.3410 os        1 Q31     -0.327900
     28 O28         2.1720    0.6770    3.2890 os        1 Q31     -0.350900
     29 H1         -0.7630   -0.4430   -0.8740 ha        1 Q31      0.152000
     30 H2          1.7300   -0.5910   -0.9640 ha        1 Q31      0.164000
     31 H22        -3.9170    8.2060   -3.5820 hn        1 Q31      0.303700
     32 H151       -2.7420   -0.3690    0.2990 hc        1 Q31      0.071700
     33 H152       -2.7510   -0.2580    2.1050 hc        1 Q31      0.071700
     34 H161       -0.6590    5.8080   -0.2340 hc        1 Q31      0.080200
     35 H162       -0.1510    5.6740   -1.9760 hc        1 Q31      0.080200
     36 H23         0.6340    2.0410    4.1300 ho        1 Q31      0.439000
     37 H121        3.9550   -0.4170    3.2720 h2        1 Q31      0.078700
     38 H122        4.0590    1.3800    2.7260 h2        1 Q31      0.078700
     39 H131       -6.6660    2.3560    2.7930 hc        1 Q31      0.034867
     40 H132       -6.9890    3.8610    1.8380 hc        1 Q31      0.034867
     41 H133       -6.9680    2.2490    1.0090 hc        1 Q31      0.034867
     42 H19        -4.8830    3.5290    0.5550 hc        1 Q31      0.046700
     43 H141       -4.9400    4.8560    2.7060 hc        1 Q31      0.034867
     44 H142       -4.4170    3.3770    3.6150 hc        1 Q31      0.034867
     45 H143       -3.3190    4.1200    2.3800 hc        1 Q31      0.034867
     46 H20        -2.3180    2.2830    1.8180 hc        1 Q31      0.063700
     47 H171       -4.4370    1.1680    2.5040 hc        1 Q31      0.048200
     48 H172       -4.9320    1.0060    0.7690 hc        1 Q31      0.048200
     49 H181       -3.6600    2.0570   -0.9230 h1        1 Q31      0.054700
     50 H182       -1.9030    1.5790   -0.8750 h1        1 Q31      0.054700
     51 H4         -5.0510    7.7800   -1.2940 h5        1 Q31      0.063100
     52 H232       -2.8140    4.2230    0.1340 hn        1 Q31      0.331500
     53 H3         -1.6460    7.0230   -3.7880 h4        1 Q31      0.184000
@<TRIPOS>BOND
     1    1    2 ar  
     2    1    6 ar  
     3    1   29 1   
     4    2    7 ar  
     5    2   30 1   
     6    3    9 2   
     7    3   22 1   
     8    3   53 1   
     9    4   21 2   
    10    4   22 1   
    11    4   51 1   
    12    5    6 ar  
    13    5    8 ar  
    14    5   10 1   
    15    6   15 1   
    16    7    8 ar  
    17    7   27 1   
    18    8   28 1   
    19    9   16 1   
    20    9   21 1   
    21   10   24 1   
    22   10   25 2   
    23   11   16 1   
    24   11   23 1   
    25   11   26 2   
    26   12   27 1   
    27   12   28 1   
    28   12   37 1   
    29   12   38 1   
    30   13   19 1   
    31   13   39 1   
    32   13   40 1   
    33   13   41 1   
    34   14   19 1   
    35   14   43 1   
    36   14   44 1   
    37   14   45 1   
    38   15   20 1   
    39   15   32 1   
    40   15   33 1   
    41   16   34 1   
    42   16   35 1   
    43   17   19 1   
    44   17   20 1   
    45   17   47 1   
    46   17   48 1   
    47   18   20 1   
    48   18   23 1   
    49   18   49 1   
    50   18   50 1   
    51   19   42 1   
    52   20   46 1   
    53   22   31 1   
    54   23   52 1   
    55   24   36 1   
@<TRIPOS>SUBSTRUCTURE
     1 Q31         1 TEMP              0 ****  ****    0 ROOT
