@<TRIPOS>MOLECULE
Q31
   52    54     1     0     0
SMALL
bcc


@<TRIPOS>ATOM
      1 C1         -2.5660   -0.5350   -2.0680 ca        1 Q31     -0.152000
      2 C2         -3.0190   -1.8630   -2.0060 ca        1 Q31     -0.141000
      3 C3          5.0900   -1.2020    0.4130 cc        1 Q31     -0.235600
      4 C4          5.4310   -3.1070    1.5460 cc        1 Q31      0.359400
      5 C5         -2.2680   -0.3870    0.3650 ca        1 Q31     -0.087600
      6 C6         -2.2060    0.1910   -0.9290 ca        1 Q31     -0.063300
      7 C7         -3.0900   -2.4180   -0.7470 ca        1 Q31      0.032100
      8 C8         -2.7200   -1.6930    0.4150 ca        1 Q31      0.068100
      9 C9          4.0200   -1.4430    1.3020 cd        1 Q31      0.310600
     10 C10        -1.8450    0.3830    1.6080 c         1 Q31      0.926200
     11 C11         2.4540    0.1710    0.2420 c         1 Q31      0.655100
     12 C12        -3.3790   -3.7800    1.0510 c3        1 Q31      0.319200
     13 C13         1.8660    4.9670   -1.3570 c3        1 Q31     -0.087100
     14 C14         0.9290    4.4070    0.8740 c3        1 Q31     -0.087100
     15 C15        -1.8030    1.6180   -1.0910 c3        1 Q31     -0.027100
     16 C16         2.8400   -0.5770    1.5130 c3        1 Q31     -0.171700
     17 C17         0.0040    3.3200   -1.1860 c3        1 Q31     -0.063400
     18 C18         0.6260    0.8780   -1.2350 c3        1 Q31      0.079000
     19 C19         1.2500    3.8740   -0.5070 c3        1 Q31     -0.079700
     20 C20        -0.3640    1.9280   -0.6930 c3        1 Q31     -0.102700
     21 N21         4.2530   -2.6370    2.0030 nd        1 Q31     -0.657000
     22 N22         5.9800   -2.2600    0.5730 na        1 Q31     -0.332900
     23 N23         1.1690    0.0030   -0.2260 n         1 Q31     -0.524900
     24 O24        -2.6590    1.1960    2.1130 o         1 Q31     -0.819300
     25 O25        -0.6710    0.1760    2.0390 o         1 Q31     -0.819300
     26 O26         3.2960    0.8760   -0.3680 o         1 Q31     -0.681100
     27 O27        -3.5030   -3.7010   -0.3860 os        1 Q31     -0.356900
     28 O28        -2.8970   -2.5130    1.5330 os        1 Q31     -0.313900
     29 H1         -2.4960   -0.0570   -3.0570 ha        1 Q31      0.117000
     30 H2         -3.2980   -2.4210   -2.9070 ha        1 Q31      0.130000
     31 H22         6.8180   -2.3970    0.0780 hn        1 Q31      0.288700
     32 H151       -1.9640    1.9350   -2.1570 hc        1 Q31      0.047700
     33 H152       -2.4820    2.2410   -0.4410 hc        1 Q31      0.047700
     34 H161        1.9760   -1.1720    1.9210 hc        1 Q31      0.093200
     35 H162        3.0880    0.2070    2.2810 hc        1 Q31      0.093200
     36 H23         0.4880   -0.3460    0.4370 hn        1 Q31      0.358500
     37 H121       -4.3920   -3.9690    1.4850 h2        1 Q31      0.052200
     38 H122       -2.6300   -4.5710    1.3010 h2        1 Q31      0.052200
     39 H131        2.7630    5.3930   -0.8480 hc        1 Q31      0.028700
     40 H132        2.1820    4.5600   -2.3480 hc        1 Q31      0.028700
     41 H133        1.1320    5.7910   -1.5300 hc        1 Q31      0.028700
     42 H19         2.0040    3.0380   -0.4010 hc        1 Q31      0.078700
     43 H141        0.4640    3.6090    1.5030 hc        1 Q31      0.028700
     44 H142        1.8610    4.7580    1.3770 hc        1 Q31      0.028700
     45 H143        0.2170    5.2650    0.8100 hc        1 Q31      0.028700
     46 H20        -0.3290    1.9310    0.4390 hc        1 Q31      0.110700
     47 H171       -0.8570    4.0160   -0.9960 hc        1 Q31      0.029200
     48 H172        0.1670    3.2890   -2.2960 hc        1 Q31      0.029200
     49 H181        0.0930    0.2230   -1.9850 h1        1 Q31      0.051700
     50 H182        1.4750    1.3910   -1.7710 h1        1 Q31      0.051700
     51 H3          5.2380   -0.3780   -0.2870 h4        1 Q31      0.206000
     52 H4          5.9200   -4.0280    1.8730 h5        1 Q31      0.046100
@<TRIPOS>BOND
     1    1    2 ar  
     2    1    6 ar  
     3    1   29 1   
     4    2    7 ar  
     5    2   30 1   
     6    3    9 2   
     7    3   22 1   
     8    3   51 1   
     9    4   21 2   
    10    4   22 1   
    11    4   52 1   
    12    5    6 ar  
    13    5    8 ar  
    14    5   10 1   
    15    6   15 1   
    16    7    8 ar  
    17    7   27 1   
    18    8   28 1   
    19    9   16 1   
    20    9   21 1   
    21   10   24 1   
    22   10   25 1   
    23   11   16 1   
    24   11   23 1   
    25   11   26 2   
    26   12   27 1   
    27   12   28 1   
    28   12   37 1   
    29   12   38 1   
    30   13   19 1   
    31   13   39 1   
    32   13   40 1   
    33   13   41 1   
    34   14   19 1   
    35   14   43 1   
    36   14   44 1   
    37   14   45 1   
    38   15   20 1   
    39   15   32 1   
    40   15   33 1   
    41   16   34 1   
    42   16   35 1   
    43   17   19 1   
    44   17   20 1   
    45   17   47 1   
    46   17   48 1   
    47   18   20 1   
    48   18   23 1   
    49   18   49 1   
    50   18   50 1   
    51   19   42 1   
    52   20   46 1   
    53   22   31 1   
    54   23   36 1   
@<TRIPOS>SUBSTRUCTURE
     1 Q31         1 TEMP              0 ****  ****    0 ROOT
