@<TRIPOS>MOLECULE
Q31
   53    55     1     0     0
SMALL
bcc


@<TRIPOS>ATOM
      1 C1         -0.4640    0.4440   -0.3490 ca        1 Q31     -0.145000
      2 C2          0.8340    0.7660   -0.7820 ca        1 Q31     -0.080000
      3 C3         -1.2480    6.4840   -2.3820 cc        1 Q31     -0.231600
      4 C4          0.6800    5.3510   -2.2170 cc        1 Q31      0.390400
      5 C5         -0.1320    1.4850    1.8410 ca        1 Q31     -0.156600
      6 C6         -0.9500    0.7820    0.9180 ca        1 Q31     -0.016300
      7 C7          1.6210    1.4550    0.1160 ca        1 Q31      0.050100
      8 C8          1.1420    1.8120    1.4020 ca        1 Q31      0.086100
      9 C9         -1.1790    5.8090   -1.1440 cd        1 Q31      0.289600
     10 C10        -0.5800    1.8310    3.2020 c         1 Q31      0.656700
     11 C11        -3.1500    4.6490   -0.1200 c         1 Q31      0.657100
     12 C12         3.2800    2.5830    1.1960 c3        1 Q31      0.327200
     13 C13        -7.0900    1.6690    1.9380 c3        1 Q31     -0.088100
     14 C14        -5.4070    2.4330    3.5960 c3        1 Q31     -0.088100
     15 C15        -2.3340    0.3650    1.2850 c3        1 Q31     -0.056100
     16 C16        -2.2020    5.8400   -0.0820 c3        1 Q31     -0.171700
     17 C17        -4.7100    0.9850    1.6750 c3        1 Q31     -0.069400
     18 C18        -3.4070    2.2010   -0.0930 c3        1 Q31      0.084000
     19 C19        -5.6490    2.0910    2.1400 c3        1 Q31     -0.078700
     20 C20        -3.3350    1.5160    1.2860 c3        1 Q31     -0.085700
     21 N21         0.0330    5.1080   -1.0590 nd        1 Q31     -0.680000
     22 N22        -0.0660    6.1890   -3.0540 na        1 Q31     -0.317900
     23 N23        -2.6060    3.3860   -0.2240 n         1 Q31     -0.556900
     24 O24        -0.1620    3.0000    3.7710 oh        1 Q31     -0.575100
     25 O25        -1.3160    1.1730    3.9390 o         1 Q31     -0.490000
     26 O26        -4.3850    4.8300   -0.0680 o         1 Q31     -0.620100
     27 O27         2.9280    1.9090   -0.0330 os        1 Q31     -0.330900
     28 O28         2.1380    2.5020    2.0840 os        1 Q31     -0.344900
     29 H1         -1.1220   -0.1020   -1.0440 ha        1 Q31      0.148000
     30 H2          1.1950    0.4850   -1.7800 ha        1 Q31      0.160000
     31 H22         0.1910    6.5080   -3.9500 hn        1 Q31      0.304700
     32 H151       -2.6900   -0.4270    0.5730 hc        1 Q31      0.070700
     33 H152       -2.3140   -0.0950    2.3130 hc        1 Q31      0.070700
     34 H161       -1.7210    5.8680    0.9330 hc        1 Q31      0.083700
     35 H162       -2.8260    6.7680   -0.1950 hc        1 Q31      0.083700
     36 H23        -1.6230    3.2780   -0.1440 hn        1 Q31      0.320500
     37 H121        3.4780    3.6600    0.9730 h2        1 Q31      0.079700
     38 H122        4.1350    2.0400    1.6710 h2        1 Q31      0.079700
     39 H131       -7.3060    0.7250    2.4930 hc        1 Q31      0.033200
     40 H132       -7.3000    1.5000    0.8540 hc        1 Q31      0.033200
     41 H133       -7.7800    2.4650    2.3110 hc        1 Q31      0.033200
     42 H19        -5.4600    3.0170    1.5210 hc        1 Q31      0.071700
     43 H141       -6.0490    3.2950    3.9000 hc        1 Q31      0.033200
     44 H142       -4.3380    2.7110    3.7620 hc        1 Q31      0.033200
     45 H143       -5.6490    1.5620    4.2510 hc        1 Q31      0.033200
     46 H20        -3.0090    2.2550    2.0730 hc        1 Q31      0.067700
     47 H171       -5.1590    0.4540    0.7940 hc        1 Q31      0.042700
     48 H172       -4.5970    0.2300    2.4970 hc        1 Q31      0.042700
     49 H181       -4.4790    2.4750   -0.3170 h1        1 Q31      0.061700
     50 H182       -3.0640    1.4680   -0.8790 h1        1 Q31      0.061700
     51 H4          1.6640    4.9580   -2.4930 h5        1 Q31      0.063100
     52 H232        0.4540    3.4660    3.1860 ho        1 Q31      0.441000
     53 H3         -2.0250    7.1200   -2.8030 h4        1 Q31      0.186000
@<TRIPOS>BOND
     1    1    2 ar  
     2    1    6 ar  
     3    1   29 1   
     4    2    7 ar  
     5    2   30 1   
     6    3    9 2   
     7    3   22 1   
     8    3   53 1   
     9    4   21 2   
    10    4   22 1   
    11    4   51 1   
    12    5    6 ar  
    13    5    8 ar  
    14    5   10 1   
    15    6   15 1   
    16    7    8 ar  
    17    7   27 1   
    18    8   28 1   
    19    9   16 1   
    20    9   21 1   
    21   10   24 1   
    22   10   25 2   
    23   11   16 1   
    24   11   23 1   
    25   11   26 2   
    26   12   27 1   
    27   12   28 1   
    28   12   37 1   
    29   12   38 1   
    30   13   19 1   
    31   13   39 1   
    32   13   40 1   
    33   13   41 1   
    34   14   19 1   
    35   14   43 1   
    36   14   44 1   
    37   14   45 1   
    38   15   20 1   
    39   15   32 1   
    40   15   33 1   
    41   16   34 1   
    42   16   35 1   
    43   17   19 1   
    44   17   20 1   
    45   17   47 1   
    46   17   48 1   
    47   18   20 1   
    48   18   23 1   
    49   18   49 1   
    50   18   50 1   
    51   19   42 1   
    52   20   46 1   
    53   22   31 1   
    54   23   36 1   
    55   24   52 1   
@<TRIPOS>SUBSTRUCTURE
     1 Q31         1 TEMP              0 ****  ****    0 ROOT
