@<TRIPOS>MOLECULE
Q31
   53    55     1     0     0
SMALL
bcc


@<TRIPOS>ATOM
      1 C1         -0.5200    0.4100   -0.3530 ca        1 Q31     -0.145000
      2 C2          0.7790    0.7050   -0.8010 ca        1 Q31     -0.080000
      3 C3         -1.2050    6.4520   -2.4090 cc        1 Q31     -0.231600
      4 C4          0.7020    5.2810   -2.2570 cc        1 Q31      0.390400
      5 C5         -0.1460    1.4540    1.8290 ca        1 Q31     -0.156600
      6 C6         -0.9870    0.7620    0.9170 ca        1 Q31     -0.016300
      7 C7          1.5880    1.3820    0.0870 ca        1 Q31      0.050100
      8 C8          1.1300    1.7530    1.3760 ca        1 Q31      0.086100
      9 C9         -1.1370    5.7820   -1.1680 cd        1 Q31      0.289600
     10 C10        -0.5740    1.8130    3.1930 c         1 Q31      0.656700
     11 C11        -3.1200    4.6670   -0.1190 c         1 Q31      0.657100
     12 C12         3.2800    2.4810    1.1470 c3        1 Q31      0.327200
     13 C13        -7.0990    1.7740    1.9940 c3        1 Q31     -0.088100
     14 C14        -5.3830    2.5130    3.6300 c3        1 Q31     -0.088100
     15 C15        -2.3750    0.3740    1.3000 c3        1 Q31     -0.056100
     16 C16        -2.1480    5.8380   -0.0970 c3        1 Q31     -0.171700
     17 C17        -4.7340    1.0430    1.7100 c3        1 Q31     -0.069400
     18 C18        -3.4260    2.2250   -0.0770 c3        1 Q31      0.084000
     19 C19        -5.6480    2.1690    2.1790 c3        1 Q31     -0.078700
     20 C20        -3.3530    1.5450    1.3050 c3        1 Q31     -0.085700
     21 N21         0.0620    5.0570   -1.0910 nd        1 Q31     -0.680000
     22 N22        -0.0360    6.1300   -3.0920 na        1 Q31     -0.317900
     23 N23        -2.6030    3.3930   -0.2220 ns        1 Q31     -0.556900
     24 O24        -0.1280    2.9770    3.7520 oh        1 Q31     -0.575100
     25 O25        -1.3160    1.1730    3.9400 o         1 Q31     -0.490000
     26 O26        -4.3500    4.8730   -0.0550 o         1 Q31     -0.620100
     27 O27         2.9030    1.8090   -0.0760 os        1 Q31     -0.330900
     28 O28         2.1450    2.4270    2.0460 os        1 Q31     -0.344900
     29 H1         -1.1950   -0.1260   -1.0400 ha        1 Q31      0.148000
     30 H2          1.1250    0.4130   -1.8000 ha        1 Q31      0.160000
     31 H22         0.2180    6.4380   -3.9920 hn        1 Q31      0.304700
     32 H151       -2.7530   -0.4140    0.5940 hc        1 Q31      0.070700
     33 H152       -2.3540   -0.0810    2.3300 hc        1 Q31      0.070700
     34 H161       -1.6560    5.8620    0.9140 hc        1 Q31      0.083700
     35 H162       -2.7550    6.7780   -0.2070 hc        1 Q31      0.083700
     36 H23         0.4910    3.4280    3.1600 ho        1 Q31      0.441000
     37 H121        3.4970    3.5530    0.9160 h2        1 Q31      0.079700
     38 H122        4.1280    1.9240    1.6150 h2        1 Q31      0.079700
     39 H131       -7.7690    2.5840    2.3690 hc        1 Q31      0.033200
     40 H132       -7.3260    0.8370    2.5560 hc        1 Q31      0.033200
     41 H133       -7.3220    1.6030    0.9130 hc        1 Q31      0.033200
     42 H19        -5.4470    3.0870    1.5530 hc        1 Q31      0.071700
     43 H141       -6.0060    3.3880    3.9370 hc        1 Q31      0.033200
     44 H142       -5.6360    1.6510    4.2930 hc        1 Q31      0.033200
     45 H143       -4.3080    2.7710    3.7840 hc        1 Q31      0.033200
     46 H20        -3.0050    2.2800    2.0850 hc        1 Q31      0.067700
     47 H171       -4.6280    0.2890    2.5340 hc        1 Q31      0.042700
     48 H172       -5.2020    0.5160    0.8370 hc        1 Q31      0.042700
     49 H181       -4.4950    2.5180   -0.2910 h1        1 Q31      0.061700
     50 H182       -3.1060    1.4800   -0.8630 h1        1 Q31      0.061700
     51 H4          1.6750    4.8670   -2.5410 h5        1 Q31      0.063100
     52 H232       -1.6210    3.2650   -0.1510 hn        1 Q31      0.320500
     53 H3         -1.9740    7.1000   -2.8260 h4        1 Q31      0.186000
@<TRIPOS>BOND
     1    1    2 ar  
     2    1    6 ar  
     3    1   29 1   
     4    2    7 ar  
     5    2   30 1   
     6    3    9 2   
     7    3   22 1   
     8    3   53 1   
     9    4   21 2   
    10    4   22 1   
    11    4   51 1   
    12    5    6 ar  
    13    5    8 ar  
    14    5   10 1   
    15    6   15 1   
    16    7    8 ar  
    17    7   27 1   
    18    8   28 1   
    19    9   16 1   
    20    9   21 1   
    21   10   24 1   
    22   10   25 2   
    23   11   16 1   
    24   11   23 1   
    25   11   26 2   
    26   12   27 1   
    27   12   28 1   
    28   12   37 1   
    29   12   38 1   
    30   13   19 1   
    31   13   39 1   
    32   13   40 1   
    33   13   41 1   
    34   14   19 1   
    35   14   43 1   
    36   14   44 1   
    37   14   45 1   
    38   15   20 1   
    39   15   32 1   
    40   15   33 1   
    41   16   34 1   
    42   16   35 1   
    43   17   19 1   
    44   17   20 1   
    45   17   47 1   
    46   17   48 1   
    47   18   20 1   
    48   18   23 1   
    49   18   49 1   
    50   18   50 1   
    51   19   42 1   
    52   20   46 1   
    53   22   31 1   
    54   23   52 1   
    55   24   36 1   
@<TRIPOS>SUBSTRUCTURE
     1 Q31         1 TEMP              0 ****  ****    0 ROOT
