@<TRIPOS>MOLECULE
Q3B
   65    70     1     0     0
SMALL
bcc


@<TRIPOS>ATOM
      1 C1          0.2470   -1.9610    0.7430 c3        1 Q3B      0.113700
      2 O2          1.5040   -2.2120    1.3570 os        1 Q3B     -0.325900
      3 C3          1.9810   -1.2220    2.1960 ca        1 Q3B      0.107100
      4 C4          3.2440   -1.4780    2.7600 ca        1 Q3B     -0.160000
      5 C5          3.8150   -0.5570    3.6250 ca        1 Q3B     -0.119000
      6 C6          3.1400    0.6430    3.9410 ca        1 Q3B      0.019600
      7 C7          1.8780    0.8880    3.3580 ca        1 Q3B     -0.119000
      8 C8          1.2990   -0.0400    2.4970 ca        1 Q3B     -0.160000
      9 N9          3.6560    1.5660    4.8790 ns        1 Q3B     -0.452100
     10 C10         5.0350    1.8810    4.9370 c         1 Q3B      0.761100
     11 O11         5.8960    1.1740    4.3720 o         1 Q3B     -0.600100
     12 N12         5.3890    3.0290    5.6830 ns        1 Q3B     -0.464100
     13 C13         6.7230    3.3430    6.0120 ca        1 Q3B      0.063600
     14 C14         6.9900    3.9780    7.2490 ca        1 Q3B     -0.175000
     15 C15         8.2810    4.3800    7.5640 ca        1 Q3B     -0.100000
     16 C16         9.3380    4.1460    6.6840 ca        1 Q3B     -0.157000
     17 C17         9.0870    3.5030    5.4630 ca        1 Q3B     -0.088500
     18 C18         7.7890    3.1110    5.1180 ca        1 Q3B     -0.100000
     19 C19        10.1830    3.2410    4.5410 cc        1 Q3B      0.376800
     20 C20        11.3550    2.4740    4.8140 cd        1 Q3B     -0.235500
     21 N21        12.1210    2.5190    3.6360 na        1 Q3B     -0.172900
     22 C22        11.3870    3.2760    2.7130 cd        1 Q3B      0.423400
     23 N23        10.2210    3.7190    3.2300 nc        1 Q3B     -0.653000
     24 C24        13.4220    1.9750    3.3770 c3        1 Q3B      0.024300
     25 C25        13.4480    0.9080    2.2640 c3        1 Q3B      0.123100
     26 C26        14.8120    0.2170    2.1950 c3        1 Q3B     -0.101400
     27 C27        15.3190    0.4380    0.7760 c3        1 Q3B     -0.108400
     28 C28        14.2920    1.3430    0.1050 c3        1 Q3B      0.126400
     29 O29        13.2040    1.5590    1.0090 os        1 Q3B     -0.431600
     30 C30        11.6660    1.7520    6.0200 cd        1 Q3B      0.407800
     31 N31        12.4180    0.6540    6.0990 nc        1 Q3B     -0.528100
     32 C32        12.4750    0.2340    7.4210 ca        1 Q3B     -0.209200
     33 C33        13.1780   -0.9180    7.9500 ca        1 Q3B      0.745200
     34 N34        13.1070   -1.1880    9.2910 nb        1 Q3B     -0.782000
     35 C35        12.3800   -0.3310   10.0600 ca        1 Q3B      0.679900
     36 N36        11.6880    0.7670    9.6870 nb        1 Q3B     -0.699000
     37 C37        11.7380    1.0450    8.3600 ca        1 Q3B      0.411600
     38 S38        10.9890    2.3080    7.5250 ss        1 Q3B      0.001500
     39 N39        13.9430   -1.7030    7.1190 nv        1 Q3B     -0.945500
     40 H11C       -0.5560   -1.8640    1.5140 h1        1 Q3B      0.043700
     41 H12C        0.0790   -2.8690    0.1100 h1        1 Q3B      0.043700
     42 H13C        0.2920   -1.0420    0.1090 h1        1 Q3B      0.043700
     43 H4          3.7690   -2.4110    2.5080 ha        1 Q3B      0.145500
     44 H8          0.3130    0.1740    2.0620 ha        1 Q3B      0.145500
     45 H5          4.8110   -0.7620    4.0520 ha        1 Q3B      0.150000
     46 H7          1.3280    1.8150    3.5800 ha        1 Q3B      0.150000
     47 H9          3.0150    2.2920    5.1230 hn        1 Q3B      0.302500
     48 H12         4.7150    3.3880    6.3250 hn        1 Q3B      0.307500
     49 H14         6.1780    4.1690    7.9670 ha        1 Q3B      0.130000
     50 H18         7.6130    2.6140    4.1490 ha        1 Q3B      0.182000
     51 H15         8.4730    4.8880    8.5220 ha        1 Q3B      0.137000
     52 H16        10.3430    4.5380    6.9130 ha        1 Q3B      0.146000
     53 H22        11.7490    3.4410    1.6890 h5        1 Q3B      0.082100
     54 H241       13.8410    1.5200    4.3160 h1        1 Q3B      0.077700
     55 H242       14.0950    2.8260    3.0610 h1        1 Q3B      0.077700
     56 H25        12.6150    0.1660    2.4010 h1        1 Q3B      0.080700
     57 H261       14.7040   -0.8720    2.4190 hc        1 Q3B      0.057700
     58 H262       15.5230    0.6480    2.9430 hc        1 Q3B      0.057700
     59 H271       16.3280    0.9170    0.7790 hc        1 Q3B      0.056200
     60 H272       15.4060   -0.5320    0.2290 hc        1 Q3B      0.056200
     61 H281       14.7150    2.3500   -0.1440 h1        1 Q3B      0.049700
     62 H282       13.8540    0.8800   -0.8160 h1        1 Q3B      0.049700
     63 H391       14.3070   -2.5600    7.4620 hn        1 Q3B      0.439800
     64 H392       13.8150   -1.6070    6.1420 hn        1 Q3B      0.439800
     65 H35        12.3550   -0.5820   11.1420 h5        1 Q3B      0.053100
@<TRIPOS>BOND
     1    1    2 1   
     2    1   40 1   
     3    1   41 1   
     4    1   42 1   
     5    2    3 1   
     6    3    4 ar  
     7    3    8 ar  
     8    4    5 ar  
     9    4   43 1   
    10    5    6 ar  
    11    5   45 1   
    12    6    7 ar  
    13    6    9 1   
    14    7    8 ar  
    15    7   46 1   
    16    8   44 1   
    17    9   10 1   
    18    9   47 1   
    19   10   11 2   
    20   10   12 1   
    21   12   13 1   
    22   12   48 1   
    23   13   14 ar  
    24   13   18 ar  
    25   14   15 ar  
    26   14   49 1   
    27   15   16 ar  
    28   15   51 1   
    29   16   17 ar  
    30   16   52 1   
    31   17   18 ar  
    32   17   19 1   
    33   18   50 1   
    34   19   20 2   
    35   19   23 1   
    36   20   21 1   
    37   20   30 1   
    38   21   22 1   
    39   21   24 1   
    40   22   23 2   
    41   22   53 1   
    42   24   25 1   
    43   24   54 1   
    44   24   55 1   
    45   25   26 1   
    46   25   29 1   
    47   25   56 1   
    48   26   27 1   
    49   26   57 1   
    50   26   58 1   
    51   27   28 1   
    52   27   59 1   
    53   27   60 1   
    54   28   29 1   
    55   28   61 1   
    56   28   62 1   
    57   30   31 2   
    58   30   38 1   
    59   31   32 1   
    60   32   33 ar  
    61   32   37 ar  
    62   33   34 ar  
    63   33   39 1   
    64   34   35 ar  
    65   35   36 ar  
    66   35   65 1   
    67   36   37 ar  
    68   37   38 1   
    69   39   63 1   
    70   39   64 1   
@<TRIPOS>SUBSTRUCTURE
     1 Q3B         1 TEMP              0 ****  ****    0 ROOT
