@<TRIPOS>MOLECULE
Q3B
   65    70     1     0     0
SMALL
bcc


@<TRIPOS>ATOM
      1 C1          0.2290   -1.9450    0.7740 c3        1 Q3B      0.113700
      2 O2          1.4890   -2.2000    1.3830 os        1 Q3B     -0.325900
      3 C3          1.9700   -1.2100    2.2210 ca        1 Q3B      0.107100
      4 C4          3.2340   -1.4680    2.7800 ca        1 Q3B     -0.160000
      5 C5          3.8100   -0.5490    3.6440 ca        1 Q3B     -0.119000
      6 C6          3.1380    0.6520    3.9640 ca        1 Q3B      0.019600
      7 C7          1.8750    0.8990    3.3850 ca        1 Q3B     -0.119000
      8 C8          1.2910   -0.0270    2.5260 ca        1 Q3B     -0.160000
      9 N9          3.6590    1.5740    4.9000 n         1 Q3B     -0.452100
     10 C10         5.0390    1.8860    4.9530 c         1 Q3B      0.761100
     11 O11         5.8970    1.1780    4.3850 o         1 Q3B     -0.600100
     12 N12         5.3970    3.0340    5.6990 n         1 Q3B     -0.464100
     13 C13         6.7330    3.3450    6.0220 ca        1 Q3B      0.063600
     14 C14         7.0050    3.9790    7.2590 ca        1 Q3B     -0.175000
     15 C15         8.2990    4.3780    7.5690 ca        1 Q3B     -0.100000
     16 C16         9.3510    4.1430    6.6840 ca        1 Q3B     -0.157000
     17 C17         9.0950    3.5020    5.4640 ca        1 Q3B     -0.088500
     18 C18         7.7950    3.1120    5.1240 ca        1 Q3B     -0.100000
     19 C19        10.1870    3.2390    4.5380 cc        1 Q3B      0.376800
     20 C20        11.3580    2.4710    4.8050 cd        1 Q3B     -0.235500
     21 N21        12.1200    2.5150    3.6250 na        1 Q3B     -0.172900
     22 C22        11.3840    3.2730    2.7060 cd        1 Q3B      0.423400
     23 N23        10.2210    3.7180    3.2270 nc        1 Q3B     -0.653000
     24 C24        13.4190    1.9690    3.3610 c3        1 Q3B      0.024300
     25 C25        13.4390    0.9030    2.2470 c3        1 Q3B      0.123100
     26 C26        14.8020    0.2100    2.1710 c3        1 Q3B     -0.101400
     27 C27        15.3030    0.4310    0.7510 c3        1 Q3B     -0.108400
     28 C28        14.2750    1.3370    0.0840 c3        1 Q3B      0.126400
     29 O29        13.1910    1.5550    0.9930 os        1 Q3B     -0.431600
     30 C30        11.6730    1.7470    6.0100 cd        1 Q3B      0.407800
     31 N31        12.4240    0.6480    6.0860 nc        1 Q3B     -0.528100
     32 C32        12.4860    0.2270    7.4070 ca        1 Q3B     -0.209200
     33 C33        13.1890   -0.9260    7.9320 ca        1 Q3B      0.745200
     34 N34        13.1230   -1.1970    9.2740 nb        1 Q3B     -0.782000
     35 C35        12.4000   -0.3400   10.0460 ca        1 Q3B      0.679900
     36 N36        11.7090    0.7600    9.6760 nb        1 Q3B     -0.699000
     37 C37        11.7530    1.0380    8.3500 ca        1 Q3B      0.411600
     38 S38        11.0030    2.3030    7.5180 ss        1 Q3B      0.001500
     39 N39        13.9500   -1.7120    7.0980 nh        1 Q3B     -0.945500
     40 H11C       -0.5710   -1.8490    1.5480 h1        1 Q3B      0.043700
     41 H12C        0.0580   -2.8530    0.1420 h1        1 Q3B      0.043700
     42 H13C        0.2740   -1.0260    0.1410 h1        1 Q3B      0.043700
     43 H4          3.7570   -2.4020    2.5260 ha        1 Q3B      0.145500
     44 H8          0.3040    0.1880    2.0940 ha        1 Q3B      0.145500
     45 H5          4.8080   -0.7560    4.0680 ha        1 Q3B      0.150000
     46 H7          1.3260    1.8270    3.6090 ha        1 Q3B      0.150000
     47 H9          3.0200    2.3000    5.1470 hn        1 Q3B      0.302500
     48 H12         4.7260    3.3920    6.3430 hn        1 Q3B      0.307500
     49 H14         6.1970    4.1700    7.9810 ha        1 Q3B      0.130000
     50 H18         7.6140    2.6160    4.1550 ha        1 Q3B      0.182000
     51 H15         8.4950    4.8860    8.5260 ha        1 Q3B      0.137000
     52 H16        10.3580    4.5340    6.9110 ha        1 Q3B      0.146000
     53 H22        11.7420    3.4380    1.6800 h5        1 Q3B      0.082100
     54 H241       13.8420    1.5130    4.2970 h1        1 Q3B      0.077700
     55 H242       14.0920    2.8190    3.0420 h1        1 Q3B      0.077700
     56 H25        12.6060    0.1610    2.3870 h1        1 Q3B      0.080700
     57 H261       15.5170    0.6400    2.9170 hc        1 Q3B      0.057700
     58 H262       14.6930   -0.8790    2.3960 hc        1 Q3B      0.057700
     59 H271       15.3870   -0.5400    0.2020 hc        1 Q3B      0.056200
     60 H272       16.3140    0.9080    0.7500 hc        1 Q3B      0.056200
     61 H281       13.8320    0.8760   -0.8350 h1        1 Q3B      0.049700
     62 H282       14.6990    2.3440   -0.1670 h1        1 Q3B      0.049700
     63 H391       13.8180   -1.6150    6.1210 hn        1 Q3B      0.439800
     64 H392       14.3140   -2.5690    7.4390 hn        1 Q3B      0.439800
     65 H35        12.3790   -0.5910   11.1280 h5        1 Q3B      0.053100
@<TRIPOS>BOND
     1    1    2 1   
     2    1   40 1   
     3    1   41 1   
     4    1   42 1   
     5    2    3 1   
     6    3    4 ar  
     7    3    8 ar  
     8    4    5 ar  
     9    4   43 1   
    10    5    6 ar  
    11    5   45 1   
    12    6    7 ar  
    13    6    9 1   
    14    7    8 ar  
    15    7   46 1   
    16    8   44 1   
    17    9   10 1   
    18    9   47 1   
    19   10   11 2   
    20   10   12 1   
    21   12   13 1   
    22   12   48 1   
    23   13   14 ar  
    24   13   18 ar  
    25   14   15 ar  
    26   14   49 1   
    27   15   16 ar  
    28   15   51 1   
    29   16   17 ar  
    30   16   52 1   
    31   17   18 ar  
    32   17   19 1   
    33   18   50 1   
    34   19   20 2   
    35   19   23 1   
    36   20   21 1   
    37   20   30 1   
    38   21   22 1   
    39   21   24 1   
    40   22   23 2   
    41   22   53 1   
    42   24   25 1   
    43   24   54 1   
    44   24   55 1   
    45   25   26 1   
    46   25   29 1   
    47   25   56 1   
    48   26   27 1   
    49   26   57 1   
    50   26   58 1   
    51   27   28 1   
    52   27   59 1   
    53   27   60 1   
    54   28   29 1   
    55   28   61 1   
    56   28   62 1   
    57   30   31 2   
    58   30   38 1   
    59   31   32 1   
    60   32   33 ar  
    61   32   37 ar  
    62   33   34 ar  
    63   33   39 1   
    64   34   35 ar  
    65   35   36 ar  
    66   35   65 1   
    67   36   37 ar  
    68   37   38 1   
    69   39   63 1   
    70   39   64 1   
@<TRIPOS>SUBSTRUCTURE
     1 Q3B         1 TEMP              0 ****  ****    0 ROOT
