@<TRIPOS>MOLECULE
Q3C
   19    20     1     0     0
SMALL
bcc


@<TRIPOS>ATOM
      1 O13        -0.0650    0.0570    0.0510 o         1 Q3C     -0.824300
      2 C11         1.1970    0.0320    0.0740 c         1 Q3C      0.913200
      3 O12         1.8970    0.0230    1.1250 o         1 Q3C     -0.824300
      4 C7          1.9290    0.0130   -1.2580 ca        1 Q3C     -0.232900
      5 C3          1.2700    0.0210   -2.4620 ca        1 Q3C     -0.088000
      6 C9          3.3640   -0.0150   -1.2770 ca        1 Q3C      0.443200
      7 N5          4.1040   -0.0340   -2.3730 nb        1 Q3C     -0.710000
      8 C2          3.4450   -0.0260   -3.5900 ca        1 Q3C      0.383600
      9 C6          4.1950   -0.0460   -4.8090 ca        1 Q3C     -0.171300
     10 C10         3.5550   -0.0380   -6.0230 ca        1 Q3C     -0.151000
     11 C8          2.1430   -0.0110   -6.0980 ca        1 Q3C     -0.160000
     12 C4          1.3930    0.0080   -4.9470 ca        1 Q3C     -0.105000
     13 C1          2.0180    0.0010   -3.6760 ca        1 Q3C     -0.153300
     14 H2          0.1690    0.0420   -2.4870 ha        1 Q3C      0.155000
     15 H3          3.8900   -0.0210   -0.3010 h4        1 Q3C      0.044100
     16 H4          5.2940   -0.0670   -4.7560 ha        1 Q3C      0.131000
     17 H5          4.1360   -0.0530   -6.9560 ha        1 Q3C      0.112000
     18 H6          1.6590   -0.0060   -7.0840 ha        1 Q3C      0.113000
     19 H7          0.2930    0.0290   -4.9900 ha        1 Q3C      0.125000
@<TRIPOS>BOND
     1    1    2 1   
     2    2    3 1   
     3    2    4 1   
     4    4    5 ar  
     5    4    6 ar  
     6    5   13 ar  
     7    5   14 1   
     8    6    7 ar  
     9    6   15 1   
    10    7    8 ar  
    11    8    9 ar  
    12    8   13 ar  
    13    9   10 ar  
    14    9   16 1   
    15   10   11 ar  
    16   10   17 1   
    17   11   12 ar  
    18   11   18 1   
    19   12   13 ar  
    20   12   19 1   
@<TRIPOS>SUBSTRUCTURE
     1 Q3C         1 TEMP              0 ****  ****    0 ROOT
