@<TRIPOS>MOLECULE
Q3C
   19    20     1     0     0
SMALL
bcc


@<TRIPOS>ATOM
      1 O13         3.2130   -1.5030    0.0010 o         1 Q3C     -0.824300
      2 C11         2.8720   -0.2880    0.0010 c         1 Q3C      0.913200
      3 O12         3.6760    0.6860    0.0020 o         1 Q3C     -0.824300
      4 C7          1.3850    0.0300    0.0010 ca        1 Q3C     -0.232900
      5 C3          0.4220   -0.9490    0.0000 ca        1 Q3C     -0.088000
      6 C9          0.9540    1.3980    0.0010 ca        1 Q3C      0.443200
      7 N5         -0.3090    1.7910    0.0010 nb        1 Q3C     -0.710000
      8 C2         -1.2850    0.8100    0.0000 ca        1 Q3C      0.383600
      9 C6         -2.6690    1.1770   -0.0000 ca        1 Q3C     -0.171300
     10 C10        -3.6470    0.2140   -0.0010 ca        1 Q3C     -0.151000
     11 C8         -3.3110   -1.1590   -0.0010 ca        1 Q3C     -0.160000
     12 C4         -1.9930   -1.5470   -0.0010 ca        1 Q3C     -0.105000
     13 C1         -0.9560   -0.5820   -0.0000 ca        1 Q3C     -0.153300
     14 H2          0.7160   -2.0100   -0.0000 ha        1 Q3C      0.155000
     15 H3          1.7360    2.1840    0.0020 h4        1 Q3C      0.044100
     16 H4         -2.9350    2.2450    0.0000 ha        1 Q3C      0.131000
     17 H5         -4.7080    0.5010   -0.0010 ha        1 Q3C      0.112000
     18 H6         -4.1170   -1.9070   -0.0020 ha        1 Q3C      0.113000
     19 H7         -1.7170   -2.6120   -0.0010 ha        1 Q3C      0.125000
@<TRIPOS>BOND
     1    1    2 1   
     2    2    3 1   
     3    2    4 1   
     4    4    5 ar  
     5    4    6 ar  
     6    5   13 ar  
     7    5   14 1   
     8    6    7 ar  
     9    6   15 1   
    10    7    8 ar  
    11    8    9 ar  
    12    8   13 ar  
    13    9   10 ar  
    14    9   16 1   
    15   10   11 ar  
    16   10   17 1   
    17   11   12 ar  
    18   11   18 1   
    19   12   13 ar  
    20   12   19 1   
@<TRIPOS>SUBSTRUCTURE
     1 Q3C         1 TEMP              0 ****  ****    0 ROOT
