@<TRIPOS>MOLECULE
Q42
   26    27     1     0     0
SMALL
bcc


@<TRIPOS>ATOM
      1 NBC         0.0270    0.2400   -0.1420 n3        1 Q42     -0.783200
      2 CBB         1.4690    0.0240   -0.0240 c3        1 Q42      0.156500
      3 CAP         2.1150   -0.0480    1.3520 c3        1 Q42     -0.076400
      4 CAM         3.6210   -0.1540    1.1650 c3        1 Q42     -0.070400
      5 CAL         4.0410   -1.2940    0.2540 c3        1 Q42     -0.073400
      6 CAO         3.2930   -1.3120   -1.0720 c3        1 Q42     -0.059400
      7 CAZ         1.8130   -1.2850   -0.7900 c3        1 Q42     -0.106700
      8 CAR         0.8200   -1.2560   -1.9420 c3        1 Q42     -0.067400
      9 CBA        -0.3980   -0.4880   -1.3560 c3        1 Q42      0.023500
     10 CAU        -1.5720   -1.4900   -1.1350 c         1 Q42      0.906600
     11 OAF        -1.8820   -1.8110    0.0480 o         1 Q42     -0.840800
     12 OAC        -2.1420   -1.9340   -2.1690 o         1 Q42     -0.840800
     13 HBB         1.9450    0.8910   -0.5760 h1        1 Q42      0.034700
     14 HBA        -0.7430    0.2840   -2.0950 h1        1 Q42      0.050700
     15 HAP1        1.8730    0.8680    1.9490 hc        1 Q42      0.040700
     16 HAP2        1.7300   -0.9350    1.9170 hc        1 Q42      0.040700
     17 HAZ         1.5620   -2.1680   -0.1370 hc        1 Q42      0.057700
     18 HAM1        4.0010    0.8120    0.7370 hc        1 Q42      0.024200
     19 HAM2        4.1080   -0.2900    2.1660 hc        1 Q42      0.024200
     20 HAL1        5.1430   -1.2190    0.0590 hc        1 Q42      0.025200
     21 HAL2        3.8590   -2.2670    0.7830 hc        1 Q42      0.025200
     22 HAO1        3.5900   -0.4280   -1.6940 hc        1 Q42      0.030200
     23 HAO2        3.5680   -2.2350   -1.6450 hc        1 Q42      0.030200
     24 HAR1        1.2420   -0.7140   -2.8220 hc        1 Q42      0.039200
     25 HAR2        0.5140   -2.2780   -2.2680 hc        1 Q42      0.039200
     26 H2         -0.4540   -0.1580    0.6510 hn        1 Q42      0.369800
@<TRIPOS>BOND
     1    1    2 1   
     2    1    9 1   
     3    1   26 1   
     4    2    3 1   
     5    2    7 1   
     6    2   13 1   
     7    3    4 1   
     8    3   15 1   
     9    3   16 1   
    10    4    5 1   
    11    4   18 1   
    12    4   19 1   
    13    5    6 1   
    14    5   20 1   
    15    5   21 1   
    16    6    7 1   
    17    6   22 1   
    18    6   23 1   
    19    7    8 1   
    20    7   17 1   
    21    8    9 1   
    22    8   24 1   
    23    8   25 1   
    24    9   10 1   
    25    9   14 1   
    26   10   11 1   
    27   10   12 1   
@<TRIPOS>SUBSTRUCTURE
     1 Q42         1 TEMP              0 ****  ****    0 ROOT
