@<TRIPOS>MOLECULE
Q42
   26    27     1     0     0
SMALL
bcc


@<TRIPOS>ATOM
      1 NBC         0.0080    0.1010   -0.2670 n7        1 Q42     -0.772200
      2 CBB         1.4620    0.0320   -0.1230 c3        1 Q42      0.158500
      3 CAP         2.0630    0.2480    1.2590 c3        1 Q42     -0.065400
      4 CAM         3.5750    0.1240    1.1390 c3        1 Q42     -0.072400
      5 CAL         4.0290   -1.1690    0.4850 c3        1 Q42     -0.072400
      6 CAO         3.3210   -1.4620   -0.8310 c3        1 Q42     -0.064400
      7 CAZ         1.8320   -1.4000   -0.6010 c3        1 Q42     -0.074700
      8 CAR         0.8730   -1.6300   -1.7630 c3        1 Q42     -0.074400
      9 CBA        -0.2960   -0.6460   -1.5060 c3        1 Q42      0.043500
     10 CAU        -1.6920   -1.3420   -1.4410 c         1 Q42      0.934600
     11 OAF        -1.7400   -2.6020   -1.4060 o         1 Q42     -0.839800
     12 OAC        -2.6990   -0.5830   -1.4870 o         1 Q42     -0.839800
     13 HBB         1.9700    0.7770   -0.8160 h1        1 Q42     -0.008300
     14 HBA        -0.3500    0.0650   -2.3830 h1        1 Q42      0.002700
     15 HAP1        1.7980    1.2620    1.6530 hc        1 Q42      0.040700
     16 HAP2        1.6640   -0.5110    1.9780 hc        1 Q42      0.040700
     17 HAZ         1.5710   -2.1330    0.2130 hc        1 Q42      0.062700
     18 HAM1        3.9630    0.9900    0.5400 hc        1 Q42      0.022700
     19 HAM2        4.0320    0.1950    2.1610 hc        1 Q42      0.022700
     20 HAL1        5.1350   -1.1210    0.3100 hc        1 Q42      0.025200
     21 HAL2        3.8380   -2.0190    1.1930 hc        1 Q42      0.025200
     22 HAO1        3.6320   -0.7180   -1.6090 hc        1 Q42      0.030200
     23 HAO2        3.6170   -2.4780   -1.1980 hc        1 Q42      0.030200
     24 HAR1        0.4830   -2.6780   -1.7760 hc        1 Q42      0.048700
     25 HAR2        1.3630   -1.4130   -2.7420 hc        1 Q42      0.048700
     26 H2         -0.3090    1.0470   -0.3420 hn        1 Q42      0.345800
@<TRIPOS>BOND
     1    1    2 1   
     2    1    9 1   
     3    1   26 1   
     4    2    3 1   
     5    2    7 1   
     6    2   13 1   
     7    3    4 1   
     8    3   15 1   
     9    3   16 1   
    10    4    5 1   
    11    4   18 1   
    12    4   19 1   
    13    5    6 1   
    14    5   20 1   
    15    5   21 1   
    16    6    7 1   
    17    6   22 1   
    18    6   23 1   
    19    7    8 1   
    20    7   17 1   
    21    8    9 1   
    22    8   24 1   
    23    8   25 1   
    24    9   10 1   
    25    9   14 1   
    26   10   11 1   
    27   10   12 1   
@<TRIPOS>SUBSTRUCTURE
     1 Q42         1 TEMP              0 ****  ****    0 ROOT
