@<TRIPOS>MOLECULE
Q4A
   74    71     1     0     0
SMALL
bcc


@<TRIPOS>ATOM
      1 C2         -2.6800    0.6320   -0.1160 c1        1 Q4A      0.207000
      2 C5         -1.3590    0.3670    2.2710 c1        1 Q4A     -0.219000
      3 C4         -2.7020    0.5640    2.2660 c1        1 Q4A      0.115000
      4 CAO        -4.4580   -0.0110   -1.5730 c3        1 Q4A     -0.021000
      5 CAP        -4.5990   -0.2630   -3.0590 c3        1 Q4A     -0.176000
      6 CAQ        -5.2430    0.9180   -3.7450 c3        1 Q4A     -0.064000
      7 NAR        -4.5300    2.1290   -3.4540 n3        1 Q4A     -0.269000
      8 CAU        -4.7120    3.1010   -4.5780 c3        1 Q4A     -0.116000
      9 CAS        -4.9820    2.6960   -2.2760 c3        1 Q4A     -0.092000
     10 CAT        -4.0660    2.3240   -1.1000 c3        1 Q4A     -0.016000
     11 NAN        -3.4480    1.0050   -1.3120 n2        1 Q4A     -0.247000
     12 N1         -1.3190    0.4330   -0.1140 n2        1 Q4A     -0.302000
     13 N3         -3.3700    0.6970    1.0720 n1        1 Q4A     -0.268000
     14 CAC        -3.4150    0.6300    3.5010 c1        1 Q4A     -0.218000
     15 CAD        -2.7320    0.4930    4.7050 c1        1 Q4A      0.100000
     16 OAL        -3.3940    0.6560    5.9330 os        1 Q4A     -0.204000
     17 CBI        -4.1890   -0.4130    6.2830 c3        1 Q4A     -0.080000
     18 CAE        -1.3520    0.2920    4.7050 c1        1 Q4A      0.000000
     19 OAK        -0.7760    0.4940    5.9600 o         1 Q4A     -0.213000
     20 CBJ        -0.1350   -0.6730    6.5070 c3        1 Q4A     -0.075000
     21 CAF        -0.6610    0.2280    3.5040 c2        1 Q4A     -0.067000
     22 C6         -0.6560    0.3010    1.0580 c1        1 Q4A      0.212000
     23 NAM         0.7980    0.3680    1.0020 n3        1 Q4A     -0.284000
     24 CAV         1.5410   -0.4570    0.0210 c3        1 Q4A      0.014000
     25 CBA         2.2970    0.4590   -0.9080 c3        1 Q4A     -0.174000
     26 CAZ         3.2490   -0.3110   -1.8510 c3        1 Q4A     -0.067000
     27 CAW         2.4390   -1.3810    0.7520 c3        1 Q4A     -0.174000
     28 CAX         3.3930   -2.1480   -0.1970 c3        1 Q4A     -0.067000
     29 NAY         4.1390   -1.2350   -1.1210 n3        1 Q4A     -0.256000
     30 CBB         4.9250   -2.0410   -2.0960 c3        1 Q4A     -0.029000
     31 CBC         6.4190   -1.7070   -1.9570 c2        1 Q4A     -0.082000
     32 CBD         7.3300   -2.7140   -1.7230 c2        1 Q4A     -0.128000
     33 CBE         8.6950   -2.4480   -1.7800 c1        1 Q4A     -0.132000
     34 CBF         9.1410   -1.1680   -2.0730 c1        1 Q4A     -0.131000
     35 CBG         8.2300   -0.1540   -2.3090 c1        1 Q4A     -0.131000
     36 CBH         6.8690   -0.4170   -2.2530 c1        1 Q4A     -0.108000
     37 HAO        -4.2010   -0.8260   -1.1410 h1        1 Q4A      0.096000
     38 HAOA       -5.3230    0.2880   -1.2090 h1        1 Q4A      0.096000
     39 HAP        -5.1660   -1.0720   -3.2020 hc        1 Q4A      0.096000
     40 HAPA       -3.6910   -0.4220   -3.4550 hc        1 Q4A      0.096000
     41 HAQ        -6.1870    1.0080   -3.4270 h1        1 Q4A      0.071500
     42 HAQA       -5.2410    0.7630   -4.7320 h1        1 Q4A      0.071500
     43 HAU        -4.2530    2.7630   -5.3840 h1        1 Q4A      0.070000
     44 HAUA       -4.3270    3.9740   -4.3240 h1        1 Q4A      0.070000
     45 HAUB       -5.6870    3.2090   -4.7680 h1        1 Q4A      0.070000
     46 HAS        -4.9980    3.6800   -2.3740 h1        1 Q4A      0.080000
     47 HASA       -5.8720    2.3820   -2.0940 h1        1 Q4A      0.080000
     48 HAT        -4.5990    2.3020   -0.2660 h1        1 Q4A      0.107500
     49 HATA       -3.3350    3.0250   -1.0110 h1        1 Q4A      0.107500
     50 HAC        -4.3930    0.8480    3.5050 ha        1 Q4A      0.158000
     51 HBI        -5.0090   -0.4360    5.6790 h1        1 Q4A      0.088000
     52 HBIA       -3.6880   -1.2350    6.1810 h1        1 Q4A      0.088000
     53 HBIB       -4.4860   -0.3130    7.2590 h1        1 Q4A      0.088000
     54 HBJ         0.6050   -0.9600    5.9030 h1        1 Q4A      0.082333
     55 HBJA        0.2270   -0.4620    7.3810 h1        1 Q4A      0.082333
     56 HBJB       -0.8200   -1.4320    6.5940 h1        1 Q4A      0.082333
     57 HAF         0.2780    0.0890    3.5030 ha        1 Q4A      0.143000
     58 HNAM        1.2610    0.9740    1.5480 hn        1 Q4A      0.214000
     59 HAV         0.8900   -0.9930   -0.5110 h1        1 Q4A      0.122000
     60 HBA         2.8050    1.0690   -0.3900 hc        1 Q4A      0.095250
     61 HBAA        1.6490    0.9640   -1.4550 hc        1 Q4A      0.095250
     62 HAZ         2.7050   -0.8300   -2.5040 h1        1 Q4A      0.075500
     63 HAZA        3.8260    0.3630   -2.3620 h1        1 Q4A      0.075500
     64 HAW         1.8960   -2.0240    1.2380 hc        1 Q4A      0.095250
     65 HAWA        2.9760   -0.8640    1.3960 hc        1 Q4A      0.095250
     66 HAX         4.0250   -2.6360    0.3310 h1        1 Q4A      0.075500
     67 HAXA        2.8390   -2.8170   -0.7610 h1        1 Q4A      0.075500
     68 HBB         4.6300   -1.8290   -3.0060 h1        1 Q4A      0.078500
     69 HBBA        4.7770   -3.0390   -1.9120 h1        1 Q4A      0.078500
     70 HBD         7.0160   -3.6210   -1.5150 ha        1 Q4A      0.130000
     71 HBE         9.3740   -3.2020   -1.6040 ha        1 Q4A      0.131000
     72 HBF        10.0780   -0.9860   -2.1130 ha        1 Q4A      0.131500
     73 HBG         8.5370    0.7250   -2.5100 ha        1 Q4A      0.131500
     74 HBH         6.1960    0.3310   -2.4300 ha        1 Q4A      0.146000
@<TRIPOS>BOND
     1    1   12 1   
     2    1   13 1   
     3    2    3 1   
     4    2   21 1   
     5    3   14 1   
     6    4    5 1   
     7    4   11 1   
     8    4   37 1   
     9    4   38 1   
    10    5    6 1   
    11    5   39 1   
    12    5   40 1   
    13    6    7 1   
    14    6   41 1   
    15    6   42 1   
    16    7    8 1   
    17    7    9 1   
    18    8   43 1   
    19    8   44 1   
    20    8   45 1   
    21    9   10 1   
    22    9   46 1   
    23    9   47 1   
    24   10   11 1   
    25   10   48 1   
    26   10   49 1   
    27   12   22 1   
    28   14   50 1   
    29   15   16 1   
    30   15   18 1   
    31   16   17 1   
    32   17   51 1   
    33   17   52 1   
    34   17   53 1   
    35   18   21 1   
    36   19   20 1   
    37   20   54 1   
    38   20   55 1   
    39   20   56 1   
    40   21   57 1   
    41   22   23 1   
    42   23   24 1   
    43   23   58 1   
    44   24   25 1   
    45   24   27 1   
    46   24   59 1   
    47   25   26 1   
    48   25   60 1   
    49   25   61 1   
    50   26   29 1   
    51   26   62 1   
    52   26   63 1   
    53   27   28 1   
    54   27   64 1   
    55   27   65 1   
    56   28   29 1   
    57   28   66 1   
    58   28   67 1   
    59   29   30 1   
    60   30   31 1   
    61   30   68 1   
    62   30   69 1   
    63   31   32 1   
    64   31   36 1   
    65   32   33 1   
    66   32   70 1   
    67   33   71 1   
    68   34   35 1   
    69   34   72 1   
    70   35   73 1   
    71   36   74 1   
@<TRIPOS>SUBSTRUCTURE
     1 Q4A         1 TEMP              0 ****  ****    0 ROOT
