@<TRIPOS>MOLECULE
Q4A
   74    78     1     0     0
SMALL
bcc


@<TRIPOS>ATOM
      1 C2          0.0790    0.6560   -0.0220 ca        1 Q4A      0.913900
      2 C5          1.3240    0.2180    2.4100 ca        1 Q4A     -0.322600
      3 C4         -0.0910    0.3450    2.2860 ca        1 Q4A      0.490600
      4 CAO        -1.9340    1.2400   -1.3210 c3        1 Q4A      0.216800
      5 CAP        -2.8260    0.0080   -1.4200 c3        1 Q4A     -0.105400
      6 CAQ        -2.9150   -0.5490   -2.8360 c3        1 Q4A      0.174800
      7 NAR        -1.6330   -0.9340   -3.4060 n3        1 Q4A     -0.743600
      8 CAU        -1.7790   -1.8150   -4.5430 c3        1 Q4A      0.163100
      9 CAS        -0.7480    0.1880   -3.6670 c3        1 Q4A      0.158800
     10 CAT         0.1550    0.5510   -2.4700 c3        1 Q4A      0.215800
     11 NAN        -0.5080    1.0100   -1.2650 nh        1 Q4A     -0.740300
     12 N1          1.4740    0.4990   -0.0200 nb        1 Q4A     -0.808000
     13 N3         -0.7160    0.5520    1.0830 nb        1 Q4A     -0.788000
     14 CAC        -0.8980    0.2470    3.4680 ca        1 Q4A     -0.271300
     15 CAD        -0.3100    0.0530    4.6960 ca        1 Q4A      0.151100
     16 OAL        -0.9880   -0.0560    5.8900 os        1 Q4A     -0.301900
     17 CBI        -2.4070    0.0430    5.8140 c3        1 Q4A      0.107700
     18 CAE         1.1200   -0.0470    4.8110 ca        1 Q4A      0.082100
     19 OAK         1.5770   -0.2310    6.1020 os        1 Q4A     -0.302900
     20 CBJ         2.9900   -0.2380    6.2670 c3        1 Q4A      0.109700
     21 CAF         1.9090    0.0370    3.6860 ca        1 Q4A     -0.143000
     22 C6          2.0830    0.2980    1.1640 ca        1 Q4A      0.717200
     23 NAM         3.4800    0.2270    1.2260 nh        1 Q4A     -0.834900
     24 CAV         4.2950    0.1490    0.0250 c3        1 Q4A      0.205500
     25 CBA         5.7660    0.4610    0.3530 c3        1 Q4A     -0.094900
     26 CAZ         6.6010    0.4480   -0.9240 c3        1 Q4A      0.169300
     27 CAW         4.2440   -1.2090   -0.6910 c3        1 Q4A     -0.094900
     28 CAX         5.1250   -1.1850   -1.9360 c3        1 Q4A      0.169300
     29 NAY         6.5040   -0.8070   -1.6590 n3        1 Q4A     -0.731600
     30 CBB         7.3340   -0.7880   -2.8590 c3        1 Q4A      0.215100
     31 CBC         7.4610   -2.1190   -3.5400 ca        1 Q4A     -0.087300
     32 CBD         7.2680   -2.2110   -4.9220 ca        1 Q4A     -0.118000
     33 CBE         7.4380   -3.4320   -5.5740 ca        1 Q4A     -0.133500
     34 CBF         7.7980   -4.5680   -4.8500 ca        1 Q4A     -0.129000
     35 CBG         7.9890   -4.4810   -3.4710 ca        1 Q4A     -0.133500
     36 CBH         7.8240   -3.2610   -2.8160 ca        1 Q4A     -0.118000
     37 HAOA       -2.2400    1.8330   -0.4110 h1        1 Q4A      0.058200
     38 HAP        -2.4730   -0.7880   -0.7130 hc        1 Q4A      0.060700
     39 HAPA       -3.8630    0.3010   -1.1070 hc        1 Q4A      0.060700
     40 HAQ        -3.4380    0.2140   -3.4880 h1        1 Q4A      0.027700
     41 HAQA       -3.5690   -1.4670   -2.8040 h1        1 Q4A      0.027700
     42 HAU        -0.7640   -2.1670   -4.8660 h1        1 Q4A      0.030700
     43 HAUA       -2.3810   -2.7100   -4.2360 h1        1 Q4A      0.030700
     44 HAUB       -2.2850   -1.3290   -5.4220 h1        1 Q4A      0.030700
     45 HAS        -0.0380   -0.0810   -4.5030 h1        1 Q4A      0.037200
     46 HASA       -1.3170    1.1030   -4.0040 h1        1 Q4A      0.037200
     47 HAT         0.8260    1.3940   -2.8100 h1        1 Q4A      0.056200
     48 HATA        0.8050   -0.3460   -2.2600 h1        1 Q4A      0.056200
     49 HAC        -1.9900    0.3340    3.3650 ha        1 Q4A      0.158000
     50 HBI        -2.7290   -0.0740    6.8800 h1        1 Q4A      0.047367
     51 HBIA       -2.8260   -0.7770    5.1820 h1        1 Q4A      0.047367
     52 HBIB       -2.7120    1.0410    5.4150 h1        1 Q4A      0.047367
     53 HBJ         3.4460   -1.1040    5.7280 h1        1 Q4A      0.043033
     54 HBJA        3.4370    0.7230    5.9140 h1        1 Q4A      0.043033
     55 HBJB        3.1190   -0.3510    7.3730 h1        1 Q4A      0.043033
     56 HAF         3.0020   -0.0220    3.7940 ha        1 Q4A      0.136000
     57 HNAM        3.8190   -0.3430    1.9720 hn        1 Q4A      0.408800
     58 HAV         3.9260    0.9420   -0.6930 h1        1 Q4A      0.085700
     59 HBA         6.1680   -0.2930    1.0790 hc        1 Q4A      0.054950
     60 HBAA        5.8540    1.4750    0.8200 hc        1 Q4A      0.054950
     61 HAZ         7.6820    0.5950   -0.6420 h1        1 Q4A      0.036200
     62 HAZA        6.2930    1.3280   -1.5630 h1        1 Q4A      0.036200
     63 HAW         4.5830   -2.0220    0.0010 hc        1 Q4A      0.054950
     64 HAWA        3.1950   -1.4400   -1.0110 hc        1 Q4A      0.054950
     65 HAX         5.1460   -2.2180   -2.3860 h1        1 Q4A      0.036200
     66 HAXA        4.6520   -0.4910   -2.6940 h1        1 Q4A      0.036200
     67 HBB         6.9560   -0.0270   -3.6060 h1        1 Q4A      0.039200
     68 HBBA        8.3700   -0.4650   -2.5460 h1        1 Q4A      0.039200
     69 HBD         6.9820   -1.3190   -5.4990 ha        1 Q4A      0.138000
     70 HBE         7.2870   -3.4980   -6.6610 ha        1 Q4A      0.130500
     71 HBF         7.9310   -5.5310   -5.3650 ha        1 Q4A      0.130000
     72 HBG         8.2720   -5.3750   -2.8970 ha        1 Q4A      0.130500
     73 HBH         7.9740   -3.1920   -1.7280 ha        1 Q4A      0.138000
     74 HAO        -2.1160    1.9020   -2.2180 h1        1 Q4A      0.058200
@<TRIPOS>BOND
     1    1   11 1   
     2    1   12 ar  
     3    1   13 ar  
     4    2    3 ar  
     5    2   21 ar  
     6    2   22 ar  
     7    3   13 ar  
     8    3   14 ar  
     9    4    5 1   
    10    4   11 1   
    11    4   37 1   
    12    4   74 1   
    13    5    6 1   
    14    5   38 1   
    15    5   39 1   
    16    6    7 1   
    17    6   40 1   
    18    6   41 1   
    19    7    8 1   
    20    7    9 1   
    21    8   42 1   
    22    8   43 1   
    23    8   44 1   
    24    9   10 1   
    25    9   45 1   
    26    9   46 1   
    27   10   11 1   
    28   10   47 1   
    29   10   48 1   
    30   12   22 ar  
    31   14   15 ar  
    32   14   49 1   
    33   15   16 1   
    34   15   18 ar  
    35   16   17 1   
    36   17   50 1   
    37   17   51 1   
    38   17   52 1   
    39   18   19 1   
    40   18   21 ar  
    41   19   20 1   
    42   20   53 1   
    43   20   54 1   
    44   20   55 1   
    45   21   56 1   
    46   22   23 1   
    47   23   24 1   
    48   23   57 1   
    49   24   25 1   
    50   24   27 1   
    51   24   58 1   
    52   25   26 1   
    53   25   59 1   
    54   25   60 1   
    55   26   29 1   
    56   26   61 1   
    57   26   62 1   
    58   27   28 1   
    59   27   63 1   
    60   27   64 1   
    61   28   29 1   
    62   28   65 1   
    63   28   66 1   
    64   29   30 1   
    65   30   31 1   
    66   30   67 1   
    67   30   68 1   
    68   31   32 ar  
    69   31   36 ar  
    70   32   33 ar  
    71   32   69 1   
    72   33   34 ar  
    73   33   70 1   
    74   34   35 ar  
    75   34   71 1   
    76   35   36 ar  
    77   35   72 1   
    78   36   73 1   
@<TRIPOS>SUBSTRUCTURE
     1 Q4A         1 TEMP              0 ****  ****    0 ROOT
