@<TRIPOS>MOLECULE
Q4A
   74    78     1     0     0
SMALL
bcc


@<TRIPOS>ATOM
      1 C2         -2.0760   -1.3460   -0.6750 ca        1 Q4A      0.913900
      2 C5         -2.4270    1.3720   -0.2890 ca        1 Q4A     -0.322600
      3 C4         -3.4690    0.4250   -0.0630 ca        1 Q4A      0.490600
      4 CAO        -3.0120   -3.6180   -0.8720 c3        1 Q4A      0.216800
      5 CAP        -3.2950   -4.1530    0.5280 c3        1 Q4A     -0.105400
      6 CAQ        -2.3810   -5.3090    0.9170 c3        1 Q4A      0.174800
      7 NAR        -0.9630   -4.9840    0.8910 n3        1 Q4A     -0.743600
      8 CAU        -0.1670   -5.9310    1.6380 c3        1 Q4A      0.163100
      9 CAS        -0.4460   -4.7340   -0.4440 c3        1 Q4A      0.158800
     10 CAT        -0.5560   -3.2590   -0.8820 c3        1 Q4A      0.215800
     11 NAN        -1.8930   -2.7130   -1.0100 nh        1 Q4A     -0.740300
     12 N1         -0.9690   -0.5070   -0.8810 nb        1 Q4A     -0.808000
     13 N3         -3.3000   -0.9240   -0.2420 nb        1 Q4A     -0.788000
     14 CAC        -4.7490    0.9010    0.3770 ca        1 Q4A     -0.271300
     15 CAD        -4.9650    2.2470    0.5560 ca        1 Q4A      0.151100
     16 OAL        -6.1510    2.8090    0.9740 os        1 Q4A     -0.301900
     17 CBI        -7.2160    1.9000    1.2350 c3        1 Q4A      0.107700
     18 CAE        -3.9140    3.1940    0.2990 ca        1 Q4A      0.082100
     19 OAK        -4.2690    4.5120    0.5100 os        1 Q4A     -0.302900
     20 CBJ        -3.2870    5.4830    0.1720 c3        1 Q4A      0.109700
     21 CAF        -2.6770    2.7540   -0.1150 ca        1 Q4A     -0.143000
     22 C6         -1.1410    0.8170   -0.7050 ca        1 Q4A      0.717200
     23 NAM        -0.0910    1.7000   -0.9870 nh        1 Q4A     -0.834900
     24 CAV         1.2540    1.2240   -1.2610 c3        1 Q4A      0.205500
     25 CBA         2.1000    2.3410   -1.8970 c3        1 Q4A     -0.094900
     26 CAZ         3.4880    1.8120   -2.2460 c3        1 Q4A      0.169300
     27 CAW         2.0060    0.7010   -0.0260 c3        1 Q4A     -0.094900
     28 CAX         3.4010    0.2230   -0.4190 c3        1 Q4A      0.169300
     29 NAY         4.1880    1.2410   -1.1020 n3        1 Q4A     -0.731600
     30 CBB         5.5180    0.7690   -1.4720 c3        1 Q4A      0.215100
     31 CBC         6.3780    0.3800   -0.3050 ca        1 Q4A     -0.087300
     32 CBD         7.0640   -0.8390   -0.3260 ca        1 Q4A     -0.118000
     33 CBE         7.9090   -1.1860    0.7280 ca        1 Q4A     -0.133500
     34 CBF         8.0720   -0.3200    1.8080 ca        1 Q4A     -0.129000
     35 CBG         7.3890    0.8950    1.8340 ca        1 Q4A     -0.133500
     36 CBH         6.5450    1.2470    0.7800 ca        1 Q4A     -0.118000
     37 HAOA       -3.9410   -3.1050   -1.2530 h1        1 Q4A      0.058200
     38 HAP        -3.2190   -3.3290    1.2840 hc        1 Q4A      0.060700
     39 HAPA       -4.3500   -4.5350    0.5500 hc        1 Q4A      0.060700
     40 HAQ        -2.6450   -5.6170    1.9690 h1        1 Q4A      0.027700
     41 HAQA       -2.6100   -6.1890    0.2430 h1        1 Q4A      0.027700
     42 HAU        -0.1740   -6.9660    1.1970 h1        1 Q4A      0.030700
     43 HAUA        0.8940   -5.5670    1.6760 h1        1 Q4A      0.030700
     44 HAUB       -0.5590   -5.9890    2.6870 h1        1 Q4A      0.030700
     45 HAS         0.6580   -4.9680   -0.4670 h1        1 Q4A      0.037200
     46 HASA       -0.9350   -5.3970   -1.2160 h1        1 Q4A      0.037200
     47 HAT         0.0640   -2.6510   -0.1620 h1        1 Q4A      0.056200
     48 HATA       -0.0780   -3.1830   -1.9020 h1        1 Q4A      0.056200
     49 HAC        -5.5460    0.1650    0.5610 ha        1 Q4A      0.158000
     50 HBI        -6.9410    1.1940    2.0550 h1        1 Q4A      0.047367
     51 HBIA       -8.0530    2.5720    1.5540 h1        1 Q4A      0.047367
     52 HBIB       -7.4910    1.3390    0.3090 h1        1 Q4A      0.047367
     53 HBJ        -3.8040    6.4550    0.3770 h1        1 Q4A      0.043033
     54 HBJA       -2.3850    5.3750    0.8220 h1        1 Q4A      0.043033
     55 HBJB       -3.0040    5.4070   -0.9060 h1        1 Q4A      0.043033
     56 HAF        -1.8900    3.4920   -0.3270 ha        1 Q4A      0.136000
     57 HNAM       -0.1130    2.5340   -0.4410 hn        1 Q4A      0.408800
     58 HAV         1.1750    0.3800   -2.0110 h1        1 Q4A      0.085700
     59 HBA         1.6160    2.7060   -2.8400 hc        1 Q4A      0.054950
     60 HBAA        2.1890    3.2080   -1.1930 hc        1 Q4A      0.054950
     61 HAZ         3.3850    1.0620   -3.0870 h1        1 Q4A      0.036200
     62 HAZA        4.1080    2.6710   -2.6310 h1        1 Q4A      0.036200
     63 HAW         2.0830    1.5090    0.7470 hc        1 Q4A      0.054950
     64 HAWA        1.4560   -0.1630    0.4260 hc        1 Q4A      0.054950
     65 HAX         3.9630   -0.0620    0.5150 h1        1 Q4A      0.036200
     66 HAXA        3.2920   -0.7080   -1.0520 h1        1 Q4A      0.036200
     67 HBB         5.4580   -0.1020   -2.1920 h1        1 Q4A      0.039200
     68 HBBA        6.0370    1.6150   -2.0110 h1        1 Q4A      0.039200
     69 HBD         6.9380   -1.5280   -1.1740 ha        1 Q4A      0.137500
     70 HBE         8.4470   -2.1450    0.7050 ha        1 Q4A      0.130500
     71 HBF         8.7380   -0.5950    2.6390 ha        1 Q4A      0.130000
     72 HBG         7.5150    1.5800    2.6850 ha        1 Q4A      0.130500
     73 HBH         6.0050    2.2060    0.8010 ha        1 Q4A      0.137500
     74 HAO        -2.8100   -4.4860   -1.5650 h1        1 Q4A      0.058200
@<TRIPOS>BOND
     1    1   11 1   
     2    1   12 ar  
     3    1   13 ar  
     4    2    3 ar  
     5    2   21 ar  
     6    2   22 ar  
     7    3   13 ar  
     8    3   14 ar  
     9    4    5 1   
    10    4   11 1   
    11    4   37 1   
    12    4   74 1   
    13    5    6 1   
    14    5   38 1   
    15    5   39 1   
    16    6    7 1   
    17    6   40 1   
    18    6   41 1   
    19    7    8 1   
    20    7    9 1   
    21    8   42 1   
    22    8   43 1   
    23    8   44 1   
    24    9   10 1   
    25    9   45 1   
    26    9   46 1   
    27   10   11 1   
    28   10   47 1   
    29   10   48 1   
    30   12   22 ar  
    31   14   15 ar  
    32   14   49 1   
    33   15   16 1   
    34   15   18 ar  
    35   16   17 1   
    36   17   50 1   
    37   17   51 1   
    38   17   52 1   
    39   18   19 1   
    40   18   21 ar  
    41   19   20 1   
    42   20   53 1   
    43   20   54 1   
    44   20   55 1   
    45   21   56 1   
    46   22   23 1   
    47   23   24 1   
    48   23   57 1   
    49   24   25 1   
    50   24   27 1   
    51   24   58 1   
    52   25   26 1   
    53   25   59 1   
    54   25   60 1   
    55   26   29 1   
    56   26   61 1   
    57   26   62 1   
    58   27   28 1   
    59   27   63 1   
    60   27   64 1   
    61   28   29 1   
    62   28   65 1   
    63   28   66 1   
    64   29   30 1   
    65   30   31 1   
    66   30   67 1   
    67   30   68 1   
    68   31   32 ar  
    69   31   36 ar  
    70   32   33 ar  
    71   32   69 1   
    72   33   34 ar  
    73   33   70 1   
    74   34   35 ar  
    75   34   71 1   
    76   35   36 ar  
    77   35   72 1   
    78   36   73 1   
@<TRIPOS>SUBSTRUCTURE
     1 Q4A         1 TEMP              0 ****  ****    0 ROOT
