@<TRIPOS>MOLECULE
Q4A
   75    79     1     0     0
SMALL
bcc


@<TRIPOS>ATOM
      1 C2         -0.3240    1.3190   -0.1560 ca        1 Q4A      0.923900
      2 C5          1.4780    0.1840    1.6550 ca        1 Q4A     -0.283600
      3 C4          0.0540   -0.0430    1.7220 ca        1 Q4A      0.513600
      4 CAO        -2.6370    1.7220   -0.8900 c3        1 Q4A      0.211800
      5 CAP        -3.1370    0.4260   -1.5170 c3        1 Q4A     -0.103400
      6 CAQ        -3.2120    0.4820   -3.0390 c3        1 Q4A      0.167800
      7 NAR        -1.9610    0.8640   -3.6800 n3        1 Q4A     -0.750600
      8 CAU        -1.8880    0.4340   -5.0590 c3        1 Q4A      0.160100
      9 CAS        -1.6320    2.2660   -3.4990 c3        1 Q4A      0.153800
     10 CAT        -0.7370    2.5270   -2.2670 c3        1 Q4A      0.207800
     11 NAN        -1.2120    1.9810   -1.0090 nh        1 Q4A     -0.716300
     12 N1          1.0470    1.6050   -0.2940 nb        1 Q4A     -0.757000
     13 N3         -0.8190    0.4940    0.8350 nb        1 Q4A     -0.720000
     14 CAC        -0.4530   -0.8840    2.7750 ca        1 Q4A     -0.277300
     15 CAD         0.4000   -1.4550    3.6830 ca        1 Q4A      0.178100
     16 OAL         0.0320   -2.2630    4.7220 os        1 Q4A     -0.284900
     17 CBI        -1.3660   -2.5230    4.8680 c3        1 Q4A      0.101700
     18 CAE         1.8330   -1.2280    3.5930 ca        1 Q4A      0.160100
     19 OAK         2.5560   -1.8760    4.5590 os        1 Q4A     -0.279900
     20 CBJ         3.9680   -1.6810    4.5460 c3        1 Q4A      0.103700
     21 CAF         2.3450   -0.4320    2.5990 ca        1 Q4A     -0.229000
     22 C6          1.8770    1.0460    0.5940 ca        1 Q4A      0.556200
     23 NAM         3.3110    1.4030    0.4270 n4        1 Q4A     -0.758700
     24 CAV         4.0050    0.5570   -0.6200 c3        1 Q4A      0.128500
     25 CBA         5.2640    1.2660   -1.1300 c3        1 Q4A     -0.104400
     26 CAZ         5.9470    0.3880   -2.1840 c3        1 Q4A      0.169800
     27 CAW         4.3680   -0.8270   -0.0800 c3        1 Q4A     -0.104400
     28 CAX         5.0760   -1.6250   -1.1770 c3        1 Q4A      0.169800
     29 NAY         6.2570   -0.9410   -1.6800 n3        1 Q4A     -0.737600
     30 CBB         7.0170   -1.7320   -2.6440 c3        1 Q4A      0.220100
     31 CBC         7.5090   -3.0400   -2.0990 ca        1 Q4A     -0.109300
     32 CBD         7.1480   -4.2370   -2.7250 ca        1 Q4A     -0.117000
     33 CBE         7.6500   -5.4500   -2.2550 ca        1 Q4A     -0.129000
     34 CBF         8.5100   -5.4730   -1.1570 ca        1 Q4A     -0.116000
     35 CBG         8.8710   -4.2800   -0.5300 ca        1 Q4A     -0.129000
     36 CBH         8.3730   -3.0660   -1.0000 ca        1 Q4A     -0.117000
     37 HAP        -4.1740    0.2370   -1.1320 hc        1 Q4A      0.065700
     38 HAPA       -2.4960   -0.4360   -1.1980 hc        1 Q4A      0.065700
     39 HAQ        -3.4950   -0.5470   -3.4050 h1        1 Q4A      0.041700
     40 HAQA       -4.0510    1.1820   -3.3310 h1        1 Q4A      0.041700
     41 HAU        -0.8680    0.6690   -5.4620 h1        1 Q4A      0.038367
     42 HAUA       -2.0370   -0.6770   -5.1010 h1        1 Q4A      0.038367
     43 HAUB       -2.6550    0.9230   -5.7190 h1        1 Q4A      0.038367
     44 HAS        -2.5570    2.9110   -3.4240 h1        1 Q4A      0.049200
     45 HASA       -1.0430    2.6430   -4.3840 h1        1 Q4A      0.049200
     46 HAT        -0.6690    3.6450   -2.1300 h1        1 Q4A      0.061200
     47 HATA        0.2900    2.1380   -2.5170 h1        1 Q4A      0.061200
     48 HAC        -1.5410   -1.0530    2.8280 ha        1 Q4A      0.180000
     49 HBI        -1.4030   -3.1880    5.7690 h1        1 Q4A      0.062367
     50 HBIA       -1.7600   -3.0510    3.9660 h1        1 Q4A      0.062367
     51 HBIB       -1.9230   -1.5730    5.0500 h1        1 Q4A      0.062367
     52 HBJ         4.2180   -0.6020    4.6940 h1        1 Q4A      0.055700
     53 HBJA        4.3140   -2.2920    5.4190 h1        1 Q4A      0.055700
     54 HBJB        4.4100   -2.0650    3.5940 h1        1 Q4A      0.055700
     55 HAF         3.4320   -0.2930    2.5330 ha        1 Q4A      0.128000
     56 HNAM        3.3850    2.3900    0.1430 hn        1 Q4A      0.458300
     57 HAV         3.2740    0.4430   -1.4780 hx        1 Q4A      0.120700
     58 HBA         5.9760    1.4590   -0.2850 hc        1 Q4A      0.069950
     59 HBAA        5.0040    2.2460   -1.6080 hc        1 Q4A      0.069950
     60 HAZ         5.2870    0.3520   -3.1000 h1        1 Q4A      0.058450
     61 HAZA        6.9150    0.8860   -2.4760 h1        1 Q4A      0.058450
     62 HAW         5.0420   -0.7340    0.8120 hc        1 Q4A      0.069950
     63 HAWA        3.4440   -1.3830    0.2310 hc        1 Q4A      0.069950
     64 HAX         4.3310   -1.8450   -1.9970 h1        1 Q4A      0.058450
     65 HAXA        5.4110   -2.6100   -0.7400 h1        1 Q4A      0.058450
     66 HBB         6.4100   -1.9210   -3.5800 h1        1 Q4A      0.050200
     67 HBBA        7.9160   -1.1160   -2.9400 h1        1 Q4A      0.050200
     68 HBD         6.4750   -4.2260   -3.5960 ha        1 Q4A      0.135500
     69 HBE         7.3700   -6.3900   -2.7550 ha        1 Q4A      0.140000
     70 HBF         8.9080   -6.4310   -0.7900 ha        1 Q4A      0.142000
     71 HBG         9.5550   -4.2970    0.3310 ha        1 Q4A      0.140000
     72 HBH         8.6640   -2.1230   -0.5120 ha        1 Q4A      0.135500
     73 HAO        -3.1590    2.5990   -1.3740 h1        1 Q4A      0.070700
     74 HAM2        3.7800    1.2860    1.3310 hn        1 Q4A      0.458300
     75 HAOA       -2.9170    1.7300    0.2030 h1        1 Q4A      0.070700
@<TRIPOS>BOND
     1    1   11 1   
     2    1   12 ar  
     3    1   13 ar  
     4    2    3 ar  
     5    2   21 ar  
     6    2   22 ar  
     7    3   13 ar  
     8    3   14 ar  
     9    4    5 1   
    10    4   11 1   
    11    4   73 1   
    12    4   75 1   
    13    5    6 1   
    14    5   37 1   
    15    5   38 1   
    16    6    7 1   
    17    6   39 1   
    18    6   40 1   
    19    7    8 1   
    20    7    9 1   
    21    8   41 1   
    22    8   42 1   
    23    8   43 1   
    24    9   10 1   
    25    9   44 1   
    26    9   45 1   
    27   10   11 1   
    28   10   46 1   
    29   10   47 1   
    30   12   22 ar  
    31   14   15 ar  
    32   14   48 1   
    33   15   16 1   
    34   15   18 ar  
    35   16   17 1   
    36   17   49 1   
    37   17   50 1   
    38   17   51 1   
    39   18   19 1   
    40   18   21 ar  
    41   19   20 1   
    42   20   52 1   
    43   20   53 1   
    44   20   54 1   
    45   21   55 1   
    46   22   23 1   
    47   23   24 1   
    48   23   56 1   
    49   23   74 1   
    50   24   25 1   
    51   24   27 1   
    52   24   57 1   
    53   25   26 1   
    54   25   58 1   
    55   25   59 1   
    56   26   29 1   
    57   26   60 1   
    58   26   61 1   
    59   27   28 1   
    60   27   62 1   
    61   27   63 1   
    62   28   29 1   
    63   28   64 1   
    64   28   65 1   
    65   29   30 1   
    66   30   31 1   
    67   30   66 1   
    68   30   67 1   
    69   31   32 ar  
    70   31   36 ar  
    71   32   33 ar  
    72   32   68 1   
    73   33   34 ar  
    74   33   69 1   
    75   34   35 ar  
    76   34   70 1   
    77   35   36 ar  
    78   35   71 1   
    79   36   72 1   
@<TRIPOS>SUBSTRUCTURE
     1 Q4A         1 TEMP              0 ****  ****    0 ROOT
