@<TRIPOS>MOLECULE
Q4A
   74    78     1     0     0
SMALL
bcc


@<TRIPOS>ATOM
      1 C2          0.0770    0.6610   -0.0370 ca        1 Q4A      0.913900
      2 C5          1.2950    0.2010    2.4060 ca        1 Q4A     -0.322600
      3 C4         -0.1180    0.3320    2.2670 ca        1 Q4A      0.490600
      4 CAO        -1.9190    1.2590   -1.3530 c3        1 Q4A      0.216800
      5 CAP        -2.8120    0.0280   -1.4730 c3        1 Q4A     -0.105400
      6 CAQ        -2.8850   -0.5150   -2.8950 c3        1 Q4A      0.174800
      7 NAR        -1.5980   -0.8970   -3.4550 n3        1 Q4A     -0.743600
      8 CAU        -1.7320   -1.7670   -4.6020 c3        1 Q4A      0.163100
      9 CAS        -0.7080    0.2270   -3.6950 c3        1 Q4A      0.158800
     10 CAT         0.1820    0.5770   -2.4850 c3        1 Q4A      0.215800
     11 NAN        -0.4940    1.0260   -1.2840 nh        1 Q4A     -0.740300
     12 N1          1.4720    0.5000   -0.0200 nb        1 Q4A     -0.808000
     13 N3         -0.7300    0.5500    1.0590 nb        1 Q4A     -0.788000
     14 CAC        -0.9390    0.2250    3.4390 ca        1 Q4A     -0.271300
     15 CAD        -0.3650    0.0210    4.6720 ca        1 Q4A      0.151100
     16 OAL        -1.0560   -0.0970    5.8570 os        1 Q4A     -0.301900
     17 CBI        -2.4740    0.0050    5.7660 c3        1 Q4A      0.107700
     18 CAE         1.0640   -0.0830    4.8020 ca        1 Q4A      0.082100
     19 OAK         1.5060   -0.2790    6.0960 os        1 Q4A     -0.302900
     20 CBJ         2.9160   -0.2870    6.2770 c3        1 Q4A      0.109700
     21 CAF         1.8650    0.0080    3.6870 ca        1 Q4A     -0.143000
     22 C6          2.0670    0.2880    1.1690 ca        1 Q4A      0.717200
     23 NAM         3.4640    0.2120    1.2450 nu        1 Q4A     -0.834900
     24 CAV         4.2920    0.1410    0.0530 c3        1 Q4A      0.205500
     25 CBA         5.7600    0.4450    0.3990 c3        1 Q4A     -0.094900
     26 CAZ         6.6090    0.4380   -0.8690 c3        1 Q4A      0.169300
     27 CAW         4.2440   -1.2130   -0.6730 c3        1 Q4A     -0.094900
     28 CAX         5.1380   -1.1830   -1.9080 c3        1 Q4A      0.169300
     29 NAY         6.5160   -0.8120   -1.6140 n3        1 Q4A     -0.731600
     30 CBB         7.3580   -0.7870   -2.8040 c3        1 Q4A      0.215100
     31 CBC         7.4890   -2.1150   -3.4920 ca        1 Q4A     -0.087300
     32 CBD         7.3090   -2.1980   -4.8770 ca        1 Q4A     -0.118000
     33 CBE         7.4830   -3.4150   -5.5350 ca        1 Q4A     -0.133500
     34 CBF         7.8330   -4.5560   -4.8140 ca        1 Q4A     -0.129000
     35 CBG         8.0110   -4.4780   -3.4320 ca        1 Q4A     -0.133500
     36 CBH         7.8420   -3.2610   -2.7720 ca        1 Q4A     -0.118000
     37 HAOA       -2.2350    1.8430   -0.4410 h1        1 Q4A      0.058200
     38 HAP        -2.4680   -0.7740   -0.7700 hc        1 Q4A      0.060700
     39 HAPA       -3.8520    0.3210   -1.1700 hc        1 Q4A      0.060700
     40 HAQ        -3.5420   -1.4320   -2.8800 h1        1 Q4A      0.027700
     41 HAQA       -3.4010    0.2540   -3.5460 h1        1 Q4A      0.027700
     42 HAU        -2.2290   -1.2720   -5.4820 h1        1 Q4A      0.030700
     43 HAUA       -2.3400   -2.6630   -4.3100 h1        1 Q4A      0.030700
     44 HAUB       -0.7140   -2.1170   -4.9170 h1        1 Q4A      0.030700
     45 HAS         0.0100   -0.0360   -4.5250 h1        1 Q4A      0.037200
     46 HASA       -1.2720    1.1450   -4.0300 h1        1 Q4A      0.037200
     47 HAT         0.8580    1.4210   -2.8090 h1        1 Q4A      0.056200
     48 HATA        0.8270   -0.3240   -2.2750 h1        1 Q4A      0.056200
     49 HAC        -2.0290    0.3150    3.3250 ha        1 Q4A      0.158000
     50 HBI        -2.7730    1.0070    5.3720 h1        1 Q4A      0.047367
     51 HBIA       -2.8080   -0.1190    6.8270 h1        1 Q4A      0.047367
     52 HBIB       -2.8880   -0.8090    5.1230 h1        1 Q4A      0.047367
     53 HBJ         3.3790   -1.1490    5.7370 h1        1 Q4A      0.043033
     54 HBJA        3.0330   -0.4090    7.3840 h1        1 Q4A      0.043033
     55 HBJB        3.3690    0.6760    5.9370 h1        1 Q4A      0.043033
     56 HAF         2.9560   -0.0540    3.8060 ha        1 Q4A      0.136000
     57 HNAM        3.7930   -0.3630    1.9910 hn        1 Q4A      0.408800
     58 HAV         3.9330    0.9400   -0.6640 h1        1 Q4A      0.085700
     59 HBA         6.1520   -0.3140    1.1240 hc        1 Q4A      0.054950
     60 HBAA        5.8460    1.4560    0.8740 hc        1 Q4A      0.054950
     61 HAZ         6.3090    1.3240   -1.5060 h1        1 Q4A      0.036200
     62 HAZA        7.6870    0.5800   -0.5750 h1        1 Q4A      0.036200
     63 HAW         3.1980   -1.4390   -1.0060 hc        1 Q4A      0.054950
     64 HAWA        4.5740   -2.0310    0.0180 hc        1 Q4A      0.054950
     65 HAX         4.6750   -0.4830   -2.6660 h1        1 Q4A      0.036200
     66 HAXA        5.1620   -2.2130   -2.3650 h1        1 Q4A      0.036200
     67 HBB         8.3920   -0.4690   -2.4780 h1        1 Q4A      0.039200
     68 HBBA        6.9900   -0.0200   -3.5510 h1        1 Q4A      0.039200
     69 HBD         7.0310   -1.3020   -5.4520 ha        1 Q4A      0.137500
     70 HBE         7.3430   -3.4740   -6.6240 ha        1 Q4A      0.130500
     71 HBF         7.9690   -5.5160   -5.3330 ha        1 Q4A      0.130000
     72 HBG         8.2860   -5.3760   -2.8610 ha        1 Q4A      0.130500
     73 HBH         7.9810   -3.2000   -1.6820 ha        1 Q4A      0.137500
     74 HAO        -2.0910    1.9290   -2.2460 h1        1 Q4A      0.058200
@<TRIPOS>BOND
     1    1   11 1   
     2    1   12 ar  
     3    1   13 ar  
     4    2    3 ar  
     5    2   21 ar  
     6    2   22 ar  
     7    3   13 ar  
     8    3   14 ar  
     9    4    5 1   
    10    4   11 1   
    11    4   37 1   
    12    4   74 1   
    13    5    6 1   
    14    5   38 1   
    15    5   39 1   
    16    6    7 1   
    17    6   40 1   
    18    6   41 1   
    19    7    8 1   
    20    7    9 1   
    21    8   42 1   
    22    8   43 1   
    23    8   44 1   
    24    9   10 1   
    25    9   45 1   
    26    9   46 1   
    27   10   11 1   
    28   10   47 1   
    29   10   48 1   
    30   12   22 ar  
    31   14   15 ar  
    32   14   49 1   
    33   15   16 1   
    34   15   18 ar  
    35   16   17 1   
    36   17   50 1   
    37   17   51 1   
    38   17   52 1   
    39   18   19 1   
    40   18   21 ar  
    41   19   20 1   
    42   20   53 1   
    43   20   54 1   
    44   20   55 1   
    45   21   56 1   
    46   22   23 1   
    47   23   24 1   
    48   23   57 1   
    49   24   25 1   
    50   24   27 1   
    51   24   58 1   
    52   25   26 1   
    53   25   59 1   
    54   25   60 1   
    55   26   29 1   
    56   26   61 1   
    57   26   62 1   
    58   27   28 1   
    59   27   63 1   
    60   27   64 1   
    61   28   29 1   
    62   28   65 1   
    63   28   66 1   
    64   29   30 1   
    65   30   31 1   
    66   30   67 1   
    67   30   68 1   
    68   31   32 ar  
    69   31   36 ar  
    70   32   33 ar  
    71   32   69 1   
    72   33   34 ar  
    73   33   70 1   
    74   34   35 ar  
    75   34   71 1   
    76   35   36 ar  
    77   35   72 1   
    78   36   73 1   
@<TRIPOS>SUBSTRUCTURE
     1 Q4A         1 TEMP              0 ****  ****    0 ROOT
