@<TRIPOS>MOLECULE
Q4Q
   45    44     1     0     0
SMALL
bcc


@<TRIPOS>ATOM
      1 S          -0.4700   -0.5790   -1.1620 s4        1 Q4Q      1.571500
      2 N1          1.9200   -0.7230   -0.5110 n8        1 Q4Q     -0.990800
      3 O1         -0.4800    0.7210   -0.7870 o         1 Q4Q     -0.407900
      4 C2         -3.0480   -2.6740   -1.2670 ca        1 Q4Q     -0.079500
      5 N2          5.0220    0.5990   -2.3510 nx        1 Q4Q     -0.689400
      6 O2         -0.1340   -0.9670   -2.4160 o         1 Q4Q     -0.407900
      7 C3         -2.5100   -1.7490   -0.3580 ca        1 Q4Q     -0.245300
      8 C4         -1.0360   -1.7010   -0.1220 c3        1 Q4Q     -0.356800
      9 C6          5.4710    0.5540   -4.8330 c3        1 Q4Q     -0.139600
     10 C7         -3.3720   -0.9440    0.4060 ca        1 Q4Q     -0.079500
     11 C8         -4.7460   -1.0300    0.2240 ca        1 Q4Q     -0.126000
     12 C9         -5.2900   -1.9360   -0.7020 ca        1 Q4Q      0.024700
     13 C10        -4.4230   -2.7550   -1.4440 ca        1 Q4Q     -0.126000
     14 C11         2.7090   -0.0840   -1.5480 c3        1 Q4Q      0.106800
     15 C12         4.2340   -0.1130   -1.3010 c3        1 Q4Q      0.069800
     16 C08        -6.7540   -2.0430   -0.8730 c3        1 Q4Q     -0.088800
     17 C13         6.3680    1.0180   -1.8130 c3        1 Q4Q      0.111800
     18 C14         6.3120    2.2550   -0.9440 c3        1 Q4Q     -0.139600
     19 C17         5.1870   -0.2520   -3.5840 c3        1 Q4Q      0.111800
     20 H1          2.0310   -0.2400    0.3670 hn        1 Q4Q      0.403800
     21 H41C       -0.8630   -1.4840    0.9760 h1        1 Q4Q      0.187700
     22 H42C       -0.6240   -2.7470   -0.2550 h1        1 Q4Q      0.187700
     23 H111        2.3650    0.9910   -1.6260 h1        1 Q4Q      0.100700
     24 H112        2.4690   -0.6010   -2.5250 h1        1 Q4Q      0.100700
     25 H2         -2.3870   -3.3470   -1.8370 ha        1 Q4Q      0.147000
     26 H10        -4.8420   -3.4790   -2.1640 ha        1 Q4Q      0.173500
     27 H121        4.6010   -1.1790   -1.2570 hx        1 Q4Q      0.112200
     28 H122        4.4590    0.3790   -0.3090 hx        1 Q4Q      0.112200
     29 H131        6.7960    0.1460   -1.2400 hx        1 Q4Q      0.107950
     30 H132        7.0330    1.2190   -2.7050 hx        1 Q4Q      0.107950
     31 H171        4.2330   -0.8370   -3.7270 hx        1 Q4Q      0.107950
     32 H172        6.0260   -0.9800   -3.3870 hx        1 Q4Q      0.107950
     33 H7         -2.9660   -0.2490    1.1590 ha        1 Q4Q      0.147000
     34 H61C        4.6550    1.2850   -5.0540 hc        1 Q4Q      0.086033
     35 H62C        5.5390   -0.1610   -5.6950 hc        1 Q4Q      0.086033
     36 H63C        6.4430    1.1040   -4.7710 hc        1 Q4Q      0.086033
     37 H8         -5.4190   -0.3910    0.8220 ha        1 Q4Q      0.173500
     38 H081       -7.2580   -1.0650   -0.6690 hc        1 Q4Q      0.078700
     39 H082       -7.0180   -2.3720   -1.9090 hc        1 Q4Q      0.078700
     40 H083       -7.1610   -2.8010   -0.1530 hc        1 Q4Q      0.078700
     41 H141        5.8890    3.1330   -1.4910 hc        1 Q4Q      0.086033
     42 H142        7.3650    2.5110   -0.6480 hc        1 Q4Q      0.086033
     43 H143        5.7260    2.0910   -0.0080 hc        1 Q4Q      0.086033
     44 H12         2.2030   -1.6820   -0.3890 hn        1 Q4Q      0.403800
     45 H21         4.5140    1.4540   -2.6190 hn        1 Q4Q      0.448800
@<TRIPOS>BOND
     1    1    3 1   
     2    1    6 1   
     3    1    8 1   
     4    2   14 1   
     5    2   20 1   
     6    2   44 1   
     7    4    7 ar  
     8    4   13 ar  
     9    4   25 1   
    10    5   15 1   
    11    5   17 1   
    12    5   19 1   
    13    5   45 1   
    14    7    8 1   
    15    7   10 ar  
    16    8   21 1   
    17    8   22 1   
    18    9   19 1   
    19    9   34 1   
    20    9   35 1   
    21    9   36 1   
    22   10   11 ar  
    23   10   33 1   
    24   11   12 ar  
    25   11   37 1   
    26   12   13 ar  
    27   12   16 1   
    28   13   26 1   
    29   14   15 1   
    30   14   23 1   
    31   14   24 1   
    32   15   27 1   
    33   15   28 1   
    34   16   38 1   
    35   16   39 1   
    36   16   40 1   
    37   17   18 1   
    38   17   29 1   
    39   17   30 1   
    40   18   41 1   
    41   18   42 1   
    42   18   43 1   
    43   19   31 1   
    44   19   32 1   
@<TRIPOS>SUBSTRUCTURE
     1 Q4Q         1 TEMP              0 ****  ****    0 ROOT
