@<TRIPOS>MOLECULE
Q4Q
   43    43     1     0     0
SMALL
bcc


@<TRIPOS>ATOM
      1 S           0.3500    0.9150   -0.5620 s6        1 Q4Q      1.447900
      2 N1         -1.0350    0.5770   -1.3230 n3        1 Q4Q     -0.928100
      3 O1          0.8950    2.0770   -1.1440 o         1 Q4Q     -0.647300
      4 C2          2.8810   -0.5170    0.9730 ca        1 Q4Q     -0.110000
      5 N2         -4.4310   -0.5200   -0.1490 n3        1 Q4Q     -0.749600
      6 O2          0.1650    0.9000    0.8360 o         1 Q4Q     -0.647300
      7 C3          2.6940   -0.3960   -0.4110 ca        1 Q4Q     -0.079300
      8 C4          1.3300   -0.4550   -0.9870 c3        1 Q4Q     -0.246300
      9 C6         -5.7240   -2.5210   -0.8980 c3        1 Q4Q     -0.095100
     10 C7          3.8100   -0.2530   -1.2430 ca        1 Q4Q     -0.110000
     11 C8          5.0930   -0.2280   -0.7000 ca        1 Q4Q     -0.129000
     12 C9          5.2820   -0.3480    0.6810 ca        1 Q4Q     -0.068300
     13 C10         4.1640   -0.4920    1.5110 ca        1 Q4Q     -0.129000
     14 C11        -2.0540   -0.2980   -0.8240 c3        1 Q4Q      0.222800
     15 C12        -3.4100    0.4150   -0.5910 c3        1 Q4Q      0.159800
     16 C08         6.6440   -0.3070    1.2590 c3        1 Q4Q     -0.055800
     17 C13        -5.3470    0.0460    0.8320 c3        1 Q4Q      0.177300
     18 C14        -4.7370    0.2220    2.2140 c3        1 Q4Q     -0.095100
     19 C17        -5.1110   -1.1770   -1.2580 c3        1 Q4Q      0.177300
     20 H1         -1.2740    1.0270   -2.1750 hn        1 Q4Q      0.448800
     21 H41C        0.8470   -1.4080   -0.6340 h1        1 Q4Q      0.109200
     22 H42C        1.4100   -0.5540   -2.1030 h1        1 Q4Q      0.109200
     23 H111       -2.2020   -1.1480   -1.5520 h1        1 Q4Q      0.055700
     24 H112       -1.7060   -0.7360    0.1570 h1        1 Q4Q      0.055700
     25 H2          2.0050   -0.6120    1.6360 ha        1 Q4Q      0.142500
     26 H10         4.3000   -0.5840    2.5990 ha        1 Q4Q      0.134000
     27 H121       -3.7140    0.9430   -1.5420 h1        1 Q4Q      0.039700
     28 H122       -3.2600    1.2070    0.1960 h1        1 Q4Q      0.039700
     29 H131       -5.7510    1.0440    0.4850 h1        1 Q4Q      0.028700
     30 H132       -6.2270   -0.6530    0.9260 h1        1 Q4Q      0.028700
     31 H171       -5.9200   -0.5160   -1.6900 h1        1 Q4Q      0.028700
     32 H172       -4.3530   -1.3500   -2.0760 h1        1 Q4Q      0.028700
     33 H7          3.6770   -0.1550   -2.3310 ha        1 Q4Q      0.142500
     34 H61C       -4.9660   -3.1980   -0.4360 hc        1 Q4Q      0.040533
     35 H62C       -6.5750   -2.4070   -0.1860 hc        1 Q4Q      0.040533
     36 H63C       -6.1080   -2.9980   -1.8320 hc        1 Q4Q      0.040533
     37 H8          5.9630   -0.1120   -1.3630 ha        1 Q4Q      0.134000
     38 H081        6.9090    0.7470    1.5330 hc        1 Q4Q      0.045367
     39 H082        6.7060   -0.9330    2.1830 hc        1 Q4Q      0.045367
     40 H083        7.4030   -0.6780    0.5280 hc        1 Q4Q      0.045367
     41 H141       -4.3380   -0.7460    2.6010 hc        1 Q4Q      0.040533
     42 H142       -3.9060    0.9670    2.2070 hc        1 Q4Q      0.040533
     43 H143       -5.5320    0.5850    2.9090 hc        1 Q4Q      0.040533
@<TRIPOS>BOND
     1    1    2 1   
     2    1    3 2   
     3    1    6 2   
     4    1    8 1   
     5    2   14 1   
     6    2   20 1   
     7    4    7 ar  
     8    4   13 ar  
     9    4   25 1   
    10    5   15 1   
    11    5   17 1   
    12    5   19 1   
    13    7    8 1   
    14    7   10 ar  
    15    8   21 1   
    16    8   22 1   
    17    9   19 1   
    18    9   34 1   
    19    9   35 1   
    20    9   36 1   
    21   10   11 ar  
    22   10   33 1   
    23   11   12 ar  
    24   11   37 1   
    25   12   13 ar  
    26   12   16 1   
    27   13   26 1   
    28   14   15 1   
    29   14   23 1   
    30   14   24 1   
    31   15   27 1   
    32   15   28 1   
    33   16   38 1   
    34   16   39 1   
    35   16   40 1   
    36   17   18 1   
    37   17   29 1   
    38   17   30 1   
    39   18   41 1   
    40   18   42 1   
    41   18   43 1   
    42   19   31 1   
    43   19   32 1   
@<TRIPOS>SUBSTRUCTURE
     1 Q4Q         1 TEMP              0 ****  ****    0 ROOT
