@<TRIPOS>MOLECULE
Q4Q
   45    44     1     0     0
SMALL
bcc


@<TRIPOS>ATOM
      1 S          -0.4690   -0.5810   -1.1490 s4        1 Q4Q      1.571500
      2 N1          1.9260   -0.7450   -0.5210 n3        1 Q4Q     -0.990800
      3 O1         -0.4740    0.7070   -0.7340 o         1 Q4Q     -0.407900
      4 C2         -3.0500   -2.6680   -1.2990 ca        1 Q4Q     -0.079500
      5 N2          5.0170    0.6130   -2.3530 n4        1 Q4Q     -0.689400
      6 O2         -0.1420   -0.9300   -2.4170 o         1 Q4Q     -0.407900
      7 C3         -2.5040   -1.7720   -0.3660 ca        1 Q4Q     -0.245300
      8 C4         -1.0280   -1.7330   -0.1410 c3        1 Q4Q     -0.356800
      9 C6          5.4490    0.6240   -4.8380 c3        1 Q4Q     -0.139600
     10 C7         -3.3580   -0.9900    0.4300 ca        1 Q4Q     -0.079500
     11 C8         -4.7340   -1.0690    0.2560 ca        1 Q4Q     -0.126000
     12 C9         -5.2860   -1.9450   -0.6930 ca        1 Q4Q      0.024700
     13 C10        -4.4270   -2.7420   -1.4670 ca        1 Q4Q     -0.126000
     14 C11         2.7090   -0.0840   -1.5490 c3        1 Q4Q      0.106800
     15 C12         4.2360   -0.1220   -1.3140 c3        1 Q4Q      0.069800
     16 C08        -6.7520   -2.0450   -0.8560 c3        1 Q4Q     -0.088800
     17 C13         6.3690    1.0170   -1.8140 c3        1 Q4Q      0.111800
     18 C14         6.3210    2.2340   -0.9170 c3        1 Q4Q     -0.139600
     19 C17         5.1720   -0.2100   -3.6060 c3        1 Q4Q      0.111800
     20 H1          2.0440   -0.2830    0.3670 hn        1 Q4Q      0.404300
     21 H41C       -0.8460   -1.5500    0.9630 h1        1 Q4Q      0.187700
     22 H42C       -0.6180   -2.7750   -0.3090 h1        1 Q4Q      0.187700
     23 H111        2.4610   -0.5780   -2.5350 h1        1 Q4Q      0.100700
     24 H112        2.3660    0.9930   -1.6000 h1        1 Q4Q      0.100700
     25 H2         -2.3950   -3.3240   -1.8940 ha        1 Q4Q      0.147000
     26 H10        -4.8520   -3.4430   -2.2060 ha        1 Q4Q      0.173500
     27 H121        4.4690    0.3470   -0.3120 hx        1 Q4Q      0.111700
     28 H122        4.6010   -1.1900   -1.2960 hx        1 Q4Q      0.111700
     29 H131        6.7980    0.1320   -1.2640 hx        1 Q4Q      0.107950
     30 H132        7.0270    1.2370   -2.7070 hx        1 Q4Q      0.107950
     31 H171        6.0110   -0.9440   -3.4320 hx        1 Q4Q      0.107950
     32 H172        4.2160   -0.7900   -3.7560 hx        1 Q4Q      0.107950
     33 H7         -2.9450   -0.3190    1.2000 ha        1 Q4Q      0.147000
     34 H61C        4.6330    1.3610   -5.0370 hc        1 Q4Q      0.086033
     35 H62C        6.4220    1.1710   -4.7700 hc        1 Q4Q      0.086033
     36 H63C        5.5090   -0.0710   -5.7170 hc        1 Q4Q      0.086033
     37 H8         -5.4010   -0.4480    0.8780 ha        1 Q4Q      0.173500
     38 H081       -7.1540   -2.8250   -0.1570 hc        1 Q4Q      0.078700
     39 H082       -7.2530   -1.0740   -0.6180 hc        1 Q4Q      0.078700
     40 H083       -7.0240   -2.3410   -1.9000 hc        1 Q4Q      0.078700
     41 H141        7.3760    2.4820   -0.6230 hc        1 Q4Q      0.086033
     42 H142        5.8960    3.1250   -1.4420 hc        1 Q4Q      0.086033
     43 H143        5.7410    2.0500    0.0190 hc        1 Q4Q      0.086033
     44 H12         2.2080   -1.7070   -0.4230 hn        1 Q4Q      0.404300
     45 H21         4.5100    1.4750   -2.5980 hn        1 Q4Q      0.448800
@<TRIPOS>BOND
     1    1    3 1   
     2    1    6 1   
     3    1    8 1   
     4    2   14 1   
     5    2   20 1   
     6    2   44 1   
     7    4    7 ar  
     8    4   13 ar  
     9    4   25 1   
    10    5   15 1   
    11    5   17 1   
    12    5   19 1   
    13    5   45 1   
    14    7    8 1   
    15    7   10 ar  
    16    8   21 1   
    17    8   22 1   
    18    9   19 1   
    19    9   34 1   
    20    9   35 1   
    21    9   36 1   
    22   10   11 ar  
    23   10   33 1   
    24   11   12 ar  
    25   11   37 1   
    26   12   13 ar  
    27   12   16 1   
    28   13   26 1   
    29   14   15 1   
    30   14   23 1   
    31   14   24 1   
    32   15   27 1   
    33   15   28 1   
    34   16   38 1   
    35   16   39 1   
    36   16   40 1   
    37   17   18 1   
    38   17   29 1   
    39   17   30 1   
    40   18   41 1   
    41   18   42 1   
    42   18   43 1   
    43   19   31 1   
    44   19   32 1   
@<TRIPOS>SUBSTRUCTURE
     1 Q4Q         1 TEMP              0 ****  ****    0 ROOT
