@<TRIPOS>MOLECULE
Q4Q
   45    44     1     0     0
SMALL
bcc


@<TRIPOS>ATOM
      1 S          -0.4690   -0.5940   -1.1710 s4        1 Q4Q      1.571500
      2 N1          1.9190   -0.6980   -0.5050 n3        1 Q4Q     -0.990800
      3 O1         -0.4900    0.7180   -0.8390 o         1 Q4Q     -0.407900
      4 C2         -3.0310   -2.7100   -1.2210 ca        1 Q4Q     -0.079500
      5 N2          5.0160    0.6120   -2.3620 n4        1 Q4Q     -0.689400
      6 O2         -0.1240   -1.0190   -2.4100 o         1 Q4Q     -0.407900
      7 C3         -2.5040   -1.7510   -0.3400 ca        1 Q4Q     -0.245300
      8 C4         -1.0320   -1.6850   -0.0990 c3        1 Q4Q     -0.356800
      9 C6          5.4780    0.5140   -4.8400 c3        1 Q4Q     -0.139600
     10 C7         -3.3760   -0.9280    0.3930 ca        1 Q4Q     -0.079500
     11 C8         -4.7480   -1.0300    0.2070 ca        1 Q4Q     -0.126000
     12 C9         -5.2810   -1.9700   -0.6910 ca        1 Q4Q      0.024700
     13 C10        -4.4040   -2.8070   -1.4020 ca        1 Q4Q     -0.126000
     14 C11         2.7070   -0.0750   -1.5540 c3        1 Q4Q      0.106800
     15 C12         4.2310   -0.0830   -1.2990 c3        1 Q4Q      0.069800
     16 C08        -6.7430   -2.0940   -0.8660 c3        1 Q4Q     -0.088800
     17 C13         6.3560    1.0580   -1.8270 c3        1 Q4Q      0.111800
     18 C14         6.2830    2.3140   -0.9880 c3        1 Q4Q     -0.139600
     19 C17         5.1960   -0.2660   -3.5740 c3        1 Q4Q      0.111800
     20 H1          2.0220   -0.1950    0.3620 hn        1 Q4Q      0.403800
     21 H41C       -0.8660   -1.4310    0.9930 h1        1 Q4Q      0.187700
     22 H42C       -0.6110   -2.7310   -0.1950 h1        1 Q4Q      0.187700
     23 H111        2.3520    0.9930   -1.6580 h1        1 Q4Q      0.100700
     24 H112        2.4760   -0.6180   -2.5180 h1        1 Q4Q      0.100700
     25 H2         -2.3620   -3.3970   -1.7640 ha        1 Q4Q      0.147000
     26 H10        -4.8140   -3.5580   -2.0990 ha        1 Q4Q      0.173500
     27 H121        4.6080   -1.1440   -1.2280 hx        1 Q4Q      0.112200
     28 H122        4.4460    0.4350   -0.3170 hx        1 Q4Q      0.112200
     29 H131        6.7890    0.2040   -1.2320 hx        1 Q4Q      0.107950
     30 H132        7.0220    1.2440   -2.7210 hx        1 Q4Q      0.107950
     31 H171        4.2480   -0.8640   -3.7070 hx        1 Q4Q      0.107950
     32 H172        6.0410   -0.9800   -3.3560 hx        1 Q4Q      0.107950
     33 H7         -2.9790   -0.2050    1.1240 ha        1 Q4Q      0.147000
     34 H61C        4.6550    1.2310   -5.0820 hc        1 Q4Q      0.086033
     35 H62C        5.5560   -0.2210   -5.6840 hc        1 Q4Q      0.086033
     36 H63C        6.4430    1.0750   -4.7860 hc        1 Q4Q      0.086033
     37 H8         -5.4290   -0.3770    0.7800 ha        1 Q4Q      0.173500
     38 H081       -7.2550   -1.1130   -0.6980 hc        1 Q4Q      0.078700
     39 H082       -6.9990   -2.4590   -1.8920 hc        1 Q4Q      0.078700
     40 H083       -7.1490   -2.8300   -0.1230 hc        1 Q4Q      0.078700
     41 H141        5.8530    3.1740   -1.5580 hc        1 Q4Q      0.086033
     42 H142        7.3320    2.5880   -0.6940 hc        1 Q4Q      0.086033
     43 H143        5.6940    2.1660   -0.0510 hc        1 Q4Q      0.086033
     44 H12         2.2100   -1.6510   -0.3600 hn        1 Q4Q      0.403800
     45 H21         4.5010    1.4560   -2.6520 hn        1 Q4Q      0.448800
@<TRIPOS>BOND
     1    1    3 1   
     2    1    6 1   
     3    1    8 1   
     4    2   14 1   
     5    2   20 1   
     6    2   44 1   
     7    4    7 ar  
     8    4   13 ar  
     9    4   25 1   
    10    5   15 1   
    11    5   17 1   
    12    5   19 1   
    13    5   45 1   
    14    7    8 1   
    15    7   10 ar  
    16    8   21 1   
    17    8   22 1   
    18    9   19 1   
    19    9   34 1   
    20    9   35 1   
    21    9   36 1   
    22   10   11 ar  
    23   10   33 1   
    24   11   12 ar  
    25   11   37 1   
    26   12   13 ar  
    27   12   16 1   
    28   13   26 1   
    29   14   15 1   
    30   14   23 1   
    31   14   24 1   
    32   15   27 1   
    33   15   28 1   
    34   16   38 1   
    35   16   39 1   
    36   16   40 1   
    37   17   18 1   
    38   17   29 1   
    39   17   30 1   
    40   18   41 1   
    41   18   42 1   
    42   18   43 1   
    43   19   31 1   
    44   19   32 1   
@<TRIPOS>SUBSTRUCTURE
     1 Q4Q         1 TEMP              0 ****  ****    0 ROOT
