@<TRIPOS>MOLECULE
Q4Q
   43    38     1     0     0
SMALL
bcc


@<TRIPOS>ATOM
      1 S          -0.9240   -0.4830   -0.4200 ss        1 Q4Q      2.800000
      2 N1          0.7440   -0.4730   -0.3800 n2        1 Q4Q     -0.901000
      3 O1         -1.4270   -1.5510   -1.2850 o         1 Q4Q     -0.929000
      4 C2         -4.0990   -0.2220    1.2460 c1        1 Q4Q     -0.118000
      5 N2          3.7560    1.2400   -1.0160 n3        1 Q4Q     -0.290000
      6 O2         -1.4290    0.6600   -1.0750 o         1 Q4Q     -0.929000
      7 C3         -3.0580   -1.1260    1.2060 c1        1 Q4Q     -0.069000
      8 C4         -1.5970   -0.6250    1.2730 c2        1 Q4Q     -0.793000
      9 C6          5.2120    2.3960   -2.5510 c3        1 Q4Q     -0.213500
     10 C7         -3.3210   -2.4710    1.1820 c1        1 Q4Q     -0.118000
     11 C8         -4.6250   -2.9200    1.1970 c1        1 Q4Q     -0.126000
     12 C9         -5.6590   -2.0230    1.2370 c1        1 Q4Q     -0.062000
     13 C10        -5.3970   -0.6700    1.2610 c1        1 Q4Q     -0.118000
     14 C11         1.5030    0.2420   -1.4190 c3        1 Q4Q     -0.013000
     15 C12         3.0500   -0.0350   -1.2250 c3        1 Q4Q     -0.069000
     16 C08        -7.1340   -2.5430    1.4450 c3        1 Q4Q     -0.181000
     17 C13         3.9080    1.4820    0.4050 c3        1 Q4Q     -0.057000
     18 C14         3.2450    2.8490    0.7740 c3        1 Q4Q     -0.213500
     19 C17         5.0330    1.1820   -1.6240 c3        1 Q4Q     -0.057000
     20 H1          1.1800   -0.9110    0.2720 hn        1 Q4Q      0.255000
     21 H41C       -1.0490   -1.2680    1.7960 ha        1 Q4Q      0.148000
     22 H42C       -1.5740    0.2620    1.7120 ha        1 Q4Q      0.148000
     23 H111        1.2180   -0.0790   -2.3170 h1        1 Q4Q      0.093000
     24 H112        1.3310    1.1970   -1.3450 h1        1 Q4Q      0.093000
     25 H2         -3.9070    0.7690    1.2650 ha        1 Q4Q      0.132000
     26 H10        -6.1620   -0.0060    1.2910 ha        1 Q4Q      0.132000
     27 H121        3.1810   -0.6080   -0.4510 h1        1 Q4Q      0.083000
     28 H122        3.4080   -0.4840   -2.0320 h1        1 Q4Q      0.083000
     29 H131        4.8930    1.5100    0.6410 h1        1 Q4Q      0.070000
     30 H132        3.4750    0.7640    0.9060 h1        1 Q4Q      0.070000
     31 H171        5.1110    0.3510   -2.1500 h1        1 Q4Q      0.070000
     32 H172        5.7430    1.1970   -0.9130 h1        1 Q4Q      0.070000
     33 H7         -2.5460   -3.1450    1.1520 ha        1 Q4Q      0.154000
     34 H61C        4.3660    2.9290   -2.5660 hc        1 Q4Q      0.078000
     35 H62C        5.4220    2.0870   -3.4610 hc        1 Q4Q      0.078000
     36 H63C        5.9470    2.9580   -2.2190 hc        1 Q4Q      0.078000
     37 H8         -4.8130   -3.8840    1.1790 ha        1 Q4Q      0.135000
     38 H081       -7.6450   -1.8880    1.9850 hc        1 Q4Q      0.084667
     39 H082       -7.1110   -3.4040    1.9110 hc        1 Q4Q      0.084667
     40 H083       -7.5700   -2.6560    0.5650 hc        1 Q4Q      0.084667
     41 H141        2.3990    2.9410    0.2980 hc        1 Q4Q      0.078000
     42 H142        3.0830    2.8810    1.7260 hc        1 Q4Q      0.078000
     43 H143        3.8390    3.5750    0.5220 hc        1 Q4Q      0.078000
@<TRIPOS>BOND
     1    1    3 1   
     2    1    6 1   
     3    2   14 1   
     4    2   20 1   
     5    4   13 1   
     6    4   25 1   
     7    5   15 1   
     8    5   17 1   
     9    5   19 1   
    10    7    8 1   
    11    7   10 1   
    12    8   21 1   
    13    8   22 1   
    14    9   19 1   
    15    9   34 1   
    16    9   35 1   
    17    9   36 1   
    18   10   33 1   
    19   11   12 1   
    20   11   37 1   
    21   12   16 1   
    22   13   26 1   
    23   14   15 1   
    24   14   23 1   
    25   14   24 1   
    26   15   27 1   
    27   15   28 1   
    28   16   38 1   
    29   16   39 1   
    30   16   40 1   
    31   17   18 1   
    32   17   29 1   
    33   17   30 1   
    34   18   41 1   
    35   18   42 1   
    36   18   43 1   
    37   19   31 1   
    38   19   32 1   
@<TRIPOS>SUBSTRUCTURE
     1 Q4Q         1 TEMP              0 ****  ****    0 ROOT
