@<TRIPOS>MOLECULE
Q67
   45    48     1     0     0
SMALL
bcc


@<TRIPOS>ATOM
      1 O13         0.4760   -1.5860    0.4530 o         1 Q67     -0.585100
      2 C12         1.5420   -0.9610    0.3150 c         1 Q67      0.626100
      3 C10         2.6000   -0.9450    1.4580 c3        1 Q67      0.137500
      4 C11         3.5200   -2.1430    1.2040 c3        1 Q67     -0.099100
      5 N1          1.9990   -1.0050    2.7760 nu        1 Q67     -0.705600
      6 C4          1.6430    0.2050    3.4050 ca        1 Q67      0.144600
      7 C3          2.5710    1.2680    3.4980 ca        1 Q67     -0.162000
      8 C2          2.2610    2.4250    4.2020 ca        1 Q67     -0.095000
      9 C5          0.3920    0.3530    4.0620 ca        1 Q67     -0.033600
     10 Cl2        -0.7590   -0.8950    3.9880 cl        1 Q67     -0.061400
     11 C6          0.1040    1.5230    4.7770 ca        1 Q67      0.047400
     12 Cl1        -1.3830    1.7100    5.5740 cl        1 Q67     -0.068400
     13 C1          1.0340    2.5630    4.8440 ca        1 Q67     -0.146000
     14 N2          1.8810   -0.2650   -0.8320 ns        1 Q67     -0.466100
     15 C15         1.1400   -0.1740   -2.0260 ca        1 Q67      0.056600
     16 C20         1.8120    0.3080   -3.1750 ca        1 Q67     -0.128000
     17 C19         1.0850    0.4260   -4.3560 ca        1 Q67      0.081400
     18 N3          1.4510    0.8660   -5.6490 nc        1 Q67     -0.550100
     19 C22         0.3470    0.7600   -6.3870 cd        1 Q67      0.590200
     20 O21        -0.7840    0.2650   -5.6700 os        1 Q67     -0.305700
     21 C18        -0.3020    0.0560   -4.3790 ca        1 Q67      0.015100
     22 C17        -0.9700   -0.4190   -3.2630 ca        1 Q67     -0.088000
     23 C16        -0.2340   -0.5270   -2.0860 ca        1 Q67     -0.128000
     24 C24         0.1190    1.0680   -7.7900 ca        1 Q67     -0.083900
     25 C29         1.1630    1.5600   -8.5870 ca        1 Q67     -0.204800
     26 C28         0.8900    1.8420   -9.9380 ca        1 Q67      0.386700
     27 N4         -0.3160    1.6660  -10.5100 nb        1 Q67     -0.647000
     28 C26        -1.3070    1.1920   -9.7300 ca        1 Q67      0.386700
     29 C25        -1.1450    0.8780   -8.3690 ca        1 Q67     -0.204800
     30 H1          3.2170   -0.0010    1.3860 h1        1 Q67      0.071700
     31 H2          2.9420   -3.0980    1.2160 hc        1 Q67      0.055033
     32 H3          4.0030   -2.0260    0.2050 hc        1 Q67      0.055033
     33 H4          4.3140   -2.1950    1.9870 hc        1 Q67      0.055033
     34 H5          1.2740   -1.7020    2.8140 hn        1 Q67      0.422800
     35 H6          3.5630    1.1800    3.0290 ha        1 Q67      0.139000
     36 H7          3.0000    3.2390    4.2590 ha        1 Q67      0.141000
     37 H8          0.7980    3.4820    5.4020 ha        1 Q67      0.153000
     38 H9          2.7870    0.1480   -0.8620 hn        1 Q67      0.317500
     39 H10         2.8750    0.5890   -3.1530 ha        1 Q67      0.151000
     40 H11        -2.0320   -0.6970   -3.2990 ha        1 Q67      0.159000
     41 H12        -0.7470   -0.9020   -1.1830 ha        1 Q67      0.181000
     42 H13         2.1690    1.7240   -8.1740 ha        1 Q67      0.164500
     43 H14         1.6850    2.2310  -10.6000 h4        1 Q67      0.029100
     44 H15        -2.2860    1.0580  -10.2240 h4        1 Q67      0.029100
     45 H16        -1.9860    0.4940   -7.7750 ha        1 Q67      0.164500
@<TRIPOS>BOND
     1    1    2 2   
     2    2    3 1   
     3    2   14 1   
     4    3    4 1   
     5    3    5 1   
     6    3   30 1   
     7    4   31 1   
     8    4   32 1   
     9    4   33 1   
    10    5    6 1   
    11    5   34 1   
    12    6    7 ar  
    13    6    9 ar  
    14    7    8 ar  
    15    7   35 1   
    16    8   13 ar  
    17    8   36 1   
    18    9   10 1   
    19    9   11 ar  
    20   11   12 1   
    21   11   13 ar  
    22   13   37 1   
    23   14   15 1   
    24   14   38 1   
    25   15   16 ar  
    26   15   23 ar  
    27   16   17 ar  
    28   16   39 1   
    29   17   18 1   
    30   17   21 ar  
    31   18   19 2   
    32   19   20 1   
    33   19   24 1   
    34   20   21 1   
    35   21   22 ar  
    36   22   23 ar  
    37   22   40 1   
    38   23   41 1   
    39   24   25 ar  
    40   24   29 ar  
    41   25   26 ar  
    42   25   42 1   
    43   26   27 ar  
    44   26   43 1   
    45   27   28 ar  
    46   28   29 ar  
    47   28   44 1   
    48   29   45 1   
@<TRIPOS>SUBSTRUCTURE
     1 Q67         1 TEMP              0 ****  ****    0 ROOT
