@<TRIPOS>MOLECULE
Q6T
   17    18     1     0     0
SMALL
bcc


@<TRIPOS>ATOM
      1 OAA         0.7750   -1.1050    0.4490 o         1 Q6T     -0.815300
      2 C10         1.2550   -0.0050    0.0670 c         1 Q6T      0.923200
      3 OAB         1.0880    1.1020    0.6450 o         1 Q6T     -0.815300
      4 CAD         2.0690   -0.0050   -1.2240 ca        1 Q6T     -0.067600
      5 CAK         3.4370   -0.1940   -1.2970 ca        1 Q6T      0.060100
      6 CAL         4.1360   -0.1820   -2.5330 ca        1 Q6T      0.032100
      7 OAH         5.4960   -0.3970   -2.3020 os        1 Q6T     -0.360900
      8 CAF         5.6490   -0.5460   -0.8750 c3        1 Q6T      0.319200
      9 OAG         4.3540   -0.4160   -0.2650 os        1 Q6T     -0.315900
     10 CAE         3.4990    0.0170   -3.7400 ca        1 Q6T     -0.153000
     11 CAJ         2.1070    0.2090   -3.6740 ca        1 Q6T     -0.155000
     12 CAC         1.4230    0.1980   -2.4630 ca        1 Q6T     -0.120000
     13 HAJ         1.5540    0.3710   -4.6100 ha        1 Q6T      0.110000
     14 HAE         4.0400    0.0250   -4.6910 ha        1 Q6T      0.126000
     15 HAC         0.3330    0.3520   -2.4470 ha        1 Q6T      0.137000
     16 HAF1        6.0470   -1.5700   -0.6650 h2        1 Q6T      0.047700
     17 HAF2        6.3100    0.2740   -0.5000 h2        1 Q6T      0.047700
@<TRIPOS>BOND
     1    1    2 1   
     2    2    3 1   
     3    2    4 1   
     4    4    5 ar  
     5    4   12 ar  
     6    5    6 ar  
     7    5    9 1   
     8    6    7 1   
     9    6   10 ar  
    10    7    8 1   
    11    8    9 1   
    12    8   16 1   
    13    8   17 1   
    14   10   11 ar  
    15   10   14 1   
    16   11   12 ar  
    17   11   13 1   
    18   12   15 1   
@<TRIPOS>SUBSTRUCTURE
     1 Q6T         1 TEMP              0 ****  ****    0 ROOT
