@<TRIPOS>MOLECULE
Q6T
   17    18     1     0     0
SMALL
bcc


@<TRIPOS>ATOM
      1 OAA         0.2110   -0.6930    0.0760 o         1 Q6T     -0.816800
      2 C10         1.2520    0.0210    0.0660 c         1 Q6T      0.920200
      3 OAB         1.6330    0.7560    1.0140 o         1 Q6T     -0.816800
      4 CAD         2.0760    0.0150   -1.2170 ca        1 Q6T     -0.079600
      5 CAK         3.4380   -0.2160   -1.2970 ca        1 Q6T      0.068100
      6 CAL         4.1350   -0.1910   -2.5340 ca        1 Q6T      0.025100
      7 OAH         5.4880   -0.4590   -2.3140 os        1 Q6T     -0.361900
      8 CAF         5.6380   -0.6560   -0.8920 c3        1 Q6T      0.317200
      9 OAG         4.3460   -0.5130   -0.2770 os        1 Q6T     -0.308900
     10 CAE         3.5050    0.0650   -3.7340 ca        1 Q6T     -0.149000
     11 CAJ         2.1180    0.2930   -3.6620 ca        1 Q6T     -0.162000
     12 CAC         1.4350    0.2630   -2.4510 ca        1 Q6T     -0.114000
     13 HAJ         1.5700    0.4950   -4.5920 ha        1 Q6T      0.111000
     14 HAE         4.0460    0.0860   -4.6840 ha        1 Q6T      0.125000
     15 HAC         0.3460    0.4230   -2.4230 ha        1 Q6T      0.146000
     16 HAF1        6.3200    0.1340   -0.4920 h2        1 Q6T      0.047200
     17 HAF2        6.0090   -1.6960   -0.7150 h2        1 Q6T      0.047200
@<TRIPOS>BOND
     1    1    2 1   
     2    2    3 1   
     3    2    4 1   
     4    4    5 ar  
     5    4   12 ar  
     6    5    6 ar  
     7    5    9 1   
     8    6    7 1   
     9    6   10 ar  
    10    7    8 1   
    11    8    9 1   
    12    8   16 1   
    13    8   17 1   
    14   10   11 ar  
    15   10   14 1   
    16   11   12 ar  
    17   11   13 1   
    18   12   15 1   
@<TRIPOS>SUBSTRUCTURE
     1 Q6T         1 TEMP              0 ****  ****    0 ROOT
