@<TRIPOS>MOLECULE
Q6T
   17    18     1     0     0
SMALL
bcc


@<TRIPOS>ATOM
      1 OAA         2.7370    0.6500   -1.1100 o         1 Q6T     -0.815300
      2 C10         2.1620    0.4910   -0.0000 c         1 Q6T      0.923200
      3 OAB         2.6000    0.8950    1.1100 o         1 Q6T     -0.815300
      4 CAD         0.8520   -0.2900    0.0060 ca        1 Q6T     -0.067600
      5 CAK        -0.4050    0.2710   -0.1340 ca        1 Q6T      0.060100
      6 CAL        -1.5880   -0.5140   -0.1190 ca        1 Q6T      0.032100
      7 OAH        -2.7000    0.3150   -0.2800 os        1 Q6T     -0.360900
      8 CAF        -2.1920    1.6610   -0.3970 c3        1 Q6T      0.319200
      9 OAG        -0.7590    1.6130   -0.3040 os        1 Q6T     -0.315900
     10 CAE        -1.5640   -1.8850    0.0340 ca        1 Q6T     -0.153000
     11 CAJ        -0.2890   -2.4620    0.1760 ca        1 Q6T     -0.155000
     12 CAC         0.8690   -1.6930    0.1620 ca        1 Q6T     -0.120000
     13 HAJ        -0.2180   -3.5520    0.3010 ha        1 Q6T      0.110000
     14 HAE        -2.4770   -2.4870    0.0450 ha        1 Q6T      0.126000
     15 HAC         1.8510   -2.1780    0.2770 ha        1 Q6T      0.137000
     16 HAF1       -2.4770    2.0620   -1.4020 h2        1 Q6T      0.047700
     17 HAF2       -2.5910    2.2680    0.4530 h2        1 Q6T      0.047700
@<TRIPOS>BOND
     1    1    2 1   
     2    2    3 1   
     3    2    4 1   
     4    4    5 ar  
     5    4   12 ar  
     6    5    6 ar  
     7    5    9 1   
     8    6    7 1   
     9    6   10 ar  
    10    7    8 1   
    11    8    9 1   
    12    8   16 1   
    13    8   17 1   
    14   10   11 ar  
    15   10   14 1   
    16   11   12 ar  
    17   11   13 1   
    18   12   15 1   
@<TRIPOS>SUBSTRUCTURE
     1 Q6T         1 TEMP              0 ****  ****    0 ROOT
