@<TRIPOS>MOLECULE
Q6W
   70    75     1     0     0
SMALL
bcc


@<TRIPOS>ATOM
      1 C           0.2160   -0.5240    0.4260 ca        1 Q6W     -0.249900
      2 N           2.1530    0.0370   -0.9140 nb        1 Q6W     -0.650000
      3 O          -1.4890   -0.3360    2.0710 o         1 Q6W     -0.527100
      4 C1          1.5990   -0.2650    0.2980 ca        1 Q6W      0.466100
      5 C2          2.5050   -0.2470    1.4470 cc        1 Q6W     -0.174800
      6 C3          2.4520   -1.0300    2.5330 cd        1 Q6W     -0.133200
      7 C4          1.4920   -2.0710    2.8370 ca        1 Q6W      0.015200
      8 C5          0.1400   -2.0020    2.4720 ca        1 Q6W     -0.140600
      9 C6         -0.4380   -0.8760    1.7000 c         1 Q6W      0.602300
     10 C7         -0.6040   -0.4360   -0.7120 ca        1 Q6W     -0.070000
     11 C8         -0.0420   -0.1390   -1.9570 ca        1 Q6W     -0.074300
     12 C9          1.3630    0.0820   -1.9870 ca        1 Q6W      0.418200
     13 C10         1.9340   -3.1850    3.5800 ca        1 Q6W     -0.121000
     14 C11         1.0560   -4.1920    3.9550 ca        1 Q6W     -0.096000
     15 C12        -0.2990   -4.1080    3.6080 ca        1 Q6W     -0.129300
     16 C13        -0.7450   -3.0170    2.8640 ca        1 Q6W     -0.089000
     17 C14        -0.8320   -0.0500   -3.1450 cc        1 Q6W     -0.239300
     18 C15        -1.2600   -5.1630    4.0250 c3        1 Q6W     -0.023100
     19 C16        -2.1790   -4.6160    5.1110 c3        1 Q6W     -0.154400
     20 C17        -3.2860   -5.5790    5.4100 c         1 Q6W      0.547100
     21 N18        -4.3750   -5.0520    6.3320 n4        1 Q6W     -0.677800
     22 O19        -3.4410   -6.7280    5.0350 o         1 Q6W     -0.401100
     23 C20        -0.3980    0.1510   -4.4740 cd        1 Q6W     -0.108300
     24 N21        -1.5410    0.1640   -5.2720 na        1 Q6W      0.104400
     25 N22        -2.6600   -0.0100   -4.5470 nd        1 Q6W     -0.501800
     26 C23        -2.2770   -0.1440   -3.2550 cc        1 Q6W      0.313200
     27 C24        -1.5340    0.3570   -6.7260 c3        1 Q6W      0.059000
     28 C25        -0.7610   -0.7580   -7.4470 c3        1 Q6W     -0.093400
     29 C26        -0.7980   -0.5190   -8.9560 c3        1 Q6W      0.163800
     30 N27        -0.3120    0.7930   -9.3310 n3        1 Q6W     -0.825200
     31 C28        -0.9800    1.8770   -8.6390 c3        1 Q6W      0.163800
     32 C29        -0.9490    1.7220   -7.1190 c3        1 Q6W     -0.093400
     33 C30        -5.4340   -4.3330    5.5610 c3        1 Q6W      0.075500
     34 C31        -6.5640   -3.8140    6.4150 ca        1 Q6W      0.325600
     35 N32        -6.3900   -3.7080    7.7590 nb        1 Q6W     -0.709000
     36 C33        -7.4070   -3.2110    8.4780 ca        1 Q6W      0.425200
     37 C34        -8.6300   -2.7950    7.9070 ca        1 Q6W     -0.203300
     38 C35        -8.7940   -2.9110    6.5290 ca        1 Q6W     -0.071000
     39 C36        -7.7470   -3.4320    5.7590 ca        1 Q6W     -0.204300
     40 H2          3.3360    0.4830    1.3640 ha        1 Q6W      0.161000
     41 H3          3.2420   -0.9100    3.3010 ha        1 Q6W      0.144000
     42 H7         -1.6890   -0.5980   -0.6120 ha        1 Q6W      0.150000
     43 H9          1.8700    0.3180   -2.9420 h4        1 Q6W      0.031100
     44 H10         2.9980   -3.2530    3.8610 ha        1 Q6W      0.153000
     45 H11         1.4270   -5.0590    4.5240 ha        1 Q6W      0.141000
     46 H13        -1.8040   -2.9370    2.5730 ha        1 Q6W      0.134000
     47 H15        -0.7190   -6.0670    4.4110 hc        1 Q6W      0.075700
     48 H15A       -1.8730   -5.4930    3.1430 hc        1 Q6W      0.075700
     49 H16        -1.5890   -4.4370    6.0530 hc        1 Q6W      0.107700
     50 H16A       -2.6070   -3.6280    4.7800 hc        1 Q6W      0.107700
     51 HN18       -4.8120   -5.8350    6.8380 hn        1 Q6W      0.469300
     52 H20         0.6030    0.2790   -4.8880 h4        1 Q6W      0.184000
     53 H23        -2.9990   -0.2920   -2.4530 h4        1 Q6W      0.042100
     54 H24        -2.6110    0.3210   -7.0770 h1        1 Q6W      0.091700
     55 H25         0.3020   -0.7830   -7.0910 hc        1 Q6W      0.060700
     56 H25A       -1.2240   -1.7550   -7.2320 hc        1 Q6W      0.060700
     57 H26        -0.1350   -1.2800   -9.4560 h1        1 Q6W      0.037950
     58 H26A       -1.8560   -0.7000   -9.3130 h1        1 Q6W      0.037950
     59 HN27       -0.3780    0.9190  -10.3230 hn        1 Q6W      0.375800
     60 H28        -2.0590    1.9870   -8.9600 h1        1 Q6W      0.037950
     61 H28A       -0.4450    2.8310   -8.9130 h1        1 Q6W      0.037950
     62 H29        -1.5510    2.5490   -6.6640 hc        1 Q6W      0.060700
     63 H29A        0.1040    1.8120   -6.7480 hc        1 Q6W      0.060700
     64 H30        -4.9470   -3.4610    5.0320 hx        1 Q6W      0.112200
     65 H30A       -5.8460   -5.0510    4.7920 hx        1 Q6W      0.112200
     66 H33        -7.2340   -3.1390    9.5690 h4        1 Q6W      0.048100
     67 H34        -9.4280   -2.3900    8.5480 ha        1 Q6W      0.174000
     68 H35        -9.7340   -2.5990    6.0450 ha        1 Q6W      0.169000
     69 H36        -7.8500   -3.5360    4.6700 ha        1 Q6W      0.159000
     70 H182       -3.9660   -4.4140    7.0240 hn        1 Q6W      0.469300
@<TRIPOS>BOND
     1    1    4 ar  
     2    1    9 1   
     3    1   10 ar  
     4    2    4 ar  
     5    2   12 ar  
     6    3    9 2   
     7    4    5 1   
     8    5    6 2   
     9    5   40 1   
    10    6    7 1   
    11    6   41 1   
    12    7    8 ar  
    13    7   13 ar  
    14    8    9 1   
    15    8   16 ar  
    16   10   11 ar  
    17   10   42 1   
    18   11   12 ar  
    19   11   17 1   
    20   12   43 1   
    21   13   14 ar  
    22   13   44 1   
    23   14   15 ar  
    24   14   45 1   
    25   15   16 ar  
    26   15   18 1   
    27   16   46 1   
    28   17   23 2   
    29   17   26 1   
    30   18   19 1   
    31   18   47 1   
    32   18   48 1   
    33   19   20 1   
    34   19   49 1   
    35   19   50 1   
    36   20   21 1   
    37   20   22 2   
    38   21   33 1   
    39   21   51 1   
    40   21   70 1   
    41   23   24 1   
    42   23   52 1   
    43   24   25 1   
    44   24   27 1   
    45   25   26 2   
    46   26   53 1   
    47   27   28 1   
    48   27   32 1   
    49   27   54 1   
    50   28   29 1   
    51   28   55 1   
    52   28   56 1   
    53   29   30 1   
    54   29   57 1   
    55   29   58 1   
    56   30   31 1   
    57   30   59 1   
    58   31   32 1   
    59   31   60 1   
    60   31   61 1   
    61   32   62 1   
    62   32   63 1   
    63   33   34 1   
    64   33   64 1   
    65   33   65 1   
    66   34   35 ar  
    67   34   39 ar  
    68   35   36 ar  
    69   36   37 ar  
    70   36   66 1   
    71   37   38 ar  
    72   37   67 1   
    73   38   39 ar  
    74   38   68 1   
    75   39   69 1   
@<TRIPOS>SUBSTRUCTURE
     1 Q6W         1 TEMP              0 ****  ****    0 ROOT
