@<TRIPOS>MOLECULE
Q6W
   70    75     1     0     0
SMALL
bcc


@<TRIPOS>ATOM
      1 C           0.1990   -0.4960    0.4320 ca        1 Q6W     -0.249900
      2 N           2.1350    0.0860   -0.9020 nb        1 Q6W     -0.650000
      3 O          -1.5130   -0.3270    2.0700 o         1 Q6W     -0.527100
      4 C1          1.5800   -0.2220    0.3080 ca        1 Q6W      0.466100
      5 C2          2.4810   -0.1930    1.4610 cc        1 Q6W     -0.174800
      6 C3          2.4330   -0.9770    2.5470 cd        1 Q6W     -0.133200
      7 C4          1.4840   -2.0290    2.8480 ca        1 Q6W      0.015200
      8 C5          0.1320   -1.9750    2.4770 ca        1 Q6W     -0.140600
      9 C6         -0.4560   -0.8550    1.7030 c         1 Q6W      0.602300
     10 C7         -0.6170   -0.4180   -0.7100 ca        1 Q6W     -0.070000
     11 C8         -0.0540   -0.1150   -1.9530 ca        1 Q6W     -0.074300
     12 C9          1.3490    0.1220   -1.9780 ca        1 Q6W      0.418200
     13 C10         1.9360   -3.1370    3.5920 ca        1 Q6W     -0.121000
     14 C11         1.0680   -4.1540    3.9640 ca        1 Q6W     -0.096000
     15 C12        -0.2870   -4.0850    3.6120 ca        1 Q6W     -0.129300
     16 C13        -0.7420   -2.9990    2.8660 ca        1 Q6W     -0.089000
     17 C14        -0.8400   -0.0350   -3.1430 cc        1 Q6W     -0.239300
     18 C15        -1.2380   -5.1510    4.0260 c3        1 Q6W     -0.023100
     19 C16        -2.1660   -4.6140    5.1090 c3        1 Q6W     -0.154400
     20 C17        -3.2640   -5.5880    5.4030 c         1 Q6W      0.547100
     21 N18        -4.3600   -5.0750    6.3240 ny        1 Q6W     -0.677800
     22 O19        -3.4080   -6.7390    5.0240 o         1 Q6W     -0.401100
     23 C20        -0.4030    0.1690   -4.4710 cd        1 Q6W     -0.108300
     24 N21        -1.5440    0.1690   -5.2740 na        1 Q6W      0.104400
     25 N22        -2.6630   -0.0160   -4.5530 nd        1 Q6W     -0.501800
     26 C23        -2.2840   -0.1450   -3.2590 cc        1 Q6W      0.313200
     27 C24        -1.5340    0.3600   -6.7280 c3        1 Q6W      0.059000
     28 C25        -0.7460   -0.7480   -7.4440 c3        1 Q6W     -0.093400
     29 C26        -0.7810   -0.5110   -8.9540 c3        1 Q6W      0.163800
     30 N27        -0.3060    0.8050   -9.3290 n7        1 Q6W     -0.825200
     31 C28        -0.9870    1.8830   -8.6410 c3        1 Q6W      0.163800
     32 C29        -0.9600    1.7300   -7.1210 c3        1 Q6W     -0.093400
     33 C30        -5.4230   -4.3630    5.5530 c3        1 Q6W      0.075500
     34 C31        -6.5600   -3.8560    6.4070 ca        1 Q6W      0.325600
     35 N32        -6.3910   -3.7560    7.7520 nb        1 Q6W     -0.709000
     36 C33        -7.4130   -3.2700    8.4700 ca        1 Q6W      0.425200
     37 C34        -8.6380   -2.8600    7.8980 ca        1 Q6W     -0.203300
     38 C35        -8.7970   -2.9710    6.5190 ca        1 Q6W     -0.071000
     39 C36        -7.7440   -3.4810    5.7490 ca        1 Q6W     -0.204300
     40 H2          3.3050    0.5460    1.3810 ha        1 Q6W      0.161000
     41 H3          3.2190   -0.8470    3.3170 ha        1 Q6W      0.144000
     42 H7         -1.7010   -0.5920   -0.6130 ha        1 Q6W      0.150000
     43 H9          1.8560    0.3630   -2.9310 h4        1 Q6W      0.031100
     44 H10         2.9990   -3.1940    3.8770 ha        1 Q6W      0.153000
     45 H11         1.4470   -5.0170    4.5340 ha        1 Q6W      0.141000
     46 H13        -1.8020   -2.9310    2.5720 ha        1 Q6W      0.134000
     47 H15        -1.8440   -5.4870    3.1410 hc        1 Q6W      0.075700
     48 H15A       -0.6880   -6.0500    4.4130 hc        1 Q6W      0.075700
     49 H16        -1.5810   -4.4310    6.0530 hc        1 Q6W      0.107700
     50 H16A       -2.6030   -3.6310    4.7770 hc        1 Q6W      0.107700
     51 HN18       -4.7910   -5.8640    6.8270 hn        1 Q6W      0.469300
     52 H20         0.5970    0.3060   -4.8820 h4        1 Q6W      0.184000
     53 H23        -3.0070   -0.2990   -2.4590 h4        1 Q6W      0.042100
     54 H24        -2.6090    0.3130   -7.0830 h1        1 Q6W      0.091700
     55 H25         0.3150   -0.7620   -7.0850 hc        1 Q6W      0.060700
     56 H25A       -1.2000   -1.7490   -7.2300 hc        1 Q6W      0.060700
     57 H26        -0.1080   -1.2660   -9.4500 h1        1 Q6W      0.037950
     58 H26A       -1.8350   -0.7040   -9.3150 h1        1 Q6W      0.037950
     59 HN27       -0.3700    0.9290  -10.3210 hn        1 Q6W      0.375800
     60 H28        -2.0660    1.9820   -8.9650 h1        1 Q6W      0.037950
     61 H28A       -0.4610    2.8420   -8.9140 h1        1 Q6W      0.037950
     62 H29         0.0910    1.8310   -6.7450 hc        1 Q6W      0.060700
     63 H29A       -1.5720    2.5520   -6.6680 hc        1 Q6W      0.060700
     64 H30        -5.8280   -5.0820    4.7820 hx        1 Q6W      0.112200
     65 H30A       -4.9430   -3.4850    5.0280 hx        1 Q6W      0.112200
     66 H33        -7.2440   -3.2020    9.5620 h4        1 Q6W      0.048100
     67 H34        -9.4410   -2.4650    8.5380 ha        1 Q6W      0.174000
     68 H35        -9.7380   -2.6640    6.0330 ha        1 Q6W      0.169000
     69 H36        -7.8430   -3.5800    4.6590 ha        1 Q6W      0.159000
     70 H182       -3.9580   -4.4360    7.0200 hn        1 Q6W      0.469300
@<TRIPOS>BOND
     1    1    4 ar  
     2    1    9 1   
     3    1   10 ar  
     4    2    4 ar  
     5    2   12 ar  
     6    3    9 2   
     7    4    5 1   
     8    5    6 2   
     9    5   40 1   
    10    6    7 1   
    11    6   41 1   
    12    7    8 ar  
    13    7   13 ar  
    14    8    9 1   
    15    8   16 ar  
    16   10   11 ar  
    17   10   42 1   
    18   11   12 ar  
    19   11   17 1   
    20   12   43 1   
    21   13   14 ar  
    22   13   44 1   
    23   14   15 ar  
    24   14   45 1   
    25   15   16 ar  
    26   15   18 1   
    27   16   46 1   
    28   17   23 2   
    29   17   26 1   
    30   18   19 1   
    31   18   47 1   
    32   18   48 1   
    33   19   20 1   
    34   19   49 1   
    35   19   50 1   
    36   20   21 1   
    37   20   22 2   
    38   21   33 1   
    39   21   51 1   
    40   21   70 1   
    41   23   24 1   
    42   23   52 1   
    43   24   25 1   
    44   24   27 1   
    45   25   26 2   
    46   26   53 1   
    47   27   28 1   
    48   27   32 1   
    49   27   54 1   
    50   28   29 1   
    51   28   55 1   
    52   28   56 1   
    53   29   30 1   
    54   29   57 1   
    55   29   58 1   
    56   30   31 1   
    57   30   59 1   
    58   31   32 1   
    59   31   60 1   
    60   31   61 1   
    61   32   62 1   
    62   32   63 1   
    63   33   34 1   
    64   33   64 1   
    65   33   65 1   
    66   34   35 ar  
    67   34   39 ar  
    68   35   36 ar  
    69   36   37 ar  
    70   36   66 1   
    71   37   38 ar  
    72   37   67 1   
    73   38   39 ar  
    74   38   68 1   
    75   39   69 1   
@<TRIPOS>SUBSTRUCTURE
     1 Q6W         1 TEMP              0 ****  ****    0 ROOT
