@<TRIPOS>MOLECULE
Q6W
   69    74     1     0     0
SMALL
bcc


@<TRIPOS>ATOM
      1 C           1.4670    2.3670   -0.3070 ca        1 Q6W     -0.248900
      2 N           3.5110    3.3030    0.5950 nb        1 Q6W     -0.661000
      3 O          -0.4120    2.1850   -1.7460 o         1 Q6W     -0.514100
      4 C1          2.1780    3.4160    0.3190 ca        1 Q6W      0.478100
      5 C2          1.5420    4.6910    0.6570 cc        1 Q6W     -0.209800
      6 C3          0.2880    4.8710    1.0920 cd        1 Q6W     -0.101200
      7 C4         -0.7290    3.8640    1.3270 ca        1 Q6W     -0.023800
      8 C5         -0.8790    2.7250    0.5220 ca        1 Q6W     -0.138600
      9 C6          0.0220    2.4380   -0.6170 c         1 Q6W      0.598300
     10 C7          2.1510    1.1950   -0.6660 ca        1 Q6W     -0.061000
     11 C8          3.5120    1.0660   -0.3730 ca        1 Q6W     -0.095300
     12 C9          4.1360    2.1690    0.2700 ca        1 Q6W      0.412200
     13 C10        -1.6320    4.0650    2.3860 ca        1 Q6W     -0.123000
     14 C11        -2.6460    3.1510    2.6440 ca        1 Q6W     -0.108000
     15 C12        -2.8020    2.0180    1.8330 ca        1 Q6W     -0.080300
     16 C13        -1.9180    1.8190    0.7710 ca        1 Q6W     -0.092000
     17 C14         4.2520   -0.1120   -0.7070 cc        1 Q6W     -0.219300
     18 C15        -3.8870    1.0380    2.1030 c3        1 Q6W     -0.032100
     19 C16        -4.9770    1.1180    1.0510 c3        1 Q6W     -0.150400
     20 C17        -6.0660    0.0970    1.3270 c         1 Q6W      0.649100
     21 N18        -7.1410    0.0830    0.4460 n         1 Q6W     -0.546900
     22 O19        -6.0380   -0.6480    2.3260 o         1 Q6W     -0.608100
     23 C20         5.5590   -0.4660   -0.3110 cd        1 Q6W     -0.123300
     24 N21         5.8330   -1.7060   -0.8930 na        1 Q6W      0.094400
     25 N22         4.7970   -2.1550   -1.6240 nd        1 Q6W     -0.504800
     26 C23         3.8200   -1.2210   -1.5380 cc        1 Q6W      0.315200
     27 C24         7.0900   -2.4380   -0.7320 c3        1 Q6W      0.065000
     28 C25         7.3570   -2.8090    0.7350 c3        1 Q6W     -0.131900
     29 C26         8.6750   -3.5810    0.8370 c3        1 Q6W      0.150800
     30 N27         9.8240   -2.9280    0.2450 n3        1 Q6W     -0.799200
     31 C28         9.5680   -2.4720   -1.1060 c3        1 Q6W      0.150800
     32 C29         8.2880   -1.6530   -1.2910 c3        1 Q6W     -0.131900
     33 C30        -8.1220   -0.9630    0.4830 c3        1 Q6W      0.033700
     34 C31        -7.9620   -2.0640   -0.5510 ca        1 Q6W      0.373600
     35 N32        -7.5010   -1.7580   -1.7890 nb        1 Q6W     -0.677000
     36 C33        -7.4080   -2.7580   -2.6830 ca        1 Q6W      0.400200
     37 C34        -7.7650   -4.0910   -2.4060 ca        1 Q6W     -0.246300
     38 C35        -8.2380   -4.3950   -1.1290 ca        1 Q6W     -0.090000
     39 C36        -8.3380   -3.3730   -0.1830 ca        1 Q6W     -0.234300
     40 H2          2.2040    5.5740    0.5640 ha        1 Q6W      0.150000
     41 H3         -0.0360    5.9020    1.3360 ha        1 Q6W      0.136000
     42 H7          1.6080    0.3860   -1.1800 ha        1 Q6W      0.152000
     43 H9          5.2100    2.1280    0.5270 h4        1 Q6W      0.020100
     44 H10        -1.5260    4.9570    3.0220 ha        1 Q6W      0.138000
     45 H11        -3.3340    3.3180    3.4870 ha        1 Q6W      0.139000
     46 H13        -2.0360    0.9420    0.1140 ha        1 Q6W      0.146000
     47 H15        -3.4640   -0.0040    2.1170 hc        1 Q6W      0.069700
     48 H15A       -4.3390    1.2160    3.1150 hc        1 Q6W      0.069700
     49 H16        -5.4280    2.1450    1.0440 hc        1 Q6W      0.071200
     50 H16A       -4.5390    0.9290    0.0350 hc        1 Q6W      0.071200
     51 HN18       -7.0220    0.5420   -0.4290 hn        1 Q6W      0.315500
     52 H20         6.2790    0.0540    0.3190 h4        1 Q6W      0.176000
     53 H23         2.8640   -1.3370   -2.0500 h4        1 Q6W      0.048100
     54 H24         7.0010   -3.4010   -1.3230 h1        1 Q6W      0.092700
     55 H25         7.4010   -1.8840    1.3660 hc        1 Q6W      0.057950
     56 H25A        6.5270   -3.4520    1.1270 hc        1 Q6W      0.057950
     57 H26         8.8960   -3.7770    1.9230 h1        1 Q6W      0.059700
     58 H26A        8.5510   -4.5770    0.3240 h1        1 Q6W      0.059700
     59 HN27       10.1150   -2.1570    0.8180 hn        1 Q6W      0.353800
     60 H28        10.4450   -1.8550   -1.4470 h1        1 Q6W      0.059700
     61 H28A        9.5110   -3.3850   -1.7650 h1        1 Q6W      0.059700
     62 H29         8.1400   -1.4500   -2.3820 hc        1 Q6W      0.057950
     63 H29A        8.3820   -0.6670   -0.7680 hc        1 Q6W      0.057950
     64 H30        -8.1140   -1.4330    1.5090 h1        1 Q6W      0.076700
     65 H30A       -9.1340   -0.4910    0.3100 h1        1 Q6W      0.076700
     66 H33        -7.0260   -2.4700   -3.6790 h4        1 Q6W      0.023100
     67 H34        -7.6690   -4.8640   -3.1780 ha        1 Q6W      0.145000
     68 H35        -8.5250   -5.4240   -0.8690 ha        1 Q6W      0.140000
     69 H36        -8.6980   -3.5810    0.8340 ha        1 Q6W      0.148000
@<TRIPOS>BOND
     1    1    4 ar  
     2    1    9 1   
     3    1   10 ar  
     4    2    4 ar  
     5    2   12 ar  
     6    3    9 2   
     7    4    5 1   
     8    5    6 2   
     9    5   40 1   
    10    6    7 1   
    11    6   41 1   
    12    7    8 ar  
    13    7   13 ar  
    14    8    9 1   
    15    8   16 ar  
    16   10   11 ar  
    17   10   42 1   
    18   11   12 ar  
    19   11   17 1   
    20   12   43 1   
    21   13   14 ar  
    22   13   44 1   
    23   14   15 ar  
    24   14   45 1   
    25   15   16 ar  
    26   15   18 1   
    27   16   46 1   
    28   17   23 2   
    29   17   26 1   
    30   18   19 1   
    31   18   47 1   
    32   18   48 1   
    33   19   20 1   
    34   19   49 1   
    35   19   50 1   
    36   20   21 1   
    37   20   22 2   
    38   21   33 1   
    39   21   51 1   
    40   23   24 1   
    41   23   52 1   
    42   24   25 1   
    43   24   27 1   
    44   25   26 2   
    45   26   53 1   
    46   27   28 1   
    47   27   32 1   
    48   27   54 1   
    49   28   29 1   
    50   28   55 1   
    51   28   56 1   
    52   29   30 1   
    53   29   57 1   
    54   29   58 1   
    55   30   31 1   
    56   30   59 1   
    57   31   32 1   
    58   31   60 1   
    59   31   61 1   
    60   32   62 1   
    61   32   63 1   
    62   33   34 1   
    63   33   64 1   
    64   33   65 1   
    65   34   35 ar  
    66   34   39 ar  
    67   35   36 ar  
    68   36   37 ar  
    69   36   66 1   
    70   37   38 ar  
    71   37   67 1   
    72   38   39 ar  
    73   38   68 1   
    74   39   69 1   
@<TRIPOS>SUBSTRUCTURE
     1 Q6W         1 TEMP              0 ****  ****    0 ROOT
