@<TRIPOS>MOLECULE
Q6W
   70    75     1     0     0
SMALL
bcc


@<TRIPOS>ATOM
      1 C           0.1880   -0.4960    0.4260 ca        1 Q6W     -0.249900
      2 N           2.1270    0.0900   -0.9020 nb        1 Q6W     -0.650000
      3 O          -1.5300   -0.3270    2.0590 o         1 Q6W     -0.527100
      4 C1          1.5680   -0.2170    0.3070 ca        1 Q6W      0.466100
      5 C2          2.4660   -0.1840    1.4620 cc        1 Q6W     -0.174800
      6 C3          2.4170   -0.9650    2.5500 cd        1 Q6W     -0.133200
      7 C4          1.4690   -2.0190    2.8490 ca        1 Q6W      0.015200
      8 C5          0.1190   -1.9700    2.4750 ca        1 Q6W     -0.140600
      9 C6         -0.4700   -0.8530    1.6960 c         1 Q6W      0.602300
     10 C7         -0.6250   -0.4220   -0.7180 ca        1 Q6W     -0.070000
     11 C8         -0.0590   -0.1200   -1.9600 ca        1 Q6W     -0.074300
     12 C9          1.3440    0.1210   -1.9810 ca        1 Q6W      0.418200
     13 C10         1.9220   -3.1250    3.5970 ca        1 Q6W     -0.121000
     14 C11         1.0560   -4.1440    3.9680 ca        1 Q6W     -0.096000
     15 C12        -0.2980   -4.0790    3.6120 ca        1 Q6W     -0.129300
     16 C13        -0.7540   -2.9960    2.8630 ca        1 Q6W     -0.089000
     17 C14        -0.8410   -0.0450   -3.1530 cc        1 Q6W     -0.239300
     18 C15        -1.2470   -5.1470    4.0250 c3        1 Q6W     -0.023100
     19 C16        -2.1770   -4.6120    5.1070 c3        1 Q6W     -0.154400
     20 C17        -3.2700   -5.5910    5.4050 c         1 Q6W      0.547100
     21 N18        -4.3650   -5.0830    6.3300 n4        1 Q6W     -0.677800
     22 O19        -3.4100   -6.7420    5.0260 o         1 Q6W     -0.401100
     23 C20        -0.4000    0.1530   -4.4800 cd        1 Q6W     -0.108300
     24 N21        -1.5380    0.1500   -5.2860 na        1 Q6W      0.104400
     25 N22        -2.6600   -0.0320   -4.5680 nd        1 Q6W     -0.501800
     26 C23        -2.2840   -0.1550   -3.2730 cc        1 Q6W      0.314200
     27 C24        -1.5240    0.3350   -6.7410 c3        1 Q6W      0.059000
     28 C25        -0.7340   -0.7760   -7.4510 c3        1 Q6W     -0.093400
     29 C26        -0.7640   -0.5450   -8.9610 c3        1 Q6W      0.163800
     30 N27        -0.2870    0.7700   -9.3400 n3        1 Q6W     -0.825200
     31 C28        -0.9710    1.8510   -8.6590 c3        1 Q6W      0.163800
     32 C29        -0.9490    1.7040   -7.1380 c3        1 Q6W     -0.093400
     33 C30        -5.4350   -4.3770    5.5640 c3        1 Q6W      0.075500
     34 C31        -6.5720   -3.8790    6.4220 ca        1 Q6W      0.325600
     35 N32        -6.3950   -3.7690    7.7650 nb        1 Q6W     -0.709000
     36 C33        -7.4180   -3.2900    8.4870 ca        1 Q6W      0.425200
     37 C34        -8.6510   -2.8970    7.9210 ca        1 Q6W     -0.203300
     38 C35        -8.8180   -3.0180    6.5440 ca        1 Q6W     -0.071000
     39 C36        -7.7640   -3.5200    5.7700 ca        1 Q6W     -0.204300
     40 H2          3.2870    0.5570    1.3840 ha        1 Q6W      0.161000
     41 H3          3.1990   -0.8320    3.3230 ha        1 Q6W      0.144000
     42 H7         -1.7080   -0.5990   -0.6250 ha        1 Q6W      0.150000
     43 H9          1.8530    0.3620   -2.9330 h4        1 Q6W      0.031100
     44 H10         2.9850   -3.1780    3.8850 ha        1 Q6W      0.153000
     45 H11         1.4360   -5.0050    4.5410 ha        1 Q6W      0.141000
     46 H13        -1.8130   -2.9310    2.5650 ha        1 Q6W      0.135000
     47 H15        -0.6950   -6.0440    4.4130 hc        1 Q6W      0.075700
     48 H15A       -1.8520   -5.4850    3.1400 hc        1 Q6W      0.075700
     49 H16        -2.6200   -3.6320    4.7730 hc        1 Q6W      0.107700
     50 H16A       -1.5920   -4.4220    6.0500 hc        1 Q6W      0.107700
     51 HN18       -3.9630   -4.4410    7.0240 hn        1 Q6W      0.469300
     52 H20         0.6020    0.2880   -4.8880 h4        1 Q6W      0.184000
     53 H23        -3.0100   -0.3050   -2.4740 h4        1 Q6W      0.042100
     54 H24        -2.5970    0.2870   -7.0990 h1        1 Q6W      0.091700
     55 H25         0.3260   -0.7880   -7.0870 hc        1 Q6W      0.060700
     56 H25A       -1.1880   -1.7760   -7.2340 hc        1 Q6W      0.060700
     57 H26        -1.8170   -0.7390   -9.3250 h1        1 Q6W      0.037950
     58 H26A       -0.0890   -1.3020   -9.4530 h1        1 Q6W      0.037950
     59 HN27       -0.3480    0.8900  -10.3330 hn        1 Q6W      0.375800
     60 H28        -0.4440    2.8080   -8.9340 h1        1 Q6W      0.037950
     61 H28A       -2.0490    1.9480   -8.9870 h1        1 Q6W      0.037950
     62 H29        -1.5620    2.5280   -6.6910 hc        1 Q6W      0.060700
     63 H29A        0.1010    1.8060   -6.7600 hc        1 Q6W      0.060700
     64 H30        -5.8370   -5.0980    4.7930 hx        1 Q6W      0.112200
     65 H30A       -4.9630   -3.4960    5.0370 hx        1 Q6W      0.112200
     66 H33        -7.2420   -3.2140    9.5770 h4        1 Q6W      0.048100
     67 H34        -9.4540   -2.5070    8.5640 ha        1 Q6W      0.174000
     68 H35        -9.7650   -2.7240    6.0620 ha        1 Q6W      0.169000
     69 H36        -7.8700   -3.6260    4.6810 ha        1 Q6W      0.159000
     70 H182       -4.7900   -5.8730    6.8350 hn        1 Q6W      0.469300
@<TRIPOS>BOND
     1    1    4 ar  
     2    1    9 1   
     3    1   10 ar  
     4    2    4 ar  
     5    2   12 ar  
     6    3    9 2   
     7    4    5 1   
     8    5    6 2   
     9    5   40 1   
    10    6    7 1   
    11    6   41 1   
    12    7    8 ar  
    13    7   13 ar  
    14    8    9 1   
    15    8   16 ar  
    16   10   11 ar  
    17   10   42 1   
    18   11   12 ar  
    19   11   17 1   
    20   12   43 1   
    21   13   14 ar  
    22   13   44 1   
    23   14   15 ar  
    24   14   45 1   
    25   15   16 ar  
    26   15   18 1   
    27   16   46 1   
    28   17   23 2   
    29   17   26 1   
    30   18   19 1   
    31   18   47 1   
    32   18   48 1   
    33   19   20 1   
    34   19   49 1   
    35   19   50 1   
    36   20   21 1   
    37   20   22 2   
    38   21   33 1   
    39   21   51 1   
    40   21   70 1   
    41   23   24 1   
    42   23   52 1   
    43   24   25 1   
    44   24   27 1   
    45   25   26 2   
    46   26   53 1   
    47   27   28 1   
    48   27   32 1   
    49   27   54 1   
    50   28   29 1   
    51   28   55 1   
    52   28   56 1   
    53   29   30 1   
    54   29   57 1   
    55   29   58 1   
    56   30   31 1   
    57   30   59 1   
    58   31   32 1   
    59   31   60 1   
    60   31   61 1   
    61   32   62 1   
    62   32   63 1   
    63   33   34 1   
    64   33   64 1   
    65   33   65 1   
    66   34   35 ar  
    67   34   39 ar  
    68   35   36 ar  
    69   36   37 ar  
    70   36   66 1   
    71   37   38 ar  
    72   37   67 1   
    73   38   39 ar  
    74   38   68 1   
    75   39   69 1   
@<TRIPOS>SUBSTRUCTURE
     1 Q6W         1 TEMP              0 ****  ****    0 ROOT
