@<TRIPOS>MOLECULE
Q6Z
   23    23     1     0     0
SMALL
bcc


@<TRIPOS>ATOM
      1 O1          0.0160    0.1120   -0.1730 oh        1 Q6Z     -0.612800
      2 CAR         1.4330    0.0150   -0.0810 c3        1 Q6Z      0.102100
      3 CAW         1.8940   -0.0290    1.3690 c3        1 Q6Z     -0.108400
      4 CAV         3.4040    0.0290    1.4490 c3        1 Q6Z     -0.075400
      5 CAU         3.9430    1.2560    0.7450 c3        1 Q6Z     -0.078400
      6 CAT         3.5070    1.3100   -0.7110 c3        1 Q6Z     -0.061700
      7 CAA         4.0360    2.5600   -1.3800 c3        1 Q6Z     -0.088100
      8 CAS         1.9780    1.2630   -0.8020 c3        1 Q6Z      0.155100
      9 OAX         1.6330    1.2120   -2.1790 oh        1 Q6Z     -0.602800
     10 H1         -0.3480   -0.6420    0.3040 ho        1 Q6Z      0.406000
     11 HAR         1.7750   -0.9090   -0.6270 h1        1 Q6Z      0.047700
     12 HAW1        1.4450    0.8360    1.9240 hc        1 Q6Z      0.047700
     13 HAW2        1.5210   -0.9690    1.8510 hc        1 Q6Z      0.047700
     14 HAS         1.5290    2.1840   -0.3380 h1        1 Q6Z      0.047700
     15 HAV1        3.7200    0.0450    2.5240 hc        1 Q6Z      0.043700
     16 HAV2        3.8400   -0.8930    0.9830 hc        1 Q6Z      0.043700
     17 HAU1        5.0640    1.2520    0.7900 hc        1 Q6Z      0.045200
     18 HAU2        3.5880    2.1790    1.2740 hc        1 Q6Z      0.045200
     19 HAT         3.9130    0.4110   -1.2530 hc        1 Q6Z      0.060700
     20 HAA1        5.1520    2.5600   -1.3710 hc        1 Q6Z      0.040033
     21 HAA2        3.6810    2.6020   -2.4390 hc        1 Q6Z      0.040033
     22 HAA3        3.6760    3.4740   -0.8490 hc        1 Q6Z      0.040033
     23 HAX         0.6730    1.1090   -2.2150 ho        1 Q6Z      0.417000
@<TRIPOS>BOND
     1    1    2 1   
     2    1   10 1   
     3    2    3 1   
     4    2    8 1   
     5    2   11 1   
     6    3    4 1   
     7    3   12 1   
     8    3   13 1   
     9    4    5 1   
    10    4   15 1   
    11    4   16 1   
    12    5    6 1   
    13    5   17 1   
    14    5   18 1   
    15    6    7 1   
    16    6    8 1   
    17    6   19 1   
    18    7   20 1   
    19    7   21 1   
    20    7   22 1   
    21    8    9 1   
    22    8   14 1   
    23    9   23 1   
@<TRIPOS>SUBSTRUCTURE
     1 Q6Z         1 TEMP              0 ****  ****    0 ROOT
