@<TRIPOS>MOLECULE
Q6Z
   23    23     1     0     0
SMALL
bcc


@<TRIPOS>ATOM
      1 O1          0.0060    0.1400   -0.1220 oh        1 Q6Z     -0.612800
      2 CAR         1.4240    0.0270   -0.0670 c3        1 Q6Z      0.102100
      3 CAW         1.9200   -0.0490    1.3700 c3        1 Q6Z     -0.108400
      4 CAV         3.4310   -0.0060    1.4130 c3        1 Q6Z     -0.075400
      5 CAU         3.9660    1.2280    0.7200 c3        1 Q6Z     -0.078400
      6 CAT         3.4940    1.3150   -0.7240 c3        1 Q6Z     -0.061700
      7 CAA         4.0190    2.5720   -1.3820 c3        1 Q6Z     -0.088100
      8 CAS         1.9630    1.2840   -0.7780 c3        1 Q6Z      0.155100
      9 OAX         1.5850    1.2630   -2.1460 oh        1 Q6Z     -0.602800
     10 H1         -0.3540   -0.6200    0.3500 ho        1 Q6Z      0.406000
     11 HAR         1.7430   -0.8890   -0.6390 h1        1 Q6Z      0.047700
     12 HAW1        1.5490   -0.9950    1.8430 hc        1 Q6Z      0.047700
     13 HAW2        1.4930    0.8100    1.9520 hc        1 Q6Z      0.047700
     14 HAS         1.5350    2.2000   -0.2850 h1        1 Q6Z      0.047700
     15 HAV1        3.8470   -0.9240    0.9190 hc        1 Q6Z      0.043700
     16 HAV2        3.7740   -0.0150    2.4810 hc        1 Q6Z      0.043700
     17 HAU1        5.0870    1.2130    0.7370 hc        1 Q6Z      0.045200
     18 HAU2        3.6340    2.1450    1.2750 hc        1 Q6Z      0.045200
     19 HAT         3.8780    0.4220   -1.2920 hc        1 Q6Z      0.060700
     20 HAA1        3.6820    3.4790   -0.8250 hc        1 Q6Z      0.040033
     21 HAA2        3.6390    2.6370   -2.4300 hc        1 Q6Z      0.040033
     22 HAA3        5.1350    2.5610   -1.4000 hc        1 Q6Z      0.040033
     23 HAX         0.6230    1.1690   -2.1600 ho        1 Q6Z      0.417000
@<TRIPOS>BOND
     1    1    2 1   
     2    1   10 1   
     3    2    3 1   
     4    2    8 1   
     5    2   11 1   
     6    3    4 1   
     7    3   12 1   
     8    3   13 1   
     9    4    5 1   
    10    4   15 1   
    11    4   16 1   
    12    5    6 1   
    13    5   17 1   
    14    5   18 1   
    15    6    7 1   
    16    6    8 1   
    17    6   19 1   
    18    7   20 1   
    19    7   21 1   
    20    7   22 1   
    21    8    9 1   
    22    8   14 1   
    23    9   23 1   
@<TRIPOS>SUBSTRUCTURE
     1 Q6Z         1 TEMP              0 ****  ****    0 ROOT
