@<TRIPOS>MOLECULE
Q74
   35    38     1     0     0
SMALL
bcc


@<TRIPOS>ATOM
      1 F1          0.8840    1.7000   -1.1340 f         1 Q74     -0.132900
      2 C2          1.7400    0.8700   -0.4900 ca        1 Q74      0.096900
      3 C3          2.7160    1.4030    0.3740 ca        1 Q74      0.124900
      4 F4          2.8020    2.7360    0.5630 f         1 Q74     -0.112900
      5 C5          1.6330   -0.5220   -0.7030 ca        1 Q74     -0.195000
      6 C6          2.5000   -1.4010   -0.0560 ca        1 Q74      0.184900
      7 F7          2.3810   -2.7320   -0.2770 f         1 Q74     -0.128900
      8 C8          3.4920   -0.9080    0.8190 ca        1 Q74     -0.174100
      9 C9          3.6000    0.5070    1.0350 ca        1 Q74      0.095400
     10 N10         4.6150    0.8840    1.9190 nc        1 Q74     -0.543100
     11 S11         4.6630   -1.7070    1.7250 ss        1 Q74      0.133900
     12 C12         5.2450   -0.2060    2.3490 cd        1 Q74      0.370200
     13 C13         6.3830   -0.2100    3.3160 c3        1 Q74     -0.009500
     14 C14         6.9910   -1.5400    3.4370 cc        1 Q74     -0.279400
     15 C15         8.0800   -2.0610    2.6560 ca        1 Q74     -0.168100
     16 C16         8.8470   -1.6060    1.5840 ca        1 Q74     -0.076000
     17 C17         6.6810   -2.5110    4.4100 cd        1 Q74     -0.010100
     18 N18         7.4990   -3.6180    4.2810 na        1 Q74     -0.105100
     19 C19         7.4750   -4.8260    5.0620 c3        1 Q74     -0.113700
     20 C20         6.6300   -4.8310    6.3750 c         1 Q74      0.919600
     21 O21         6.9740   -5.7080    7.2080 o         1 Q74     -0.820300
     22 O22         5.6700   -4.0270    6.5190 o         1 Q74     -0.820300
     23 C23         8.3810   -3.3860    3.2040 ca        1 Q74      0.392800
     24 N24         9.3590   -4.2050    2.7160 nb        1 Q74     -0.651000
     25 C25        10.0510   -3.7080    1.6850 ca        1 Q74      0.379200
     26 C26         9.8430   -2.4380    1.0920 ca        1 Q74     -0.280300
     27 H5          0.8580   -0.9050   -1.3830 ha        1 Q74      0.162000
     28 H13         7.1570    0.5350    2.9760 hc        1 Q74      0.075200
     29 H13A        5.9990    0.1350    4.3170 hc        1 Q74      0.075200
     30 H16         8.6620   -0.6150    1.1470 ha        1 Q74      0.126000
     31 H17         5.9180   -2.4910    5.2090 h4        1 Q74      0.240000
     32 H19         8.5360   -5.0820    5.3380 h1        1 Q74      0.057200
     33 H19A        7.0720   -5.6540    4.4130 h1        1 Q74      0.057200
     34 H25        10.8410   -4.3730    1.2930 h4        1 Q74      0.005100
     35 H26        10.4730   -2.1270    0.2500 ha        1 Q74      0.124000
@<TRIPOS>BOND
     1    1    2 1   
     2    2    3 ar  
     3    2    5 ar  
     4    3    4 1   
     5    3    9 ar  
     6    5    6 ar  
     7    5   27 1   
     8    6    7 1   
     9    6    8 ar  
    10    8    9 ar  
    11    8   11 1   
    12    9   10 1   
    13   10   12 2   
    14   11   12 1   
    15   12   13 1   
    16   13   14 1   
    17   13   28 1   
    18   13   29 1   
    19   14   15 1   
    20   14   17 2   
    21   15   16 ar  
    22   15   23 ar  
    23   16   26 ar  
    24   16   30 1   
    25   17   18 1   
    26   17   31 1   
    27   18   19 1   
    28   18   23 1   
    29   19   20 1   
    30   19   32 1   
    31   19   33 1   
    32   20   21 1   
    33   20   22 1   
    34   23   24 ar  
    35   24   25 ar  
    36   25   26 ar  
    37   25   34 1   
    38   26   35 1   
@<TRIPOS>SUBSTRUCTURE
     1 Q74         1 TEMP              0 ****  ****    0 ROOT
