@<TRIPOS>MOLECULE
Q74
   35    38     1     0     0
SMALL
bcc


@<TRIPOS>ATOM
      1 F1          0.8360    1.6170   -1.1470 f         1 Q74     -0.132900
      2 C2          1.7020    0.8010   -0.4980 ca        1 Q74      0.096900
      3 C3          2.6780    1.3520    0.3550 ca        1 Q74      0.124900
      4 F4          2.7540    2.6880    0.5290 f         1 Q74     -0.112900
      5 C5          1.6070   -0.5940   -0.6960 ca        1 Q74     -0.195000
      6 C6          2.4840   -1.4580   -0.0440 ca        1 Q74      0.184900
      7 F7          2.3760   -2.7920   -0.2490 f         1 Q74     -0.128900
      8 C8          3.4770   -0.9480    0.8210 ca        1 Q74     -0.174100
      9 C9          3.5730    0.4710    1.0220 ca        1 Q74      0.095400
     10 N10         4.5890    0.8670    1.8960 nc        1 Q74     -0.543100
     11 S11         4.6590   -1.7260    1.7310 ss        1 Q74      0.133900
     12 C12         5.2310   -0.2130    2.3360 cd        1 Q74      0.370200
     13 C13         6.3730   -0.1970    3.2960 c3        1 Q74     -0.009500
     14 C14         6.9930   -1.5200    3.4290 cc        1 Q74     -0.279400
     15 C15         8.0830   -2.0400    2.6490 ca        1 Q74     -0.168100
     16 C16         8.8410   -1.5890    1.5680 ca        1 Q74     -0.076000
     17 C17         6.6960   -2.4830    4.4130 cd        1 Q74     -0.010100
     18 N18         7.5240   -3.5850    4.2930 na        1 Q74     -0.105100
     19 C19         7.5140   -4.7850    5.0860 c3        1 Q74     -0.113700
     20 C20         6.6740   -4.7840    6.4020 c         1 Q74      0.920600
     21 O21         7.0290   -5.6490    7.2430 o         1 Q74     -0.820300
     22 O22         5.7070   -3.9870    6.5410 o         1 Q74     -0.820300
     23 C23         8.3990   -3.3560    3.2090 ca        1 Q74      0.392800
     24 N24         9.3820   -4.1710    2.7250 nb        1 Q74     -0.651000
     25 C25        10.0650   -3.6790    1.6860 ca        1 Q74      0.379200
     26 C26         9.8430   -2.4170    1.0810 ca        1 Q74     -0.280300
     27 H5          0.8330   -0.9900   -1.3680 ha        1 Q74      0.162000
     28 H13         7.1380    0.5510    2.9450 hc        1 Q74      0.075200
     29 H13A        5.9910    0.1550    4.2960 hc        1 Q74      0.075200
     30 H16         8.6460   -0.6050    1.1220 ha        1 Q74      0.126000
     31 H17         5.9370   -2.4620    5.2150 h4        1 Q74      0.240000
     32 H19         8.5780   -5.0270    5.3610 h1        1 Q74      0.057200
     33 H19A        7.1170   -5.6230    4.4470 h1        1 Q74      0.057200
     34 H25        10.8600   -4.3410    1.2970 h4        1 Q74      0.005100
     35 H26        10.4660   -2.1090    0.2330 ha        1 Q74      0.124000
@<TRIPOS>BOND
     1    1    2 1   
     2    2    3 ar  
     3    2    5 ar  
     4    3    4 1   
     5    3    9 ar  
     6    5    6 ar  
     7    5   27 1   
     8    6    7 1   
     9    6    8 ar  
    10    8    9 ar  
    11    8   11 1   
    12    9   10 1   
    13   10   12 2   
    14   11   12 1   
    15   12   13 1   
    16   13   14 1   
    17   13   28 1   
    18   13   29 1   
    19   14   15 1   
    20   14   17 2   
    21   15   16 ar  
    22   15   23 ar  
    23   16   26 ar  
    24   16   30 1   
    25   17   18 1   
    26   17   31 1   
    27   18   19 1   
    28   18   23 1   
    29   19   20 1   
    30   19   32 1   
    31   19   33 1   
    32   20   21 1   
    33   20   22 1   
    34   23   24 ar  
    35   24   25 ar  
    36   25   26 ar  
    37   25   34 1   
    38   26   35 1   
@<TRIPOS>SUBSTRUCTURE
     1 Q74         1 TEMP              0 ****  ****    0 ROOT
