@<TRIPOS>MOLECULE
Q74
   35    38     1     0     0
SMALL
bcc


@<TRIPOS>ATOM
      1 F1         -6.6210    0.6480   -0.2590 f         1 Q74     -0.132900
      2 C2         -5.2880    0.5760   -0.0290 ca        1 Q74      0.096900
      3 C3         -4.3950    0.4640   -1.1130 ca        1 Q74      0.124900
      4 F4         -4.8630    0.4280   -2.3780 f         1 Q74     -0.112900
      5 C5         -4.8200    0.6140    1.3030 ca        1 Q74     -0.195000
      6 C6         -3.4550    0.5400    1.5710 ca        1 Q74      0.184900
      7 F7         -3.0280    0.5760    2.8550 f         1 Q74     -0.128900
      8 C8         -2.5260    0.4280    0.5140 ca        1 Q74     -0.174100
      9 C9         -3.0020    0.3900   -0.8410 ca        1 Q74      0.095400
     10 N10        -1.9980    0.2780   -1.8070 nc        1 Q74     -0.543100
     11 S11        -0.8470    0.3200    0.5230 ss        1 Q74      0.133900
     12 C12        -0.8140    0.2340   -1.2010 cd        1 Q74      0.370200
     13 C13         0.5000    0.1260   -1.9010 c3        1 Q74     -0.009500
     14 C14         1.6020   -0.1030   -0.9600 cc        1 Q74     -0.279400
     15 C15         2.1040   -1.3750   -0.5180 ca        1 Q74     -0.168100
     16 C16         1.7590   -2.7110   -0.7250 ca        1 Q74     -0.076000
     17 C17         2.4330    0.8850   -0.3960 cd        1 Q74     -0.010100
     18 N18         3.4200    0.3130    0.3860 na        1 Q74     -0.105100
     19 C19         4.4390    0.9850    1.1490 c3        1 Q74     -0.113700
     20 C20         4.6590    2.5090    0.8910 c         1 Q74      0.920600
     21 O21         5.7910    2.9330    1.2380 o         1 Q74     -0.820300
     22 O22         3.7320    3.2150    0.4110 o         1 Q74     -0.820300
     23 C23         3.2530   -1.0880    0.3430 ca        1 Q74      0.392800
     24 N24         3.9970   -2.0500    0.9640 nb        1 Q74     -0.651000
     25 C25         3.6070   -3.3080    0.7270 ca        1 Q74      0.379200
     26 C26         2.5170   -3.6880   -0.0960 ca        1 Q74     -0.280300
     27 H5         -5.5440    0.7030    2.1250 ha        1 Q74      0.162000
     28 H13         0.4520   -0.7170   -2.6470 hc        1 Q74      0.075200
     29 H13A        0.6730    1.0780   -2.4790 hc        1 Q74      0.075200
     30 H16         0.9090   -2.9740   -1.3700 ha        1 Q74      0.126000
     31 H17         2.3940    1.9840   -0.5010 h4        1 Q74      0.240000
     32 H19         4.1880    0.8720    2.2420 h1        1 Q74      0.057200
     33 H19A        5.4170    0.4610    0.9570 h1        1 Q74      0.057200
     34 H25         4.2100   -4.0830    1.2310 h4        1 Q74      0.005100
     35 H26         2.2870   -4.7520   -0.2260 ha        1 Q74      0.124000
@<TRIPOS>BOND
     1    1    2 1   
     2    2    3 ar  
     3    2    5 ar  
     4    3    4 1   
     5    3    9 ar  
     6    5    6 ar  
     7    5   27 1   
     8    6    7 1   
     9    6    8 ar  
    10    8    9 ar  
    11    8   11 1   
    12    9   10 1   
    13   10   12 2   
    14   11   12 1   
    15   12   13 1   
    16   13   14 1   
    17   13   28 1   
    18   13   29 1   
    19   14   15 1   
    20   14   17 2   
    21   15   16 ar  
    22   15   23 ar  
    23   16   26 ar  
    24   16   30 1   
    25   17   18 1   
    26   17   31 1   
    27   18   19 1   
    28   18   23 1   
    29   19   20 1   
    30   19   32 1   
    31   19   33 1   
    32   20   21 1   
    33   20   22 1   
    34   23   24 ar  
    35   24   25 ar  
    36   25   26 ar  
    37   25   34 1   
    38   26   35 1   
@<TRIPOS>SUBSTRUCTURE
     1 Q74         1 TEMP              0 ****  ****    0 ROOT
