@<TRIPOS>MOLECULE
Q7M
   59    63     1     0     0
SMALL
bcc


@<TRIPOS>ATOM
      1 F36        -0.8710    1.9910   -0.5900 f         1 Q7M     -0.199633
      2 C33         0.0100    1.4400   -1.4940 c3        1 Q7M      0.696200
      3 F37         0.0700    0.1130   -1.1740 f         1 Q7M     -0.199633
      4 F35        -0.6030    1.5270   -2.7080 f         1 Q7M     -0.199633
      5 C29         1.3820    2.1430   -1.4340 ca        1 Q7M     -0.136300
      6 C28         1.8950    2.4660   -0.1820 ca        1 Q7M     -0.111000
      7 C30         2.0940    2.4360   -2.6060 ca        1 Q7M      0.026000
      8 C31         3.3260    3.0940   -2.5150 ca        1 Q7M     -0.080000
      9 C32         3.8520    3.4600   -1.2770 ca        1 Q7M     -0.053000
     10 C27         3.1270    3.1480   -0.1060 ca        1 Q7M     -0.161400
     11 N26         3.7210    3.3990    1.2060 n4        1 Q7M     -0.484200
     12 C25         3.2340    4.6380    1.9000 c         1 Q7M      0.478100
     13 O34         3.9380    5.2090    2.7150 o         1 Q7M     -0.287100
     14 N24         1.8760    5.1830    1.5430 n4        1 Q7M     -0.502200
     15 C17         1.1530    5.7400    2.7030 ca        1 Q7M     -0.061400
     16 C16         1.5900    6.9360    3.3030 ca        1 Q7M     -0.057500
     17 C15         0.8710    7.4820    4.3650 ca        1 Q7M     -0.098000
     18 C18        -0.0020    5.0910    3.1790 ca        1 Q7M     -0.057500
     19 C19        -0.7190    5.6430    4.2390 ca        1 Q7M     -0.098000
     20 C14        -0.2930    6.8460    4.8510 ca        1 Q7M      0.037800
     21 N11        -0.9960    7.3390    5.9780 na        1 Q7M     -0.088200
     22 C10        -1.4670    8.6390    6.2400 cc        1 Q7M      0.063900
     23 N21        -1.4490    9.7300    5.2790 n4        1 Q7M     -0.710400
     24 C12        -1.2650    6.5570    7.1430 ca        1 Q7M      0.358500
     25 C8         -1.9140    7.4170    8.1380 ca        1 Q7M      0.315800
     26 C9         -2.0330    8.7260    7.5380 cd        1 Q7M     -0.270000
     27 C22        -2.6140    9.9140    8.1300 c         1 Q7M      0.588300
     28 N4         -3.1670    9.8100    9.5100 n4        1 Q7M     -0.720400
     29 O23        -2.6850   11.0130    7.5780 o         1 Q7M     -0.448100
     30 N13        -0.9940    5.2570    7.3580 nb        1 Q7M     -0.616000
     31 C4         -1.3690    4.7870    8.5860 ca        1 Q7M      0.370300
     32 C5         -2.0220    5.6510    9.5930 ca        1 Q7M      0.351300
     33 N7         -2.2830    6.9630    9.3430 nb        1 Q7M     -0.628000
     34 C3         -1.1310    3.4130    8.9240 ca        1 Q7M     -0.192300
     35 C2         -1.4990    2.9220   10.1480 ca        1 Q7M     -0.028000
     36 C1         -2.1270    3.7550   11.1190 ca        1 Q7M     -0.045000
     37 C6         -2.3830    5.0730   10.8600 ca        1 Q7M     -0.173300
     38 H28         1.3440    2.1320    0.7160 ha        1 Q7M      0.165000
     39 H30         1.6840    2.1400   -3.5960 ha        1 Q7M      0.230000
     40 H31         3.9020    3.3130   -3.4390 ha        1 Q7M      0.224000
     41 H32         4.8360    3.9630   -1.2410 ha        1 Q7M      0.188000
     42 HN26        3.5370    2.5870    1.8300 hn        1 Q7M      0.523300
     43 HN24        2.0270    5.9490    0.8570 hn        1 Q7M      0.506300
     44 H16         2.5120    7.4490    2.9700 ha        1 Q7M      0.192500
     45 H15         1.2760    8.3890    4.8490 ha        1 Q7M      0.198000
     46 H18        -0.3790    4.1520    2.7310 ha        1 Q7M      0.192500
     47 H19        -1.6180    5.1050    4.6040 ha        1 Q7M      0.198000
     48 H212       -0.5460    9.7850    4.7880 hn        1 Q7M      0.498133
     49 H211       -2.2080    9.6070    4.5870 hn        1 Q7M      0.498133
     50 HN41       -3.5500   10.7270    9.8040 hn        1 Q7M      0.504133
     51 HN42       -3.9200    9.1050    9.5440 hn        1 Q7M      0.504133
     52 H3         -0.6450    2.7570    8.1810 ha        1 Q7M      0.179000
     53 H2         -1.3130    1.8610   10.4030 ha        1 Q7M      0.199000
     54 H1         -2.4070    3.3130   12.0960 ha        1 Q7M      0.203000
     55 H6         -2.8700    5.7100   11.6200 ha        1 Q7M      0.186000
     56 H262        4.7580    3.4930    1.1050 hn        1 Q7M      0.523300
     57 H242        1.2890    4.4550    1.0910 hn        1 Q7M      0.506300
     58 H213       -1.6110   10.6280    5.7850 hn        1 Q7M      0.498133
     59 H43        -2.4290    9.5260   10.1730 hn        1 Q7M      0.504133
@<TRIPOS>BOND
     1    1    2 1   
     2    2    3 1   
     3    2    4 1   
     4    2    5 1   
     5    5    6 ar  
     6    5    7 ar  
     7    6   10 ar  
     8    6   38 1   
     9    7    8 ar  
    10    7   39 1   
    11    8    9 ar  
    12    8   40 1   
    13    9   10 ar  
    14    9   41 1   
    15   10   11 1   
    16   11   12 1   
    17   11   42 1   
    18   11   56 1   
    19   12   13 2   
    20   12   14 1   
    21   14   15 1   
    22   14   43 1   
    23   14   57 1   
    24   15   16 ar  
    25   15   18 ar  
    26   16   17 ar  
    27   16   44 1   
    28   17   20 ar  
    29   17   45 1   
    30   18   19 ar  
    31   18   46 1   
    32   19   20 ar  
    33   19   47 1   
    34   20   21 1   
    35   21   22 1   
    36   21   24 1   
    37   22   23 1   
    38   22   26 2   
    39   23   48 1   
    40   23   49 1   
    41   23   58 1   
    42   24   25 ar  
    43   24   30 ar  
    44   25   26 1   
    45   25   33 ar  
    46   26   27 1   
    47   27   28 1   
    48   27   29 2   
    49   28   50 1   
    50   28   51 1   
    51   28   59 1   
    52   30   31 ar  
    53   31   32 ar  
    54   31   34 ar  
    55   32   33 ar  
    56   32   37 ar  
    57   34   35 ar  
    58   34   52 1   
    59   35   36 ar  
    60   35   53 1   
    61   36   37 ar  
    62   36   54 1   
    63   37   55 1   
@<TRIPOS>SUBSTRUCTURE
     1 Q7M         1 TEMP              0 ****  ****    0 ROOT
