@<TRIPOS>MOLECULE
Q7M
   56    60     1     0     0
SMALL
bcc


@<TRIPOS>ATOM
      1 F36         0.0960   -0.3710   -1.0490 f         1 Q7M     -0.232633
      2 C33         1.4630   -0.3020   -0.9230 c3        1 Q7M      0.688200
      3 F37         1.6960   -0.6070    0.3960 f         1 Q7M     -0.232633
      4 F35         1.9210   -1.4000   -1.6100 f         1 Q7M     -0.232633
      5 C29         2.0610    1.0250   -1.3820 ca        1 Q7M     -0.145300
      6 C28         2.1240    2.0840   -0.4760 ca        1 Q7M     -0.088000
      7 C30         2.5210    1.1610   -2.6910 ca        1 Q7M     -0.092000
      8 C31         3.0490    2.3850   -3.1010 ca        1 Q7M     -0.108000
      9 C32         3.1150    3.4600   -2.2220 ca        1 Q7M     -0.143000
     10 C27         2.6550    3.3220   -0.8910 ca        1 Q7M      0.047600
     11 N26         2.8030    4.4100   -0.0030 n         1 Q7M     -0.459100
     12 C25         1.8820    4.6790    1.0250 c         1 Q7M      0.780100
     13 O34         0.9690    3.8830    1.3270 o         1 Q7M     -0.596100
     14 N24         2.0570    5.9010    1.7280 n         1 Q7M     -0.472100
     15 C17         1.3350    6.2600    2.8700 ca        1 Q7M      0.118600
     16 C16         1.8800    7.2500    3.7300 ca        1 Q7M     -0.162000
     17 C15         1.1930    7.6780    4.8550 ca        1 Q7M     -0.085000
     18 C18         0.0650    5.7280    3.1900 ca        1 Q7M     -0.162000
     19 C19        -0.6230    6.1570    4.3160 ca        1 Q7M     -0.085000
     20 C14        -0.0730    7.1400    5.1600 ca        1 Q7M     -0.090200
     21 N11        -0.7730    7.5610    6.3180 na        1 Q7M     -0.122200
     22 C10        -1.1270    8.8800    6.6220 cc        1 Q7M      0.392900
     23 N21        -0.8330    9.9530    5.8620 nh        1 Q7M     -0.812600
     24 C12        -1.2620    6.7080    7.3530 ca        1 Q7M      0.371500
     25 C8         -1.9450    7.5560    8.3670 ca        1 Q7M      0.386800
     26 C9         -1.8500    8.9240    7.8880 cd        1 Q7M     -0.508000
     27 C22        -2.3370   10.0980    8.4740 c         1 Q7M      0.599300
     28 N4         -3.0650    9.9180    9.7950 n4        1 Q7M     -0.734400
     29 O23        -2.2750   11.2740    8.0930 o         1 Q7M     -0.545100
     30 N13        -1.1610    5.3900    7.4570 nb        1 Q7M     -0.585000
     31 C4         -1.7400    4.8520    8.5990 ca        1 Q7M      0.299300
     32 C5         -2.4020    5.6710    9.5900 ca        1 Q7M      0.304300
     33 N7         -2.4970    7.0480    9.4520 nb        1 Q7M     -0.685000
     34 C3         -1.6790    3.4380    8.8000 ca        1 Q7M     -0.149300
     35 C2         -2.2420    2.8740    9.9180 ca        1 Q7M     -0.107000
     36 C1         -2.8890    3.6750   10.8870 ca        1 Q7M     -0.093000
     37 C6         -2.9720    5.0370   10.7360 ca        1 Q7M     -0.175300
     38 H28         1.7510    1.9400    0.5530 ha        1 Q7M      0.182000
     39 H30         2.4690    0.3100   -3.3890 ha        1 Q7M      0.161000
     40 H31         3.4150    2.5030   -4.1330 ha        1 Q7M      0.151000
     41 H32         3.5350    4.4150   -2.5750 ha        1 Q7M      0.138000
     42 HN26        3.3670    5.1560   -0.3470 hn        1 Q7M      0.318500
     43 HN24        2.9100    6.4000    1.5940 hn        1 Q7M      0.320500
     44 H16         2.8700    7.6870    3.5220 ha        1 Q7M      0.172000
     45 H15         1.6650    8.4240    5.5140 ha        1 Q7M      0.151500
     46 H18        -0.3980    4.9510    2.5540 ha        1 Q7M      0.172000
     47 H19        -1.6020    5.7020    4.5450 ha        1 Q7M      0.151500
     48 H212       -0.3610    9.8580    4.9900 hn        1 Q7M      0.482300
     49 H211       -1.1470   10.8530    6.1590 hn        1 Q7M      0.482300
     50 HN41       -3.3790   10.8300   10.1390 hn        1 Q7M      0.465800
     51 HN42       -3.8710    9.3000    9.6630 hn        1 Q7M      0.465800
     52 H3         -1.1740    2.8120    8.0450 ha        1 Q7M      0.169000
     53 H2         -2.1930    1.7830   10.0720 ha        1 Q7M      0.159000
     54 H1         -3.3290    3.1880   11.7730 ha        1 Q7M      0.156000
     55 H6         -3.4780    5.6530   11.4960 ha        1 Q7M      0.150000
     56 H43        -2.4360    9.4860   10.4790 hn        1 Q7M      0.465800
@<TRIPOS>BOND
     1    1    2 1   
     2    2    3 1   
     3    2    4 1   
     4    2    5 1   
     5    5    6 ar  
     6    5    7 ar  
     7    6   10 ar  
     8    6   38 1   
     9    7    8 ar  
    10    7   39 1   
    11    8    9 ar  
    12    8   40 1   
    13    9   10 ar  
    14    9   41 1   
    15   10   11 1   
    16   11   12 1   
    17   11   42 1   
    18   12   13 2   
    19   12   14 1   
    20   14   15 1   
    21   14   43 1   
    22   15   16 ar  
    23   15   18 ar  
    24   16   17 ar  
    25   16   44 1   
    26   17   20 ar  
    27   17   45 1   
    28   18   19 ar  
    29   18   46 1   
    30   19   20 ar  
    31   19   47 1   
    32   20   21 1   
    33   21   22 1   
    34   21   24 1   
    35   22   23 1   
    36   22   26 2   
    37   23   48 1   
    38   23   49 1   
    39   24   25 ar  
    40   24   30 ar  
    41   25   26 1   
    42   25   33 ar  
    43   26   27 1   
    44   27   28 1   
    45   27   29 2   
    46   28   50 1   
    47   28   51 1   
    48   28   56 1   
    49   30   31 ar  
    50   31   32 ar  
    51   31   34 ar  
    52   32   33 ar  
    53   32   37 ar  
    54   34   35 ar  
    55   34   52 1   
    56   35   36 ar  
    57   35   53 1   
    58   36   37 ar  
    59   36   54 1   
    60   37   55 1   
@<TRIPOS>SUBSTRUCTURE
     1 Q7M         1 TEMP              0 ****  ****    0 ROOT
