@<TRIPOS>MOLECULE
Q7M
   56    60     1     0     0
SMALL
bcc


@<TRIPOS>ATOM
      1 F36         0.0690   -0.3550   -1.0740 f         1 Q7M     -0.232633
      2 C33         1.4360   -0.2980   -0.9430 c3        1 Q7M      0.688200
      3 F37         1.6610   -0.6110    0.3760 f         1 Q7M     -0.232633
      4 F35         1.8870   -1.3970   -1.6320 f         1 Q7M     -0.232633
      5 C29         2.0480    1.0260   -1.3920 ca        1 Q7M     -0.145300
      6 C28         2.1150    2.0800   -0.4810 ca        1 Q7M     -0.088000
      7 C30         2.5140    1.1640   -2.6990 ca        1 Q7M     -0.092000
      8 C31         3.0550    2.3850   -3.1010 ca        1 Q7M     -0.108000
      9 C32         3.1260    3.4560   -2.2170 ca        1 Q7M     -0.143000
     10 C27         2.6580    3.3150   -0.8880 ca        1 Q7M      0.047600
     11 N26         2.8110    4.3990    0.0050 ns        1 Q7M     -0.459100
     12 C25         1.8880    4.6710    1.0300 c         1 Q7M      0.780100
     13 O34         0.9680    3.8810    1.3250 o         1 Q7M     -0.596100
     14 N24         2.0680    5.8890    1.7380 ns        1 Q7M     -0.472100
     15 C17         1.3450    6.2510    2.8780 ca        1 Q7M      0.118600
     16 C16         1.8920    7.2390    3.7390 ca        1 Q7M     -0.162000
     17 C15         1.2040    7.6690    4.8620 ca        1 Q7M     -0.084500
     18 C18         0.0720    5.7230    3.1950 ca        1 Q7M     -0.162000
     19 C19        -0.6170    6.1540    4.3190 ca        1 Q7M     -0.084500
     20 C14        -0.0660    7.1360    5.1650 ca        1 Q7M     -0.090200
     21 N11        -0.7660    7.5600    6.3210 na        1 Q7M     -0.122200
     22 C10        -1.1180    8.8800    6.6230 cc        1 Q7M      0.392900
     23 N21        -0.8190    9.9510    5.8620 nv        1 Q7M     -0.812600
     24 C12        -1.2600    6.7090    7.3560 ca        1 Q7M      0.371500
     25 C8         -1.9430    7.5600    8.3670 ca        1 Q7M      0.386800
     26 C9         -1.8430    8.9270    7.8860 cd        1 Q7M     -0.508000
     27 C22        -2.3290   10.1030    8.4710 c         1 Q7M      0.599300
     28 N4         -3.0600    9.9260    9.7900 nz        1 Q7M     -0.734400
     29 O23        -2.2630   11.2780    8.0880 o         1 Q7M     -0.545100
     30 N13        -1.1630    5.3910    7.4610 nb        1 Q7M     -0.585000
     31 C4         -1.7460    4.8560    8.6020 ca        1 Q7M      0.299300
     32 C5         -2.4090    5.6770    9.5910 ca        1 Q7M      0.304300
     33 N7         -2.4990    7.0550    9.4510 nb        1 Q7M     -0.685000
     34 C3         -1.6900    3.4420    8.8050 ca        1 Q7M     -0.149300
     35 C2         -2.2560    2.8810    9.9220 ca        1 Q7M     -0.107000
     36 C1         -2.9030    3.6840   10.8890 ca        1 Q7M     -0.093000
     37 C6         -2.9820    5.0460   10.7360 ca        1 Q7M     -0.175300
     38 H28         1.7360    1.9350    0.5460 ha        1 Q7M      0.182000
     39 H30         2.4580    0.3170   -3.4010 ha        1 Q7M      0.161000
     40 H31         3.4260    2.5040   -4.1310 ha        1 Q7M      0.151000
     41 H32         3.5550    4.4090   -2.5630 ha        1 Q7M      0.138000
     42 HN26        3.3830    5.1410   -0.3330 hn        1 Q7M      0.318500
     43 HN24        2.9240    6.3840    1.6070 hn        1 Q7M      0.320500
     44 H16         2.8840    7.6730    3.5330 ha        1 Q7M      0.172000
     45 H15         1.6760    8.4140    5.5230 ha        1 Q7M      0.151500
     46 H18        -0.3920    4.9480    2.5580 ha        1 Q7M      0.172000
     47 H19        -1.5980    5.7040    4.5460 ha        1 Q7M      0.151500
     48 H212       -0.3450    9.8550    4.9920 hn        1 Q7M      0.482300
     49 H211       -1.1310   10.8530    6.1580 hn        1 Q7M      0.482300
     50 HN41       -2.4340    9.4940   10.4760 hn        1 Q7M      0.465800
     51 HN42       -3.8680    9.3110    9.6560 hn        1 Q7M      0.465800
     52 H3         -1.1850    2.8140    8.0520 ha        1 Q7M      0.169000
     53 H2         -2.2110    1.7900   10.0770 ha        1 Q7M      0.159000
     54 H1         -3.3470    3.2000   11.7740 ha        1 Q7M      0.156000
     55 H6         -3.4880    5.6640   11.4950 ha        1 Q7M      0.150000
     56 H43        -3.3720   10.8400   10.1320 hn        1 Q7M      0.465800
@<TRIPOS>BOND
     1    1    2 1   
     2    2    3 1   
     3    2    4 1   
     4    2    5 1   
     5    5    6 ar  
     6    5    7 ar  
     7    6   10 ar  
     8    6   38 1   
     9    7    8 ar  
    10    7   39 1   
    11    8    9 ar  
    12    8   40 1   
    13    9   10 ar  
    14    9   41 1   
    15   10   11 1   
    16   11   12 1   
    17   11   42 1   
    18   12   13 2   
    19   12   14 1   
    20   14   15 1   
    21   14   43 1   
    22   15   16 ar  
    23   15   18 ar  
    24   16   17 ar  
    25   16   44 1   
    26   17   20 ar  
    27   17   45 1   
    28   18   19 ar  
    29   18   46 1   
    30   19   20 ar  
    31   19   47 1   
    32   20   21 1   
    33   21   22 1   
    34   21   24 1   
    35   22   23 1   
    36   22   26 2   
    37   23   48 1   
    38   23   49 1   
    39   24   25 ar  
    40   24   30 ar  
    41   25   26 1   
    42   25   33 ar  
    43   26   27 1   
    44   27   28 1   
    45   27   29 2   
    46   28   50 1   
    47   28   51 1   
    48   28   56 1   
    49   30   31 ar  
    50   31   32 ar  
    51   31   34 ar  
    52   32   33 ar  
    53   32   37 ar  
    54   34   35 ar  
    55   34   52 1   
    56   35   36 ar  
    57   35   53 1   
    58   36   37 ar  
    59   36   54 1   
    60   37   55 1   
@<TRIPOS>SUBSTRUCTURE
     1 Q7M         1 TEMP              0 ****  ****    0 ROOT
