@<TRIPOS>MOLECULE
Q7U
   36    38     1     0     0
SMALL
bcc


@<TRIPOS>ATOM
      1 CL          2.1300   -1.1250   -3.0250 cl        1 Q7U     -0.032400
      2 CAK         2.6330   -0.4650   -1.5380 ca        1 Q7U      0.003400
      3 CAJ         2.5030   -1.2200   -0.3740 ca        1 Q7U     -0.074000
      4 CAB         2.9200   -0.6910    0.8540 ca        1 Q7U     -0.028000
      5 CAC         3.4630    0.5920    0.9200 ca        1 Q7U     -0.085000
      6 CAD         3.6060    1.3620   -0.2340 ca        1 Q7U     -0.063000
      7 CAL         3.2000    0.8310   -1.4730 ca        1 Q7U     -0.107400
      8 NAM         3.4210    1.6130   -2.6940 n4        1 Q7U     -0.488200
      9 CAN         2.1650    2.3190   -3.1100 c         1 Q7U      0.507100
     10 OAE         1.8990    3.4430   -2.7230 o         1 Q7U     -0.302100
     11 NAO         1.2340    1.5820   -4.0330 n4        1 Q7U     -0.551800
     12 CAP         1.7990    1.5770   -5.3810 cc        1 Q7U      0.293700
     13 NAQ         3.1200    1.2590   -5.6100 nd        1 Q7U     -0.563100
     14 CAR         3.2760    1.3710   -6.9780 ca        1 Q7U      0.085400
     15 CAS         4.4070    1.1460   -7.8050 ca        1 Q7U     -0.062000
     16 CAT         4.2640    1.3380   -9.1600 ca        1 Q7U     -0.101000
     17 CAI         3.0340    1.7480   -9.7400 ca        1 Q7U     -0.033000
     18 CAH         1.9040    1.9780   -8.9820 ca        1 Q7U     -0.136000
     19 CAG         2.0140    1.7940   -7.5890 ca        1 Q7U     -0.012200
     20 NAF         1.0930    1.9520   -6.5520 na        1 Q7U     -0.072300
     21 CAA        -0.2990    2.2630   -6.6460 c3        1 Q7U     -0.014400
     22 HAJ         2.0770   -2.2410   -0.4200 ha        1 Q7U      0.206000
     23 HAB         2.8170   -1.3010    1.7730 ha        1 Q7U      0.204000
     24 HAC         3.7920    1.0080    1.8920 ha        1 Q7U      0.203000
     25 HAD         4.0450    2.3730   -0.1540 ha        1 Q7U      0.180000
     26 HAM         4.1310    2.3480   -2.5010 hn        1 Q7U      0.519300
     27 HAO         1.1350    0.5760   -3.7140 hn        1 Q7U      0.508300
     28 HAS         5.3620    0.8240   -7.3620 ha        1 Q7U      0.175000
     29 HAT         5.1280    1.1700   -9.8300 ha        1 Q7U      0.183000
     30 HAI         2.9890    1.8830  -10.8370 ha        1 Q7U      0.184000
     31 HAH         0.9570    2.2930   -9.4440 ha        1 Q7U      0.174000
     32 HAA1       -0.5430    3.1430   -5.9910 h1        1 Q7U      0.091367
     33 HAA2       -0.5410    2.5340   -7.7130 h1        1 Q7U      0.091367
     34 HAA3       -0.9250    1.3760   -6.3530 h1        1 Q7U      0.091367
     35 HAM2        3.7870    0.9950   -3.4510 hn        1 Q7U      0.519300
     36 HAO2        0.3140    2.0590   -4.0260 hn        1 Q7U      0.508300
@<TRIPOS>BOND
     1    1    2 1   
     2    2    3 ar  
     3    2    7 ar  
     4    3    4 ar  
     5    3   22 1   
     6    4    5 ar  
     7    4   23 1   
     8    5    6 ar  
     9    5   24 1   
    10    6    7 ar  
    11    6   25 1   
    12    7    8 1   
    13    8    9 1   
    14    8   26 1   
    15    8   35 1   
    16    9   10 2   
    17    9   11 1   
    18   11   12 1   
    19   11   27 1   
    20   11   36 1   
    21   12   13 2   
    22   12   20 1   
    23   13   14 1   
    24   14   15 ar  
    25   14   19 ar  
    26   15   16 ar  
    27   15   28 1   
    28   16   17 ar  
    29   16   29 1   
    30   17   18 ar  
    31   17   30 1   
    32   18   19 ar  
    33   18   31 1   
    34   19   20 1   
    35   20   21 1   
    36   21   32 1   
    37   21   33 1   
    38   21   34 1   
@<TRIPOS>SUBSTRUCTURE
     1 Q7U         1 TEMP              0 ****  ****    0 ROOT
