@<TRIPOS>MOLECULE
Q7U
   34    36     1     0     0
SMALL
bcc


@<TRIPOS>ATOM
      1 Cl          1.3500   -2.4670   -0.8050 cl        1 Q7U     -0.102400
      2 CAK         2.0020   -0.9630   -0.3290 ca        1 Q7U     -0.030600
      3 CAJ         1.9720   -0.6260    1.0250 ca        1 Q7U     -0.102000
      4 CAB         2.4900    0.5930    1.4530 ca        1 Q7U     -0.140000
      5 CAC         3.0430    1.4730    0.5250 ca        1 Q7U     -0.107000
      6 CAD         3.0890    1.1480   -0.8270 ca        1 Q7U     -0.127000
      7 CAL         2.5680   -0.0810   -1.2850 ca        1 Q7U      0.068600
      8 NAM         2.6550   -0.4700   -2.6360 ns        1 Q7U     -0.458100
      9 CAN         2.5200    0.4420   -3.7000 c         1 Q7U      0.760100
     10 OAE         2.5370    1.6790   -3.5310 o         1 Q7U     -0.603100
     11 NAO         2.3220   -0.1100   -5.0020 ns        1 Q7U     -0.435400
     12 CAP         2.6310    0.7090   -6.1200 cc        1 Q7U      0.439400
     13 NAQ         3.6540    0.4830   -6.9970 nd        1 Q7U     -0.584100
     14 CAR         3.5260    1.4800   -7.9750 ca        1 Q7U      0.074400
     15 CAS         4.2920    1.7410   -9.1230 ca        1 Q7U     -0.072000
     16 CAT         3.9380    2.8190   -9.9170 ca        1 Q7U     -0.150000
     17 CAI         2.8410    3.6440   -9.6020 ca        1 Q7U     -0.115000
     18 CAH         2.0570    3.4210   -8.4820 ca        1 Q7U     -0.128000
     19 CAG         2.3940    2.3350   -7.6610 ca        1 Q7U     -0.070200
     20 NAF         1.8180    1.8200   -6.4950 na        1 Q7U     -0.131300
     21 CAA         0.7510    2.3980   -5.7470 c3        1 Q7U      0.025600
     22 HAJ         1.5340   -1.3270    1.7530 ha        1 Q7U      0.149000
     23 HAB         2.4600    0.8570    2.5200 ha        1 Q7U      0.141000
     24 HAC         3.4520    2.4390    0.8600 ha        1 Q7U      0.142000
     25 HAD         3.5270    1.8630   -1.5440 ha        1 Q7U      0.174000
     26 HAM         2.4530   -1.4320   -2.8120 hn        1 Q7U      0.324500
     27 HAO         2.6100   -1.0600   -5.1400 hn        1 Q7U      0.322500
     28 HAS         5.1490    1.1010   -9.3730 ha        1 Q7U      0.147000
     29 HAT         4.5260    3.0420  -10.8200 ha        1 Q7U      0.133000
     30 HAI         2.6030    4.4880  -10.2670 ha        1 Q7U      0.132000
     31 HAH         1.2040    4.0700   -8.2430 ha        1 Q7U      0.136000
     32 HAA1        0.1960    3.1240   -6.3990 h1        1 Q7U      0.061700
     33 HAA2        0.0490    1.5900   -5.4070 h1        1 Q7U      0.061700
     34 HAA3        1.1490    2.9360   -4.8410 h1        1 Q7U      0.061700
@<TRIPOS>BOND
     1    1    2 1   
     2    2    3 ar  
     3    2    7 ar  
     4    3    4 ar  
     5    3   22 1   
     6    4    5 ar  
     7    4   23 1   
     8    5    6 ar  
     9    5   24 1   
    10    6    7 ar  
    11    6   25 1   
    12    7    8 1   
    13    8    9 1   
    14    8   26 1   
    15    9   10 2   
    16    9   11 1   
    17   11   12 1   
    18   11   27 1   
    19   12   13 2   
    20   12   20 1   
    21   13   14 1   
    22   14   15 ar  
    23   14   19 ar  
    24   15   16 ar  
    25   15   28 1   
    26   16   17 ar  
    27   16   29 1   
    28   17   18 ar  
    29   17   30 1   
    30   18   19 ar  
    31   18   31 1   
    32   19   20 1   
    33   20   21 1   
    34   21   32 1   
    35   21   33 1   
    36   21   34 1   
@<TRIPOS>SUBSTRUCTURE
     1 Q7U         1 TEMP              0 ****  ****    0 ROOT
