@<TRIPOS>MOLECULE
Q7U
   34    36     1     0     0
SMALL
bcc


@<TRIPOS>ATOM
      1 CL          4.1890   -1.1170   -2.3150 cl        1 Q7U     -0.102400
      2 CAK         4.1230   -0.1850   -0.8870 ca        1 Q7U     -0.030600
      3 CAJ         5.3040    0.0180   -0.1720 ca        1 Q7U     -0.102000
      4 CAB         5.2910    0.7680    1.0000 ca        1 Q7U     -0.140000
      5 CAC         4.0950    1.3200    1.4550 ca        1 Q7U     -0.107000
      6 CAD         2.9110    1.1360    0.7490 ca        1 Q7U     -0.127000
      7 CAL         2.8980    0.3770   -0.4420 ca        1 Q7U      0.068600
      8 NAM         1.7320    0.2220   -1.2140 n         1 Q7U     -0.458100
      9 CAN         0.4520    0.0870   -0.6420 c         1 Q7U      0.760100
     10 OAE         0.2290    0.3160    0.5650 o         1 Q7U     -0.603100
     11 NAO        -0.5950   -0.3640   -1.5010 n         1 Q7U     -0.435400
     12 CAP        -1.9330   -0.0850   -1.1140 cc        1 Q7U      0.439400
     13 NAQ        -2.7760    0.7670   -1.7700 nd        1 Q7U     -0.584100
     14 CAR        -4.0000    0.6640   -1.0950 ca        1 Q7U      0.074400
     15 CAS        -5.2300    1.3030   -1.3240 ca        1 Q7U     -0.072000
     16 CAT        -6.2870    1.0150   -0.4770 ca        1 Q7U     -0.150000
     17 CAI        -6.1560    0.1070    0.5910 ca        1 Q7U     -0.115000
     18 CAH        -4.9630   -0.5460    0.8530 ca        1 Q7U     -0.128000
     19 CAG        -3.8770   -0.2730    0.0090 ca        1 Q7U     -0.070200
     20 NAF        -2.5660   -0.7620   -0.0290 na        1 Q7U     -0.131300
     21 CAA        -1.9500   -1.6210    0.9260 c3        1 Q7U      0.025600
     22 HAJ         6.2460   -0.4210   -0.5380 ha        1 Q7U      0.149000
     23 HAB         6.2230    0.9210    1.5630 ha        1 Q7U      0.141000
     24 HAC         4.0810    1.9140    2.3820 ha        1 Q7U      0.142000
     25 HAD         1.9750    1.5780    1.1300 ha        1 Q7U      0.174000
     26 HAM         1.8770   -0.1460   -2.1310 hn        1 Q7U      0.324500
     27 HAO        -0.4560   -0.2450   -2.4860 hn        1 Q7U      0.322500
     28 HAS        -5.3380    2.0120   -2.1560 ha        1 Q7U      0.147000
     29 HAT        -7.2580    1.5060   -0.6380 ha        1 Q7U      0.133000
     30 HAI        -7.0280   -0.0850    1.2350 ha        1 Q7U      0.132000
     31 HAH        -4.8690   -1.2510    1.6890 ha        1 Q7U      0.136000
     32 HAA1       -1.2860   -1.0310    1.6170 h1        1 Q7U      0.062033
     33 HAA2       -2.7480   -2.1370    1.5240 h1        1 Q7U      0.062033
     34 HAA3       -1.3280   -2.3900    0.3950 h1        1 Q7U      0.062033
@<TRIPOS>BOND
     1    1    2 1   
     2    2    3 ar  
     3    2    7 ar  
     4    3    4 ar  
     5    3   22 1   
     6    4    5 ar  
     7    4   23 1   
     8    5    6 ar  
     9    5   24 1   
    10    6    7 ar  
    11    6   25 1   
    12    7    8 1   
    13    8    9 1   
    14    8   26 1   
    15    9   10 2   
    16    9   11 1   
    17   11   12 1   
    18   11   27 1   
    19   12   13 2   
    20   12   20 1   
    21   13   14 1   
    22   14   15 ar  
    23   14   19 ar  
    24   15   16 ar  
    25   15   28 1   
    26   16   17 ar  
    27   16   29 1   
    28   17   18 ar  
    29   17   30 1   
    30   18   19 ar  
    31   18   31 1   
    32   19   20 1   
    33   20   21 1   
    34   21   32 1   
    35   21   33 1   
    36   21   34 1   
@<TRIPOS>SUBSTRUCTURE
     1 Q7U         1 TEMP              0 ****  ****    0 ROOT
