@<TRIPOS>MOLECULE
Q7U
   34    36     1     0     0
SMALL
bcc


@<TRIPOS>ATOM
      1 CL          1.2640   -2.4000   -0.7670 cl        1 Q7U     -0.102400
      2 CAK         1.9680   -0.9160   -0.3080 ca        1 Q7U     -0.030600
      3 CAJ         1.9620   -0.5680    1.0440 ca        1 Q7U     -0.102000
      4 CAB         2.5220    0.6360    1.4580 ca        1 Q7U     -0.140000
      5 CAC         3.0950    1.4920    0.5190 ca        1 Q7U     -0.107000
      6 CAD         3.1180    1.1560   -0.8310 ca        1 Q7U     -0.127000
      7 CAL         2.5530   -0.0590   -1.2760 ca        1 Q7U      0.068600
      8 NAM         2.6140   -0.4590   -2.6240 n         1 Q7U     -0.458100
      9 CAN         2.4990    0.4480   -3.6940 c         1 Q7U      0.760100
     10 OAE         2.5580    1.6850   -3.5340 o         1 Q7U     -0.603100
     11 NAO         2.2720   -0.1060   -4.9890 n         1 Q7U     -0.434400
     12 CAP         2.5980    0.6940   -6.1170 cc        1 Q7U      0.439400
     13 NAQ         3.6070    0.4300   -6.9990 nd        1 Q7U     -0.584100
     14 CAR         3.5030    1.4230   -7.9830 ca        1 Q7U      0.074400
     15 CAS         4.2680    1.6520   -9.1390 ca        1 Q7U     -0.072000
     16 CAT         3.9410    2.7340   -9.9380 ca        1 Q7U     -0.150000
     17 CAI         2.8730    3.5950   -9.6230 ca        1 Q7U     -0.115000
     18 CAH         2.0910    3.4050   -8.4950 ca        1 Q7U     -0.128000
     19 CAG         2.4010    2.3150   -7.6680 ca        1 Q7U     -0.069200
     20 NAF         1.8170    1.8270   -6.4940 na        1 Q7U     -0.131300
     21 CAA         0.7730    2.4420   -5.7430 c3        1 Q7U      0.025600
     22 HAJ         1.5080   -1.2500    1.7810 ha        1 Q7U      0.149000
     23 HAB         2.5110    0.9090    2.5230 ha        1 Q7U      0.141000
     24 HAC         3.5380    2.4470    0.8420 ha        1 Q7U      0.142000
     25 HAD         3.5710    1.8510   -1.5580 ha        1 Q7U      0.174000
     26 HAM         2.3800   -1.4160   -2.7920 hn        1 Q7U      0.324500
     27 HAO         2.5280   -1.0660   -5.1230 hn        1 Q7U      0.322500
     28 HAS         5.1040    0.9840   -9.3900 ha        1 Q7U      0.147000
     29 HAT         4.5300    2.9330  -10.8470 ha        1 Q7U      0.133000
     30 HAI         2.6570    4.4420  -10.2920 ha        1 Q7U      0.132000
     31 HAH         1.2610    4.0820   -8.2550 ha        1 Q7U      0.136000
     32 HAA1        0.2400    3.1850   -6.3940 h1        1 Q7U      0.062033
     33 HAA2        0.0450    1.6590   -5.4000 h1        1 Q7U      0.062033
     34 HAA3        1.1920    2.9680   -4.8400 h1        1 Q7U      0.062033
@<TRIPOS>BOND
     1    1    2 1   
     2    2    3 ar  
     3    2    7 ar  
     4    3    4 ar  
     5    3   22 1   
     6    4    5 ar  
     7    4   23 1   
     8    5    6 ar  
     9    5   24 1   
    10    6    7 ar  
    11    6   25 1   
    12    7    8 1   
    13    8    9 1   
    14    8   26 1   
    15    9   10 2   
    16    9   11 1   
    17   11   12 1   
    18   11   27 1   
    19   12   13 2   
    20   12   20 1   
    21   13   14 1   
    22   14   15 ar  
    23   14   19 ar  
    24   15   16 ar  
    25   15   28 1   
    26   16   17 ar  
    27   16   29 1   
    28   17   18 ar  
    29   17   30 1   
    30   18   19 ar  
    31   18   31 1   
    32   19   20 1   
    33   20   21 1   
    34   21   32 1   
    35   21   33 1   
    36   21   34 1   
@<TRIPOS>SUBSTRUCTURE
     1 Q7U         1 TEMP              0 ****  ****    0 ROOT
