@<TRIPOS>MOLECULE
Q80
   53    56     1     0     0
SMALL
bcc


@<TRIPOS>ATOM
      1 CLBF       -6.1430   -4.9500    0.2570 cl        1 Q80     -0.093400
      2 CAB        -5.1050   -3.6040    0.3130 ca        1 Q80      0.015400
      3 CAC        -4.1270   -3.4410   -0.6730 ca        1 Q80     -0.122000
      4 CAD        -3.2790   -2.3360   -0.6230 ca        1 Q80     -0.118500
      5 CAA        -5.2340   -2.6700    1.3450 ca        1 Q80     -0.122000
      6 CAF        -4.3810   -1.5700    1.3850 ca        1 Q80     -0.118500
      7 CAE        -3.3990   -1.3930    0.4030 ca        1 Q80     -0.080300
      8 CAG        -2.4880   -0.2190    0.4610 c3        1 Q80     -0.037100
      9 CAH        -3.1750    1.0400   -0.0290 c3        1 Q80     -0.081400
     10 CAI        -2.2520    2.2610    0.0360 c3        1 Q80      0.329600
     11 OAP        -1.0950    2.0560   -0.7740 os        1 Q80     -0.432600
     12 CAJ        -3.0320    3.5100   -0.4660 c3        1 Q80      0.020300
     13 NAK        -2.2880    4.7260   -0.5140 na        1 Q80     -0.205900
     14 CAO        -1.3180    5.0800   -1.4690 cc        1 Q80      0.388400
     15 NAN        -0.8090    6.3030   -1.2210 nd        1 Q80     -0.670000
     16 CAM        -1.4580    6.7610   -0.0730 cd        1 Q80      0.285200
     17 CAL        -2.3740    5.7970    0.3830 cc        1 Q80     -0.250600
     18 OAS        -1.7930    2.4610    1.3700 os        1 Q80     -0.430600
     19 CAR        -0.3680    2.5960    1.4010 c3        1 Q80      0.111400
     20 CAQ         0.1100    2.2410   -0.0100 c3        1 Q80      0.131100
     21 CAT         0.9190    0.9600   -0.0890 c3        1 Q80     -0.057300
     22 SAU         2.6150    1.4190    0.1000 ss        1 Q80     -0.222400
     23 CAV         3.4980   -0.0290    0.0570 ca        1 Q80      0.510600
     24 CBA         4.9020    0.1110    0.1830 ca        1 Q80     -0.246300
     25 NAW         2.8950   -1.2360   -0.0880 nb        1 Q80     -0.691000
     26 CAX         3.6750   -2.3290   -0.1130 ca        1 Q80      0.470200
     27 CAY         5.0770   -2.2780    0.0040 ca        1 Q80     -0.312600
     28 CAZ         5.6950   -1.0310    0.1560 ca        1 Q80     -0.025000
     29 CBB         5.8980   -3.5520   -0.0500 c3        1 Q80      0.698200
     30 FBD         6.3060   -3.9080   -1.3140 f         1 Q80     -0.234967
     31 FBE         7.0640   -3.5090    0.6760 f         1 Q80     -0.234967
     32 FBC         5.2480   -4.6680    0.4180 f         1 Q80     -0.234967
     33 HAC        -4.0250   -4.1790   -1.4830 ha        1 Q80      0.148000
     34 HAD        -2.5070   -2.2090   -1.3980 ha        1 Q80      0.138500
     35 HAA        -6.0030   -2.8020    2.1220 ha        1 Q80      0.148000
     36 HAF        -4.4780   -0.8340    2.1980 ha        1 Q80      0.138500
     37 HAG        -2.1420   -0.0580    1.5190 hc        1 Q80      0.061200
     38 HAGA       -1.5710   -0.4010   -0.1640 hc        1 Q80      0.061200
     39 HAH        -3.5040    0.9070   -1.0910 hc        1 Q80      0.064200
     40 HAHA       -4.0770    1.2500    0.6020 hc        1 Q80      0.064200
     41 HAJ        -3.4010    3.2710   -1.5050 h1        1 Q80      0.077200
     42 HAJA       -3.9130    3.6490    0.2230 h1        1 Q80      0.077200
     43 HAO        -1.0390    4.4110   -2.2900 h5        1 Q80      0.067100
     44 HAM        -1.2390    7.7390    0.3520 h4        1 Q80      0.042100
     45 HAL        -3.0500    5.7900    1.2350 h4        1 Q80      0.179000
     46 HAR        -0.1300    3.6560    1.6730 h1        1 Q80      0.072200
     47 HARA        0.0020    1.8940    2.1890 h1        1 Q80      0.072200
     48 HAQ         0.6580    3.0950   -0.4980 h1        1 Q80      0.092700
     49 HAT         0.5990    0.2340    0.6970 h1        1 Q80      0.097200
     50 HATA        0.7470    0.4690   -1.0800 h1        1 Q80      0.097200
     51 HBA         5.3480    1.1090    0.3000 ha        1 Q80      0.163000
     52 HAX         3.1500   -3.2970   -0.2270 h4        1 Q80      0.043100
     53 HAZ         6.7900   -0.9620    0.2560 ha        1 Q80      0.160000
@<TRIPOS>BOND
     1    1    2 1   
     2    2    3 ar  
     3    2    5 ar  
     4    3    4 ar  
     5    3   33 1   
     6    4    7 ar  
     7    4   34 1   
     8    5    6 ar  
     9    5   35 1   
    10    6    7 ar  
    11    6   36 1   
    12    7    8 1   
    13    8    9 1   
    14    8   37 1   
    15    8   38 1   
    16    9   10 1   
    17    9   39 1   
    18    9   40 1   
    19   10   11 1   
    20   10   12 1   
    21   10   18 1   
    22   11   20 1   
    23   12   13 1   
    24   12   41 1   
    25   12   42 1   
    26   13   14 1   
    27   13   17 1   
    28   14   15 2   
    29   14   43 1   
    30   15   16 1   
    31   16   17 2   
    32   16   44 1   
    33   17   45 1   
    34   18   19 1   
    35   19   20 1   
    36   19   46 1   
    37   19   47 1   
    38   20   21 1   
    39   20   48 1   
    40   21   22 1   
    41   21   49 1   
    42   21   50 1   
    43   22   23 1   
    44   23   24 ar  
    45   23   25 ar  
    46   24   28 ar  
    47   24   51 1   
    48   25   26 ar  
    49   26   27 ar  
    50   26   52 1   
    51   27   28 ar  
    52   27   29 1   
    53   28   53 1   
    54   29   30 1   
    55   29   31 1   
    56   29   32 1   
@<TRIPOS>SUBSTRUCTURE
     1 Q80         1 TEMP              0 ****  ****    0 ROOT
