@<TRIPOS>MOLECULE
Q80
   53    56     1     0     0
SMALL
bcc


@<TRIPOS>ATOM
      1 CLBF        0.5920    1.2580    0.2320 cl        1 Q80     -0.093400
      2 CAB         2.2600    0.9300    0.2630 ca        1 Q80      0.015400
      3 CAC         2.8980    0.6920    1.4840 ca        1 Q80     -0.122000
      4 CAD         4.2650    0.4230    1.5030 ca        1 Q80     -0.118500
      5 CAA         2.9830    0.9020   -0.9340 ca        1 Q80     -0.122000
      6 CAF         4.3490    0.6320   -0.9020 ca        1 Q80     -0.118500
      7 CAE         5.0010    0.3900    0.3130 ca        1 Q80     -0.080300
      8 CAG         6.4620    0.1110    0.3360 c3        1 Q80     -0.037100
      9 CAH         6.7610   -1.3140   -0.0850 c3        1 Q80     -0.081400
     10 CAI         8.2630   -1.6120   -0.0770 c3        1 Q80      0.329600
     11 OAP         8.8040   -1.4230    1.2300 os        1 Q80     -0.432600
     12 CAJ         8.4870   -3.0830   -0.5330 c3        1 Q80      0.020300
     13 NAK         9.8410   -3.5320   -0.5300 na        1 Q80     -0.205900
     14 CAO        10.6100   -3.8750    0.5960 cc        1 Q80      0.388400
     15 NAN        11.8520   -4.2610    0.2420 nd        1 Q80     -0.670000
     16 CAM        11.9010   -4.1640   -1.1500 cd        1 Q80      0.285200
     17 CAL        10.6660   -3.7100   -1.6470 cc        1 Q80     -0.250600
     18 OAS         8.9480   -0.7110   -0.9430 os        1 Q80     -0.430600
     19 CAR        10.0520   -0.1000   -0.2680 c3        1 Q80      0.111400
     20 CAQ         9.9090   -0.5030    1.2030 c3        1 Q80      0.131100
     21 CAT         9.5870    0.6490    2.1350 c3        1 Q80     -0.057300
     22 SAU        11.1320    1.2800    2.7170 ss        1 Q80     -0.222400
     23 CAV        10.7520    2.5950    3.7180 ca        1 Q80      0.510600
     24 CBA        11.8610    3.2510    4.3060 ca        1 Q80     -0.246300
     25 NAW         9.4720    2.9870    3.9370 nb        1 Q80     -0.691000
     26 CAX         9.2670    4.0380    4.7460 ca        1 Q80      0.470200
     27 CAY        10.3120    4.7450    5.3730 ca        1 Q80     -0.312600
     28 CAZ        11.6310    4.3380    5.1430 ca        1 Q80     -0.025000
     29 CBB        10.0060    5.9140    6.2900 c3        1 Q80      0.698200
     30 FBD         9.8380    5.5670    7.6090 f         1 Q80     -0.234967
     31 FBE        10.9800    6.8830    6.3210 f         1 Q80     -0.234967
     32 FBC         8.8560    6.5980    5.9760 f         1 Q80     -0.234967
     33 HAC         2.3270    0.7170    2.4240 ha        1 Q80      0.148000
     34 HAD         4.7680    0.2370    2.4640 ha        1 Q80      0.138500
     35 HAA         2.4800    1.0920   -1.8930 ha        1 Q80      0.148000
     36 HAF         4.9230    0.6120   -1.8410 ha        1 Q80      0.138500
     37 HAG         6.8790    0.2840    1.3650 hc        1 Q80      0.061200
     38 HAGA        6.9930    0.8160   -0.3610 hc        1 Q80      0.061200
     39 HAH         6.3730   -1.4940   -1.1210 hc        1 Q80      0.064200
     40 HAHA        6.2600   -2.0310    0.6150 hc        1 Q80      0.064200
     41 HAJ         7.8880   -3.7370    0.1640 h1        1 Q80      0.077200
     42 HAJA        8.0760   -3.1720   -1.5770 h1        1 Q80      0.077200
     43 HAO        10.2090   -3.8150    1.6140 h5        1 Q80      0.067100
     44 HAM        12.8000   -4.4240   -1.7070 h4        1 Q80      0.042100
     45 HAL        10.3270   -3.5100   -2.6600 h4        1 Q80      0.179000
     46 HAR         9.9620    1.0010   -0.4410 h1        1 Q80      0.072200
     47 HARA       10.9950   -0.4960   -0.7240 h1        1 Q80      0.072200
     48 HAQ        10.8030   -1.0820    1.5700 h1        1 Q80      0.092700
     49 HAT         8.9920    1.4360    1.6110 h1        1 Q80      0.097200
     50 HATA        8.9620    0.2780    2.9870 h1        1 Q80      0.097200
     51 HBA        12.8830    2.9000    4.1010 ha        1 Q80      0.163000
     52 HAX         8.2110    4.3350    4.8990 h4        1 Q80      0.043100
     53 HAZ        12.4690    4.8770    5.6140 ha        1 Q80      0.160000
@<TRIPOS>BOND
     1    1    2 1   
     2    2    3 ar  
     3    2    5 ar  
     4    3    4 ar  
     5    3   33 1   
     6    4    7 ar  
     7    4   34 1   
     8    5    6 ar  
     9    5   35 1   
    10    6    7 ar  
    11    6   36 1   
    12    7    8 1   
    13    8    9 1   
    14    8   37 1   
    15    8   38 1   
    16    9   10 1   
    17    9   39 1   
    18    9   40 1   
    19   10   11 1   
    20   10   12 1   
    21   10   18 1   
    22   11   20 1   
    23   12   13 1   
    24   12   41 1   
    25   12   42 1   
    26   13   14 1   
    27   13   17 1   
    28   14   15 2   
    29   14   43 1   
    30   15   16 1   
    31   16   17 2   
    32   16   44 1   
    33   17   45 1   
    34   18   19 1   
    35   19   20 1   
    36   19   46 1   
    37   19   47 1   
    38   20   21 1   
    39   20   48 1   
    40   21   22 1   
    41   21   49 1   
    42   21   50 1   
    43   22   23 1   
    44   23   24 ar  
    45   23   25 ar  
    46   24   28 ar  
    47   24   51 1   
    48   25   26 ar  
    49   26   27 ar  
    50   26   52 1   
    51   27   28 ar  
    52   27   29 1   
    53   28   53 1   
    54   29   30 1   
    55   29   31 1   
    56   29   32 1   
@<TRIPOS>SUBSTRUCTURE
     1 Q80         1 TEMP              0 ****  ****    0 ROOT
