@<TRIPOS>MOLECULE
Q80
   53    56     1     0     0
SMALL
bcc


@<TRIPOS>ATOM
      1 ClBF        0.2890    0.6440    0.2300 cl        1 Q80     -0.093400
      2 CAB         1.9820    0.4860    0.2190 ca        1 Q80      0.015400
      3 CAC         2.6880    0.4910    1.4250 ca        1 Q80     -0.122000
      4 CAD         4.0750    0.3610    1.4100 ca        1 Q80     -0.119000
      5 CAA         2.6580    0.3530   -0.9980 ca        1 Q80     -0.122000
      6 CAF         4.0440    0.2240   -1.0020 ca        1 Q80     -0.119000
      7 CAE         4.7640    0.2260    0.1990 ca        1 Q80     -0.081300
      8 CAG         6.2460    0.0960    0.1830 c3        1 Q80     -0.035100
      9 CAH         6.6720   -1.3440   -0.0250 c3        1 Q80     -0.077400
     10 CAI         8.1950   -1.4930   -0.0800 c3        1 Q80      0.329600
     11 OAP         8.7790   -1.0440    1.1410 os        1 Q80     -0.432600
     12 CAJ         8.5420   -2.9900   -0.3280 c3        1 Q80      0.015300
     13 NAK         9.9330   -3.3070   -0.3460 na        1 Q80     -0.206900
     14 CAO        10.7810   -3.4320    0.7690 cc        1 Q80      0.385400
     15 NAN        12.0380   -3.7460    0.3960 nd        1 Q80     -0.669000
     16 CAM        12.0150   -3.8260   -0.9970 cd        1 Q80      0.285200
     17 CAL        10.7220   -3.5540   -1.4760 cc        1 Q80     -0.251600
     18 OAS         8.7340   -0.6760   -1.1150 os        1 Q80     -0.430600
     19 CAR         9.8460    0.0840   -0.6310 c3        1 Q80      0.114400
     20 CAQ         9.8900   -0.1650    0.8820 c3        1 Q80      0.129100
     21 CAT         9.7240    1.0870    1.7180 c3        1 Q80     -0.047300
     22 SAU        10.9170    0.9780    3.0210 ss        1 Q80     -0.214400
     23 CAV        10.7580    2.4010    3.9270 ca        1 Q80      0.507600
     24 CBA        11.6340    2.5210    5.0340 ca        1 Q80     -0.247300
     25 NAW         9.8510    3.3590    3.6090 nb        1 Q80     -0.693000
     26 CAX         9.7930    4.4520    4.3850 ca        1 Q80      0.470200
     27 CAY        10.6250    4.6490    5.5040 ca        1 Q80     -0.314600
     28 CAZ        11.5620    3.6600    5.8280 ca        1 Q80     -0.025000
     29 CBB        10.4930    5.9020    6.3480 c3        1 Q80      0.699200
     30 FBD         9.5990    5.7920    7.3860 f         1 Q80     -0.235633
     31 FBE        11.6580    6.3070    6.9520 f         1 Q80     -0.235633
     32 FBC        10.0660    7.0110    5.6570 f         1 Q80     -0.235633
     33 HAC         2.1540    0.5980    2.3820 ha        1 Q80      0.148000
     34 HAD         4.6310    0.3670    2.3600 ha        1 Q80      0.138500
     35 HAA         2.1000    0.3520   -1.9470 ha        1 Q80      0.148000
     36 HAF         4.5810    0.1230   -1.9580 ha        1 Q80      0.138500
     37 HAG         6.6820    0.4700    1.1490 hc        1 Q80      0.061200
     38 HAGA        6.6730    0.7270   -0.6430 hc        1 Q80      0.061200
     39 HAH         6.2490   -1.7280   -0.9890 hc        1 Q80      0.064200
     40 HAHA        6.2890   -1.9800    0.8140 hc        1 Q80      0.064200
     41 HAJ         8.0480   -3.5830    0.4940 h1        1 Q80      0.077700
     42 HAJA        8.0920   -3.2750   -1.3200 h1        1 Q80      0.077700
     43 HAO        10.4220   -3.2820    1.7930 h5        1 Q80      0.068100
     44 HAM        12.9090   -4.0740   -1.5670 h4        1 Q80      0.043100
     45 HAL        10.3190   -3.5190   -2.4860 h4        1 Q80      0.180000
     46 HAR        10.7670   -0.2880   -1.1470 h1        1 Q80      0.070700
     47 HARA        9.6460    1.1510   -0.9030 h1        1 Q80      0.070700
     48 HAQ        10.8200   -0.7340    1.1730 h1        1 Q80      0.090700
     49 HAT         8.6850    1.1460    2.1300 h1        1 Q80      0.096700
     50 HATA        9.8960    2.0060    1.1070 h1        1 Q80      0.096700
     51 HBA        12.3560    1.7210    5.2540 ha        1 Q80      0.163000
     52 HAX         9.0460    5.2160    4.0940 h4        1 Q80      0.042100
     53 HAZ        12.2300    3.7900    6.6940 ha        1 Q80      0.160000
@<TRIPOS>BOND
     1    1    2 1   
     2    2    3 ar  
     3    2    5 ar  
     4    3    4 ar  
     5    3   33 1   
     6    4    7 ar  
     7    4   34 1   
     8    5    6 ar  
     9    5   35 1   
    10    6    7 ar  
    11    6   36 1   
    12    7    8 1   
    13    8    9 1   
    14    8   37 1   
    15    8   38 1   
    16    9   10 1   
    17    9   39 1   
    18    9   40 1   
    19   10   11 1   
    20   10   12 1   
    21   10   18 1   
    22   11   20 1   
    23   12   13 1   
    24   12   41 1   
    25   12   42 1   
    26   13   14 1   
    27   13   17 1   
    28   14   15 2   
    29   14   43 1   
    30   15   16 1   
    31   16   17 2   
    32   16   44 1   
    33   17   45 1   
    34   18   19 1   
    35   19   20 1   
    36   19   46 1   
    37   19   47 1   
    38   20   21 1   
    39   20   48 1   
    40   21   22 1   
    41   21   49 1   
    42   21   50 1   
    43   22   23 1   
    44   23   24 ar  
    45   23   25 ar  
    46   24   28 ar  
    47   24   51 1   
    48   25   26 ar  
    49   26   27 ar  
    50   26   52 1   
    51   27   28 ar  
    52   27   29 1   
    53   28   53 1   
    54   29   30 1   
    55   29   31 1   
    56   29   32 1   
@<TRIPOS>SUBSTRUCTURE
     1 Q80         1 TEMP              0 ****  ****    0 ROOT
