@<TRIPOS>MOLECULE
Q82
   82    86     1     0     0
SMALL
bcc


@<TRIPOS>ATOM
      1 N11        -1.0500   -2.5100   -0.0420 ne        1 Q82     -0.544700
      2 O4          1.0120    2.7540    1.2230 oh        1 Q82     -0.605800
      3 O5          0.9460    0.9880    3.6000 oh        1 Q82     -0.605800
      4 N7         -0.0450   -1.4070    1.8630 nh        1 Q82     -0.785600
      5 N2         -0.7090   -0.1840   -0.1840 nh        1 Q82     -0.785600
      6 C1         -0.6020   -1.3950    0.5330 c2        1 Q82      0.900100
      7 C2         -1.8210    0.0110   -1.0940 c3        1 Q82      0.267100
      8 C3          0.3000    0.8570   -0.1300 c3        1 Q82      0.229000
      9 C4          0.4370    1.4550    1.2980 c3        1 Q82      0.100100
     10 C5          1.3430    0.6810    2.2700 c3        1 Q82      0.100100
     11 C6          1.2700   -0.8500    2.0720 c3        1 Q82      0.229000
     12 C7         -0.9900   -1.4580    2.9600 c3        1 Q82      0.267100
     13 C20        -1.5490   -0.0880   -2.5670 ca        1 Q82     -0.119300
     14 C21        -1.4170   -1.3330   -3.1920 ca        1 Q82     -0.115500
     15 C22        -1.2600   -1.4110   -4.5730 ca        1 Q82     -0.122000
     16 C23        -1.2390   -0.2460   -5.3500 ca        1 Q82     -0.082800
     17 C24        -1.3670    0.9980   -4.7280 ca        1 Q82     -0.122000
     18 C25        -1.5180    1.0750   -3.3440 ca        1 Q82     -0.115500
     19 C31         1.6720    0.4820   -0.7360 c3        1 Q82     -0.046600
     20 C32         2.0150    1.2850   -1.9420 ca        1 Q82     -0.087300
     21 C33         2.1820    2.6730   -1.8410 ca        1 Q82     -0.126250
     22 C34         2.5520    3.4210   -2.9560 ca        1 Q82     -0.128500
     23 C35         2.7660    2.7900   -4.1820 ca        1 Q82     -0.128000
     24 C36         2.6090    1.4090   -4.2870 ca        1 Q82     -0.128500
     25 C37         2.2360    0.6580   -3.1730 ca        1 Q82     -0.126250
     26 C61         2.0200   -1.5460    3.2330 c3        1 Q82     -0.046600
     27 C62         3.4930   -1.4210    3.0570 ca        1 Q82     -0.087300
     28 C63         4.1910   -0.3720    3.6690 ca        1 Q82     -0.126250
     29 C64         5.5730   -0.2690    3.5230 ca        1 Q82     -0.128500
     30 C65         6.2690   -1.2100    2.7640 ca        1 Q82     -0.128000
     31 C66         5.5790   -2.2560    2.1520 ca        1 Q82     -0.128500
     32 C67         4.1970   -2.3620    2.2970 ca        1 Q82     -0.126250
     33 C70        -2.2310   -0.6170    2.8530 ca        1 Q82     -0.119300
     34 C71        -3.3810   -1.1310    2.2450 ca        1 Q82     -0.115500
     35 C72        -4.5490   -0.3740    2.1960 ca        1 Q82     -0.122000
     36 C73        -4.5820    0.9060    2.7610 ca        1 Q82     -0.082800
     37 C74        -3.4360    1.4190    3.3750 ca        1 Q82     -0.122000
     38 C75        -2.2670    0.6600    3.4210 ca        1 Q82     -0.115500
     39 C12        -1.0730   -3.6940    0.6260 cg        1 Q82      0.326800
     40 N13        -1.1370   -4.7680    1.0890 n1        1 Q82     -0.417800
     41 C76        -5.8570    1.6820    2.7150 c3        1 Q82      0.175200
     42 C26        -1.0850   -0.3800   -6.8290 c3        1 Q82      0.175200
     43 O76        -5.5810    3.0550    2.9560 oh        1 Q82     -0.599800
     44 O26        -1.0570    0.9090   -7.4250 oh        1 Q82     -0.599800
     45 HO5         1.0820    1.9380    3.7100 ho        1 Q82      0.411000
     46 H21A       -2.6390   -0.7250   -0.8410 h1        1 Q82      0.066950
     47 H22A       -2.2290    1.0450   -0.8770 h1        1 Q82      0.066950
     48 H3         -0.1070    1.7070   -0.7690 h1        1 Q82      0.072200
     49 H4         -0.5920    1.5350    1.7600 h1        1 Q82      0.069700
     50 H5          2.4170    1.0000    2.1300 h1        1 Q82      0.069700
     51 H6          1.8590   -1.0800    1.1300 h1        1 Q82      0.072200
     52 H71A       -0.4400   -1.1600    3.9010 h1        1 Q82      0.066950
     53 H72A       -1.3050   -2.5400    3.0610 h1        1 Q82      0.066950
     54 H21        -1.4460   -2.2580   -2.5940 ha        1 Q82      0.144250
     55 H22        -1.1570   -2.3940   -5.0570 ha        1 Q82      0.142500
     56 H24        -1.3470    1.9160   -5.3360 ha        1 Q82      0.142500
     57 H25        -1.6170    2.0600   -2.8640 ha        1 Q82      0.144250
     58 H311        2.4740    0.6760    0.0290 hc        1 Q82      0.069200
     59 H312        1.7040   -0.6110   -0.9930 hc        1 Q82      0.069200
     60 H33         2.0320    3.1650   -0.8670 ha        1 Q82      0.137000
     61 H34         2.6810    4.5090   -2.8670 ha        1 Q82      0.131750
     62 H35         3.0580    3.3810   -5.0620 ha        1 Q82      0.131500
     63 H36         2.7770    0.9080   -5.2520 ha        1 Q82      0.131750
     64 H37         2.1100   -0.4310   -3.2650 ha        1 Q82      0.137000
     65 H611        1.7100   -1.0880    4.2100 hc        1 Q82      0.069200
     66 H612        1.7420   -2.6340    3.2640 hc        1 Q82      0.069200
     67 H63         3.6380    0.3690    4.2660 ha        1 Q82      0.137000
     68 H64         6.1150    0.5560    4.0090 ha        1 Q82      0.131750
     69 H65         7.3600   -1.1280    2.6500 ha        1 Q82      0.131500
     70 H66         6.1260   -3.0000    1.5540 ha        1 Q82      0.131750
     71 H67         3.6550   -3.1920    1.8180 ha        1 Q82      0.137000
     72 H71        -3.3650   -2.1410    1.8050 ha        1 Q82      0.144250
     73 H72        -5.4480   -0.7850    1.7150 ha        1 Q82      0.142500
     74 H74        -3.4640    2.4260    3.8200 ha        1 Q82      0.142500
     75 H75        -1.3650    1.0620    3.9130 ha        1 Q82      0.144250
     76 H761       -6.5610    1.2920    3.5020 h1        1 Q82      0.032950
     77 H762       -6.3440    1.5690    1.7070 h1        1 Q82      0.032950
     78 H261       -0.1280   -0.9240   -7.0640 h1        1 Q82      0.032950
     79 H262       -1.9480   -0.9710   -7.2460 h1        1 Q82      0.032950
     80 H76        -6.4340    3.5030    2.9620 ho        1 Q82      0.403500
     81 HO6        -0.9890    0.7630   -8.3760 ho        1 Q82      0.403500
     82 HO4         0.3790    3.3200    0.7630 ho        1 Q82      0.411000
@<TRIPOS>BOND
     1    1    6 2   
     2    1   39 1   
     3    2    9 1   
     4    2   82 1   
     5    3   10 1   
     6    3   45 1   
     7    4    6 1   
     8    4   11 1   
     9    4   12 1   
    10    5    6 1   
    11    5    7 1   
    12    5    8 1   
    13    7   13 1   
    14    7   46 1   
    15    7   47 1   
    16    8    9 1   
    17    8   19 1   
    18    8   48 1   
    19    9   10 1   
    20    9   49 1   
    21   10   11 1   
    22   10   50 1   
    23   11   26 1   
    24   11   51 1   
    25   12   33 1   
    26   12   52 1   
    27   12   53 1   
    28   13   14 ar  
    29   13   18 ar  
    30   14   15 ar  
    31   14   54 1   
    32   15   16 ar  
    33   15   55 1   
    34   16   17 ar  
    35   16   42 1   
    36   17   18 ar  
    37   17   56 1   
    38   18   57 1   
    39   19   20 1   
    40   19   58 1   
    41   19   59 1   
    42   20   21 ar  
    43   20   25 ar  
    44   21   22 ar  
    45   21   60 1   
    46   22   23 ar  
    47   22   61 1   
    48   23   24 ar  
    49   23   62 1   
    50   24   25 ar  
    51   24   63 1   
    52   25   64 1   
    53   26   27 1   
    54   26   65 1   
    55   26   66 1   
    56   27   28 ar  
    57   27   32 ar  
    58   28   29 ar  
    59   28   67 1   
    60   29   30 ar  
    61   29   68 1   
    62   30   31 ar  
    63   30   69 1   
    64   31   32 ar  
    65   31   70 1   
    66   32   71 1   
    67   33   34 ar  
    68   33   38 ar  
    69   34   35 ar  
    70   34   72 1   
    71   35   36 ar  
    72   35   73 1   
    73   36   37 ar  
    74   36   41 1   
    75   37   38 ar  
    76   37   74 1   
    77   38   75 1   
    78   39   40 3   
    79   41   43 1   
    80   41   76 1   
    81   41   77 1   
    82   42   44 1   
    83   42   78 1   
    84   42   79 1   
    85   43   80 1   
    86   44   81 1   
@<TRIPOS>SUBSTRUCTURE
     1 Q82         1 TEMP              0 ****  ****    0 ROOT
