@<TRIPOS>MOLECULE
Q82
   82    86     1     0     0
SMALL
bcc


@<TRIPOS>ATOM
      1 N11         0.2110    0.5780    0.8150 ne        1 Q82     -0.544700
      2 O4          5.4420   -1.2010   -0.9300 oh        1 Q82     -0.605800
      3 O5          5.4050   -0.5140    1.9530 oh        1 Q82     -0.605800
      4 N7          2.3410    0.0540    1.8370 nh        1 Q82     -0.786100
      5 N2          2.0370    0.1720   -0.6170 nh        1 Q82     -0.786100
      6 C1          1.5000    0.2660    0.6860 c2        1 Q82      0.900100
      7 C2          1.5110    1.0190   -1.6690 c3        1 Q82      0.267100
      8 C3          3.0380   -0.8110   -0.9880 c3        1 Q82      0.229000
      9 C4          4.3680   -0.6020   -0.2130 c3        1 Q82      0.100100
     10 C5          4.4380   -1.2250    1.1900 c3        1 Q82      0.100100
     11 C6          3.0860   -1.1780    1.9380 c3        1 Q82      0.229000
     12 C7          2.8110    1.2400    2.5230 c3        1 Q82      0.267100
     13 C20         0.6130    0.3890   -2.6930 ca        1 Q82     -0.117800
     14 C21        -0.7260    0.1100   -2.4030 ca        1 Q82     -0.114250
     15 C22        -1.5690   -0.3910   -3.3930 ca        1 Q82     -0.124000
     16 C23        -1.0870   -0.6160   -4.6860 ca        1 Q82     -0.103800
     17 C24         0.2530   -0.3410   -4.9760 ca        1 Q82     -0.124000
     18 C25         1.0970    0.1560   -3.9860 ca        1 Q82     -0.114250
     19 C31         2.5700   -2.2830   -0.9470 c3        1 Q82     -0.046600
     20 C32         2.5420   -2.9250   -2.2910 ca        1 Q82     -0.087800
     21 C33         3.7230   -3.0650   -3.0300 ca        1 Q82     -0.126000
     22 C34         3.7100   -3.7120   -4.2640 ca        1 Q82     -0.128750
     23 C35         2.5170   -4.2300   -4.7690 ca        1 Q82     -0.128000
     24 C36         1.3390   -4.1010   -4.0350 ca        1 Q82     -0.128750
     25 C37         1.3490   -3.4510   -2.8000 ca        1 Q82     -0.126000
     26 C61         3.3070   -1.6070    3.4090 c3        1 Q82     -0.046600
     27 C62         3.5020   -3.0800    3.5030 ca        1 Q82     -0.087800
     28 C63         4.7920   -3.6240    3.4950 ca        1 Q82     -0.126000
     29 C64         4.9750   -5.0010    3.6060 ca        1 Q82     -0.128750
     30 C65         3.8710   -5.8460    3.7250 ca        1 Q82     -0.128000
     31 C66         2.5830   -5.3100    3.7330 ca        1 Q82     -0.128750
     32 C67         2.3980   -3.9320    3.6230 ca        1 Q82     -0.126000
     33 C70         3.2500    2.4050    1.6830 ca        1 Q82     -0.117800
     34 C71         2.3270    3.3810    1.2910 ca        1 Q82     -0.114250
     35 C72         2.7440    4.4900    0.5600 ca        1 Q82     -0.124000
     36 C73         4.0930    4.6400    0.2160 ca        1 Q82     -0.103800
     37 C74         5.0180    3.6700    0.6120 ca        1 Q82     -0.124000
     38 C75         4.5980    2.5590    1.3420 ca        1 Q82     -0.114250
     39 C12        -0.3510    0.7860    2.0350 cg        1 Q82      0.326800
     40 N13        -0.9510    0.9810    3.0210 n1        1 Q82     -0.415800
     41 C76         4.5130    5.8540   -0.5450 c3        1 Q82      0.173200
     42 C26        -2.0000   -1.1660   -5.7320 c3        1 Q82      0.173200
     43 O76         5.7730    5.6120   -1.1550 oh        1 Q82     -0.598300
     44 O26        -1.5860   -0.8750   -7.0530 oh        1 Q82     -0.598300
     45 HO5         6.2500   -0.6400    1.5010 ho        1 Q82      0.411000
     46 H21A        2.4100    1.4540   -2.2040 h1        1 Q82      0.067200
     47 H22A        0.9550    1.8850   -1.2040 h1        1 Q82      0.067200
     48 H3          3.2910   -0.5890   -2.0760 h1        1 Q82      0.071700
     49 H4          4.5650    0.5090   -0.1180 h1        1 Q82      0.069700
     50 H5          4.7570   -2.3050    1.1150 h1        1 Q82      0.069700
     51 H6          2.4320   -1.9770    1.4690 h1        1 Q82      0.071700
     52 H71A        1.9610    1.5840    3.1860 h1        1 Q82      0.067200
     53 H72A        3.6740    0.9340    3.1850 h1        1 Q82      0.067200
     54 H21        -1.1230    0.2940   -1.3920 ha        1 Q82      0.145000
     55 H22        -2.6230   -0.6050   -3.1560 ha        1 Q82      0.141000
     56 H24         0.6370   -0.5280   -5.9910 ha        1 Q82      0.141000
     57 H25         2.1500    0.3660   -4.2250 ha        1 Q82      0.145000
     58 H311        3.2850   -2.8760   -0.3140 hc        1 Q82      0.069450
     59 H312        1.5530   -2.3610   -0.4750 hc        1 Q82      0.069450
     60 H33         4.6680   -2.6750   -2.6190 ha        1 Q82      0.136500
     61 H34         4.6430   -3.8180   -4.8370 ha        1 Q82      0.132000
     62 H35         2.5070   -4.7420   -5.7420 ha        1 Q82      0.132000
     63 H36         0.3980   -4.5110   -4.4280 ha        1 Q82      0.132000
     64 H37         0.4150   -3.3500   -2.2280 ha        1 Q82      0.136500
     65 H611        2.4160   -1.3110    4.0260 hc        1 Q82      0.069450
     66 H612        4.2030   -1.0740    3.8260 hc        1 Q82      0.069450
     67 H63         5.6610   -2.9540    3.3990 ha        1 Q82      0.136500
     68 H64         5.9910   -5.4210    3.6020 ha        1 Q82      0.132000
     69 H65         4.0160   -6.9330    3.8140 ha        1 Q82      0.132000
     70 H66         1.7110   -5.9730    3.8290 ha        1 Q82      0.132000
     71 H67         1.3810   -3.5110    3.6350 ha        1 Q82      0.136500
     72 H71         1.2650    3.2730    1.5650 ha        1 Q82      0.145000
     73 H72         2.0110    5.2520    0.2550 ha        1 Q82      0.141000
     74 H74         6.0780    3.7910    0.3410 ha        1 Q82      0.141000
     75 H75         5.3290    1.7980    1.6620 ha        1 Q82      0.145000
     76 H761        4.5940    6.7280    0.1600 h1        1 Q82      0.044200
     77 H762        3.7530    6.0990   -1.3380 h1        1 Q82      0.044200
     78 H261       -3.0470   -0.7860   -5.5720 h1        1 Q82      0.044200
     79 H262       -2.0070   -2.2910   -5.6860 h1        1 Q82      0.044200
     80 H76         6.0260    6.4380   -1.5850 ho        1 Q82      0.402500
     81 HO6        -1.5000    0.0840   -7.1220 ho        1 Q82      0.402500
     82 HO4         5.5470   -0.7060   -1.7520 ho        1 Q82      0.411000
@<TRIPOS>BOND
     1    1    6 2   
     2    1   39 1   
     3    2    9 1   
     4    2   82 1   
     5    3   10 1   
     6    3   45 1   
     7    4    6 1   
     8    4   11 1   
     9    4   12 1   
    10    5    6 1   
    11    5    7 1   
    12    5    8 1   
    13    7   13 1   
    14    7   46 1   
    15    7   47 1   
    16    8    9 1   
    17    8   19 1   
    18    8   48 1   
    19    9   10 1   
    20    9   49 1   
    21   10   11 1   
    22   10   50 1   
    23   11   26 1   
    24   11   51 1   
    25   12   33 1   
    26   12   52 1   
    27   12   53 1   
    28   13   14 ar  
    29   13   18 ar  
    30   14   15 ar  
    31   14   54 1   
    32   15   16 ar  
    33   15   55 1   
    34   16   17 ar  
    35   16   42 1   
    36   17   18 ar  
    37   17   56 1   
    38   18   57 1   
    39   19   20 1   
    40   19   58 1   
    41   19   59 1   
    42   20   21 ar  
    43   20   25 ar  
    44   21   22 ar  
    45   21   60 1   
    46   22   23 ar  
    47   22   61 1   
    48   23   24 ar  
    49   23   62 1   
    50   24   25 ar  
    51   24   63 1   
    52   25   64 1   
    53   26   27 1   
    54   26   65 1   
    55   26   66 1   
    56   27   28 ar  
    57   27   32 ar  
    58   28   29 ar  
    59   28   67 1   
    60   29   30 ar  
    61   29   68 1   
    62   30   31 ar  
    63   30   69 1   
    64   31   32 ar  
    65   31   70 1   
    66   32   71 1   
    67   33   34 ar  
    68   33   38 ar  
    69   34   35 ar  
    70   34   72 1   
    71   35   36 ar  
    72   35   73 1   
    73   36   37 ar  
    74   36   41 1   
    75   37   38 ar  
    76   37   74 1   
    77   38   75 1   
    78   39   40 3   
    79   41   43 1   
    80   41   76 1   
    81   41   77 1   
    82   42   44 1   
    83   42   78 1   
    84   42   79 1   
    85   43   80 1   
    86   44   81 1   
@<TRIPOS>SUBSTRUCTURE
     1 Q82         1 TEMP              0 ****  ****    0 ROOT
