@<TRIPOS>MOLECULE
Q82
   82    86     1     0     0
SMALL
bcc


@<TRIPOS>ATOM
      1 N11         0.1990    0.5550    0.8070 ne        1 Q82     -0.544700
      2 O4          5.4440   -1.2200   -0.8990 oh        1 Q82     -0.605800
      3 O5          5.3860   -0.5310    1.9840 oh        1 Q82     -0.605800
      4 N7          2.3220    0.0330    1.8460 nh        1 Q82     -0.786100
      5 N2          2.0360    0.1510   -0.6100 nh        1 Q82     -0.786100
      6 C1          1.4890    0.2440    0.6880 c2        1 Q82      0.900100
      7 C2          1.5180    0.9990   -1.6660 c3        1 Q82      0.267100
      8 C3          3.0400   -0.8310   -0.9750 c3        1 Q82      0.229000
      9 C4          4.3650   -0.6200   -0.1900 c3        1 Q82      0.100100
     10 C5          4.4250   -1.2430    1.2140 c3        1 Q82      0.100100
     11 C6          3.0680   -1.1980    1.9520 c3        1 Q82      0.229000
     12 C7          2.7850    1.2200    2.5350 c3        1 Q82      0.267100
     13 C20         0.6280    0.3690   -2.6980 ca        1 Q82     -0.117800
     14 C21        -0.7130    0.0890   -2.4190 ca        1 Q82     -0.114250
     15 C22        -1.5480   -0.4110   -3.4160 ca        1 Q82     -0.124000
     16 C23        -1.0540   -0.6350   -4.7060 ca        1 Q82     -0.103800
     17 C24         0.2880   -0.3590   -4.9840 ca        1 Q82     -0.124000
     18 C25         1.1230    0.1380   -3.9860 ca        1 Q82     -0.114250
     19 C31         2.5730   -2.3040   -0.9360 c3        1 Q82     -0.046600
     20 C32         2.5540   -2.9450   -2.2800 ca        1 Q82     -0.087800
     21 C33         3.7400   -3.0850   -3.0120 ca        1 Q82     -0.126000
     22 C34         3.7350   -3.7310   -4.2460 ca        1 Q82     -0.128750
     23 C35         2.5460   -4.2500   -4.7590 ca        1 Q82     -0.128000
     24 C36         1.3630   -4.1210   -4.0320 ca        1 Q82     -0.128750
     25 C37         1.3650   -3.4710   -2.7980 ca        1 Q82     -0.126000
     26 C61         3.2790   -1.6260    3.4250 c3        1 Q82     -0.046600
     27 C62         3.4750   -3.0990    3.5200 ca        1 Q82     -0.087800
     28 C63         4.7660   -3.6410    3.5220 ca        1 Q82     -0.126000
     29 C64         4.9500   -5.0180    3.6340 ca        1 Q82     -0.128750
     30 C65         3.8470   -5.8640    3.7450 ca        1 Q82     -0.128000
     31 C66         2.5580   -5.3300    3.7430 ca        1 Q82     -0.128750
     32 C67         2.3720   -3.9530    3.6320 ca        1 Q82     -0.126000
     33 C70         3.2290    2.3860    1.6980 ca        1 Q82     -0.117800
     34 C71         2.3070    3.3610    1.3000 ca        1 Q82     -0.114250
     35 C72         2.7270    4.4700    0.5720 ca        1 Q82     -0.124000
     36 C73         4.0780    4.6220    0.2360 ca        1 Q82     -0.103800
     37 C74         5.0010    3.6530    0.6380 ca        1 Q82     -0.124000
     38 C75         4.5780    2.5420    1.3660 ca        1 Q82     -0.114250
     39 C12        -0.3730    0.7610    2.0230 cg        1 Q82      0.326800
     40 N13        -0.9800    0.9560    3.0050 n1        1 Q82     -0.415800
     41 C76         4.5020    5.8370   -0.5220 c3        1 Q82      0.173200
     42 C26        -1.9590   -1.1840   -5.7600 c3        1 Q82      0.173200
     43 O76         5.7660    5.5960   -1.1240 oh        1 Q82     -0.598300
     44 O26        -1.5330   -0.8920   -7.0770 oh        1 Q82     -0.598300
     45 HO5         6.2340   -0.6560    1.5380 ho        1 Q82      0.411000
     46 H21A        2.4210    1.4350   -2.1930 h1        1 Q82      0.067200
     47 H22A        0.9580    1.8640   -1.2040 h1        1 Q82      0.067200
     48 H3          3.3010   -0.6090   -2.0600 h1        1 Q82      0.071700
     49 H4          4.5600    0.4900   -0.0950 h1        1 Q82      0.069700
     50 H5          4.7460   -2.3230    1.1410 h1        1 Q82      0.069700
     51 H6          2.4170   -1.9980    1.4780 h1        1 Q82      0.071700
     52 H71A        1.9300    1.5630    3.1920 h1        1 Q82      0.067200
     53 H72A        3.6450    0.9160    3.2030 h1        1 Q82      0.067200
     54 H21        -1.1180    0.2730   -1.4110 ha        1 Q82      0.145000
     55 H22        -2.6030   -0.6250   -3.1880 ha        1 Q82      0.141000
     56 H24         0.6810   -0.5460   -5.9960 ha        1 Q82      0.141000
     57 H25         2.1790    0.3480   -4.2170 ha        1 Q82      0.145000
     58 H311        3.2850   -2.8960   -0.2980 hc        1 Q82      0.069450
     59 H312        1.5530   -2.3820   -0.4710 hc        1 Q82      0.069450
     60 H33         4.6820   -2.6940   -2.5940 ha        1 Q82      0.136500
     61 H34         4.6710   -3.8370   -4.8130 ha        1 Q82      0.132000
     62 H35         2.5420   -4.7610   -5.7320 ha        1 Q82      0.132000
     63 H36         0.4240   -4.5310   -4.4320 ha        1 Q82      0.132000
     64 H37         0.4270   -3.3710   -2.2310 ha        1 Q82      0.136500
     65 H611        2.3830   -1.3310    4.0350 hc        1 Q82      0.069450
     66 H612        4.1710   -1.0920    3.8480 hc        1 Q82      0.069450
     67 H63         5.6340   -2.9690    3.4330 ha        1 Q82      0.136500
     68 H64         5.9670   -5.4360    3.6370 ha        1 Q82      0.132000
     69 H65         3.9930   -6.9500    3.8350 ha        1 Q82      0.132000
     70 H66         1.6870   -5.9950    3.8320 ha        1 Q82      0.132000
     71 H67         1.3540   -3.5330    3.6360 ha        1 Q82      0.136500
     72 H71         1.2440    3.2520    1.5670 ha        1 Q82      0.145000
     73 H72         1.9960    5.2310    0.2620 ha        1 Q82      0.141000
     74 H74         6.0640    3.7750    0.3740 ha        1 Q82      0.141000
     75 H75         5.3090    1.7810    1.6900 ha        1 Q82      0.145000
     76 H761        4.5770    6.7110    0.1840 h1        1 Q82      0.044200
     77 H762        3.7470    6.0800   -1.3200 h1        1 Q82      0.044200
     78 H261       -3.0070   -0.8040   -5.6080 h1        1 Q82      0.044200
     79 H262       -1.9660   -2.3090   -5.7140 h1        1 Q82      0.044200
     80 H76         6.0210    6.4220   -1.5520 ho        1 Q82      0.402500
     81 HO6        -1.4470    0.0670   -7.1440 ho        1 Q82      0.402500
     82 HO4         5.5540   -0.7260   -1.7210 ho        1 Q82      0.411000
@<TRIPOS>BOND
     1    1    6 2   
     2    1   39 1   
     3    2    9 1   
     4    2   82 1   
     5    3   10 1   
     6    3   45 1   
     7    4    6 1   
     8    4   11 1   
     9    4   12 1   
    10    5    6 1   
    11    5    7 1   
    12    5    8 1   
    13    7   13 1   
    14    7   46 1   
    15    7   47 1   
    16    8    9 1   
    17    8   19 1   
    18    8   48 1   
    19    9   10 1   
    20    9   49 1   
    21   10   11 1   
    22   10   50 1   
    23   11   26 1   
    24   11   51 1   
    25   12   33 1   
    26   12   52 1   
    27   12   53 1   
    28   13   14 ar  
    29   13   18 ar  
    30   14   15 ar  
    31   14   54 1   
    32   15   16 ar  
    33   15   55 1   
    34   16   17 ar  
    35   16   42 1   
    36   17   18 ar  
    37   17   56 1   
    38   18   57 1   
    39   19   20 1   
    40   19   58 1   
    41   19   59 1   
    42   20   21 ar  
    43   20   25 ar  
    44   21   22 ar  
    45   21   60 1   
    46   22   23 ar  
    47   22   61 1   
    48   23   24 ar  
    49   23   62 1   
    50   24   25 ar  
    51   24   63 1   
    52   25   64 1   
    53   26   27 1   
    54   26   65 1   
    55   26   66 1   
    56   27   28 ar  
    57   27   32 ar  
    58   28   29 ar  
    59   28   67 1   
    60   29   30 ar  
    61   29   68 1   
    62   30   31 ar  
    63   30   69 1   
    64   31   32 ar  
    65   31   70 1   
    66   32   71 1   
    67   33   34 ar  
    68   33   38 ar  
    69   34   35 ar  
    70   34   72 1   
    71   35   36 ar  
    72   35   73 1   
    73   36   37 ar  
    74   36   41 1   
    75   37   38 ar  
    76   37   74 1   
    77   38   75 1   
    78   39   40 3   
    79   41   43 1   
    80   41   76 1   
    81   41   77 1   
    82   42   44 1   
    83   42   78 1   
    84   42   79 1   
    85   43   80 1   
    86   44   81 1   
@<TRIPOS>SUBSTRUCTURE
     1 Q82         1 TEMP              0 ****  ****    0 ROOT
