@<TRIPOS>MOLECULE
Q82
   82    86     1     0     0
SMALL
bcc


@<TRIPOS>ATOM
      1 N11         0.1930    0.5090    0.8260 ne        1 Q82     -0.544700
      2 O4          5.4430   -1.1940   -0.9360 oh        1 Q82     -0.605800
      3 O5          5.4000   -0.5350    1.9540 oh        1 Q82     -0.605800
      4 N7          2.3290   -0.0010    1.8440 nh        1 Q82     -0.786100
      5 N2          2.0230    0.1380   -0.6090 nh        1 Q82     -0.786100
      6 C1          1.4860    0.2120    0.6950 c2        1 Q82      0.900100
      7 C2          1.4890    0.9910   -1.6520 c3        1 Q82      0.267100
      8 C3          3.0350   -0.8300   -0.9900 c3        1 Q82      0.229000
      9 C4          4.3640   -0.6130   -0.2130 c3        1 Q82      0.100100
     10 C5          4.4410   -1.2490    1.1840 c3        1 Q82      0.100100
     11 C6          3.0890   -1.2250    1.9330 c3        1 Q82      0.229000
     12 C7          2.7860    1.1840    2.5410 c3        1 Q82      0.267100
     13 C20         0.5990    0.3610   -2.6840 ca        1 Q82     -0.117800
     14 C21        -0.7380    0.0650   -2.3970 ca        1 Q82     -0.114250
     15 C22        -1.5740   -0.4340   -3.3940 ca        1 Q82     -0.124000
     16 C23        -1.0880   -0.6400   -4.6890 ca        1 Q82     -0.103800
     17 C24         0.2490   -0.3480   -4.9750 ca        1 Q82     -0.124000
     18 C25         1.0870    0.1470   -3.9780 ca        1 Q82     -0.114250
     19 C31         2.5840   -2.3080   -0.9630 c3        1 Q82     -0.046600
     20 C32         2.5610   -2.9360   -2.3130 ca        1 Q82     -0.087800
     21 C33         3.7440   -3.0560   -3.0540 ca        1 Q82     -0.126000
     22 C34         3.7360   -3.6900   -4.2950 ca        1 Q82     -0.128750
     23 C35         2.5490   -4.2170   -4.8040 ca        1 Q82     -0.128000
     24 C36         1.3710   -4.1070   -4.0680 ca        1 Q82     -0.128750
     25 C37         1.3750   -3.4700   -2.8270 ca        1 Q82     -0.126000
     26 C61         3.3150   -1.6650    3.4000 c3        1 Q82     -0.046600
     27 C62         3.5270   -3.1370    3.4790 ca        1 Q82     -0.087800
     28 C63         4.8230   -3.6660    3.4660 ca        1 Q82     -0.126000
     29 C64         5.0220   -5.0420    3.5630 ca        1 Q82     -0.128750
     30 C65         3.9290   -5.9000    3.6740 ca        1 Q82     -0.128000
     31 C66         2.6350   -5.3790    3.6870 ca        1 Q82     -0.128750
     32 C67         2.4330   -4.0030    3.5900 ca        1 Q82     -0.126000
     33 C70         3.2110    2.3620    1.7120 ca        1 Q82     -0.117800
     34 C71         2.2760    3.3310    1.3300 ca        1 Q82     -0.114250
     35 C72         2.6800    4.4520    0.6100 ca        1 Q82     -0.124000
     36 C73         4.0270    4.6210    0.2660 ca        1 Q82     -0.103800
     37 C74         4.9630    3.6580    0.6520 ca        1 Q82     -0.124000
     38 C75         4.5560    2.5350    1.3720 ca        1 Q82     -0.114250
     39 C12        -0.3720    0.6970    2.0480 cg        1 Q82      0.326800
     40 N13        -0.9740    0.8760    3.0360 n1        1 Q82     -0.415800
     41 C76         4.4320    5.8470   -0.4830 c3        1 Q82      0.173200
     42 C26        -1.9950   -1.1890   -5.7420 c3        1 Q82      0.173200
     43 O76         5.6950    5.6250   -1.0970 oh        1 Q82     -0.598300
     44 O26        -1.5820   -0.8790   -7.0590 oh        1 Q82     -0.598300
     45 HO5         6.2460   -0.6470    1.5010 ho        1 Q82      0.411000
     46 H21A        2.3840    1.4410   -2.1820 h1        1 Q82      0.067200
     47 H22A        0.9230    1.8450   -1.1780 h1        1 Q82      0.067200
     48 H3          3.2860   -0.5950   -2.0750 h1        1 Q82      0.071700
     49 H4          4.5480    0.4980   -0.1080 h1        1 Q82      0.069700
     50 H5          4.7720   -2.3250    1.0990 h1        1 Q82      0.069700
     51 H6          2.4430   -2.0270    1.4560 h1        1 Q82      0.071700
     52 H71A        1.9320    1.5120    3.2080 h1        1 Q82      0.067200
     53 H72A        3.6530    0.8820    3.2000 h1        1 Q82      0.067200
     54 H21        -1.1370    0.2340   -1.3860 ha        1 Q82      0.145000
     55 H22        -2.6250   -0.6620   -3.1600 ha        1 Q82      0.141000
     56 H24         0.6360   -0.5210   -5.9910 ha        1 Q82      0.141000
     57 H25         2.1380    0.3710   -4.2140 ha        1 Q82      0.145000
     58 H311        3.3060   -2.8990   -0.3360 hc        1 Q82      0.069450
     59 H312        1.5690   -2.4010   -0.4910 hc        1 Q82      0.069450
     60 H33         4.6840   -2.6600   -2.6400 ha        1 Q82      0.136500
     61 H34         4.6700   -3.7810   -4.8700 ha        1 Q82      0.132000
     62 H35         2.5430   -4.7180   -5.7830 ha        1 Q82      0.132000
     63 H36         0.4330   -4.5230   -4.4650 ha        1 Q82      0.132000
     64 H37         0.4400   -3.3850   -2.2530 ha        1 Q82      0.136500
     65 H611        2.4210   -1.3860    4.0200 hc        1 Q82      0.069450
     66 H612        4.2050   -1.1260    3.8210 hc        1 Q82      0.069450
     67 H63         5.6840   -2.9840    3.3770 ha        1 Q82      0.136500
     68 H64         6.0440   -5.4490    3.5550 ha        1 Q82      0.132000
     69 H65         4.0860   -6.9860    3.7520 ha        1 Q82      0.132000
     70 H66         1.7710   -6.0540    3.7760 ha        1 Q82      0.132000
     71 H67         1.4120   -3.5940    3.6070 ha        1 Q82      0.136500
     72 H71         1.2160    3.2090    1.6030 ha        1 Q82      0.145000
     73 H72         1.9380    5.2080    0.3120 ha        1 Q82      0.141000
     74 H74         6.0220    3.7930    0.3820 ha        1 Q82      0.141000
     75 H75         5.2970    1.7800    1.6840 ha        1 Q82      0.145000
     76 H761        4.5040    6.7150    0.2310 h1        1 Q82      0.044200
     77 H762        3.6690    6.0900   -1.2730 h1        1 Q82      0.044200
     78 H261       -3.0460   -0.8220   -5.5780 h1        1 Q82      0.044200
     79 H262       -1.9900   -2.3150   -5.7070 h1        1 Q82      0.044200
     80 H76         5.9390    6.4580   -1.5180 ho        1 Q82      0.402500
     81 HO6        -1.5060    0.0810   -7.1180 ho        1 Q82      0.402500
     82 HO4         5.5430   -0.6910   -1.7530 ho        1 Q82      0.411000
@<TRIPOS>BOND
     1    1    6 2   
     2    1   39 1   
     3    2    9 1   
     4    2   82 1   
     5    3   10 1   
     6    3   45 1   
     7    4    6 1   
     8    4   11 1   
     9    4   12 1   
    10    5    6 1   
    11    5    7 1   
    12    5    8 1   
    13    7   13 1   
    14    7   46 1   
    15    7   47 1   
    16    8    9 1   
    17    8   19 1   
    18    8   48 1   
    19    9   10 1   
    20    9   49 1   
    21   10   11 1   
    22   10   50 1   
    23   11   26 1   
    24   11   51 1   
    25   12   33 1   
    26   12   52 1   
    27   12   53 1   
    28   13   14 ar  
    29   13   18 ar  
    30   14   15 ar  
    31   14   54 1   
    32   15   16 ar  
    33   15   55 1   
    34   16   17 ar  
    35   16   42 1   
    36   17   18 ar  
    37   17   56 1   
    38   18   57 1   
    39   19   20 1   
    40   19   58 1   
    41   19   59 1   
    42   20   21 ar  
    43   20   25 ar  
    44   21   22 ar  
    45   21   60 1   
    46   22   23 ar  
    47   22   61 1   
    48   23   24 ar  
    49   23   62 1   
    50   24   25 ar  
    51   24   63 1   
    52   25   64 1   
    53   26   27 1   
    54   26   65 1   
    55   26   66 1   
    56   27   28 ar  
    57   27   32 ar  
    58   28   29 ar  
    59   28   67 1   
    60   29   30 ar  
    61   29   68 1   
    62   30   31 ar  
    63   30   69 1   
    64   31   32 ar  
    65   31   70 1   
    66   32   71 1   
    67   33   34 ar  
    68   33   38 ar  
    69   34   35 ar  
    70   34   72 1   
    71   35   36 ar  
    72   35   73 1   
    73   36   37 ar  
    74   36   41 1   
    75   37   38 ar  
    76   37   74 1   
    77   38   75 1   
    78   39   40 3   
    79   41   43 1   
    80   41   76 1   
    81   41   77 1   
    82   42   44 1   
    83   42   78 1   
    84   42   79 1   
    85   43   80 1   
    86   44   81 1   
@<TRIPOS>SUBSTRUCTURE
     1 Q82         1 TEMP              0 ****  ****    0 ROOT
