@<TRIPOS>MOLECULE
Q86
   29    30     1     0     0
SMALL
bcc


@<TRIPOS>ATOM
      1 C           0.9460   -0.3670    0.2880 c         1 Q86      0.555100
      2 N           3.2790   -0.0860   -0.5760 na        1 Q86     -0.067400
      3 O           1.2600   -0.2920    1.4770 o         1 Q86     -0.516100
      4 CA          1.9600   -0.6200   -0.8200 c3        1 Q86     -0.049700
      5 CAA        -4.6110    1.3070   -0.4330 ca        1 Q86     -0.126500
      6 CAB        -5.4750    0.2170   -0.5490 ca        1 Q86     -0.128000
      7 CAC        -5.0360   -1.0570   -0.1910 ca        1 Q86     -0.126500
      8 CAD        -3.7370   -1.2450    0.2800 ca        1 Q86     -0.126000
      9 CAE        -2.8660   -0.1560    0.3960 ca        1 Q86     -0.087300
     10 CAF        -3.3120    1.1220    0.0380 ca        1 Q86     -0.126000
     11 CAG        -1.4820   -0.3480    0.9090 c3        1 Q86     -0.032100
     12 CAH        -0.4640   -0.2660   -0.2120 c3        1 Q86     -0.176400
     13 NAL         4.0180    0.5460   -1.5120 nc        1 Q86     -0.525800
     14 CAM         5.1890    0.8350   -0.8820 cd        1 Q86      0.507900
     15 NAN         5.2180    0.3990    0.4570 nd        1 Q86     -0.688000
     16 CAO         4.0120   -0.1760    0.6300 cc        1 Q86      0.427400
     17 HA          2.0410   -1.7410   -0.9400 h1        1 Q86      0.089200
     18 HAA         1.5600   -0.1940   -1.7860 h1        1 Q86      0.089200
     19 HAB        -6.5000    0.3640   -0.9200 ha        1 Q86      0.133000
     20 HAC        -5.7160   -1.9170   -0.2790 ha        1 Q86      0.133000
     21 HAD        -3.3980   -2.2520    0.5650 ha        1 Q86      0.131500
     22 HAF        -2.6340    1.9830    0.1350 ha        1 Q86      0.131500
     23 HAG        -1.2480    0.4390    1.6770 hc        1 Q86      0.064200
     24 HAGA       -1.3890   -1.3420    1.4220 hc        1 Q86      0.064200
     25 HAH        -0.5710    0.7150   -0.7520 hc        1 Q86      0.076700
     26 HAHA       -0.6490   -1.0830   -0.9600 hc        1 Q86      0.076700
     27 HAM         6.0290    1.3540   -1.3550 h5        1 Q86      0.072100
     28 HAO         3.6020   -0.6230    1.5440 h5        1 Q86      0.090100
     29 HAAA       -4.9550    2.3140   -0.7110 ha        1 Q86      0.133000
@<TRIPOS>BOND
     1    1    3 2   
     2    1    4 1   
     3    1   12 1   
     4    2    4 1   
     5    2   13 1   
     6    2   16 1   
     7    4   17 1   
     8    4   18 1   
     9    5    6 ar  
    10    5   10 ar  
    11    5   29 1   
    12    6    7 ar  
    13    6   19 1   
    14    7    8 ar  
    15    7   20 1   
    16    8    9 ar  
    17    8   21 1   
    18    9   10 ar  
    19    9   11 1   
    20   10   22 1   
    21   11   12 1   
    22   11   23 1   
    23   11   24 1   
    24   12   25 1   
    25   12   26 1   
    26   13   14 2   
    27   14   15 1   
    28   14   27 1   
    29   15   16 2   
    30   16   28 1   
@<TRIPOS>SUBSTRUCTURE
     1 Q86         1 TEMP              0 ****  ****    0 ROOT
