@<TRIPOS>MOLECULE
Q86
   29    30     1     0     0
SMALL
bcc


@<TRIPOS>ATOM
      1 C           0.2140    0.4550   -0.0220 c         1 Q86      0.555100
      2 N           0.1550   -0.1610    2.4040 na        1 Q86     -0.067400
      3 O           1.3740    0.8710   -0.0010 o         1 Q86     -0.516100
      4 CA         -0.6070    0.2300    1.2410 c3        1 Q86     -0.049700
      5 CAA        -1.1730   -1.3540   -5.4080 ca        1 Q86     -0.126500
      6 CAB        -1.9250   -0.4050   -6.1010 ca        1 Q86     -0.128000
      7 CAC        -2.0020    0.9030   -5.6240 ca        1 Q86     -0.126500
      8 CAD        -1.3300    1.2640   -4.4570 ca        1 Q86     -0.126000
      9 CAE        -0.5760    0.3160   -3.7560 ca        1 Q86     -0.087300
     10 CAF        -0.5000   -0.9960   -4.2410 ca        1 Q86     -0.126000
     11 CAG         0.1530    0.6970   -2.5160 c3        1 Q86     -0.032100
     12 CAH        -0.5460    0.1620   -1.2810 c3        1 Q86     -0.176400
     13 NAL        -0.2340   -1.1220    3.2690 nc        1 Q86     -0.525800
     14 CAM         0.7340   -1.1310    4.2250 cd        1 Q86      0.507900
     15 NAN         1.7510   -0.1850    3.9900 nd        1 Q86     -0.688000
     16 CAO         1.3700    0.4130    2.8440 cc        1 Q86      0.427400
     17 HA         -1.3930   -0.5530    1.0320 h1        1 Q86      0.089200
     18 HAA        -1.1350    1.2040    1.4660 h1        1 Q86      0.089200
     19 HAB        -2.4550   -0.6880   -7.0220 ha        1 Q86      0.133000
     20 HAC        -2.5910    1.6540   -6.1700 ha        1 Q86      0.133000
     21 HAD        -1.3900    2.2980   -4.0880 ha        1 Q86      0.131500
     22 HAF         0.0980   -1.7430   -3.6990 ha        1 Q86      0.131500
     23 HAG         0.2370    1.8140   -2.4380 hc        1 Q86      0.064200
     24 HAGA        1.2010    0.2920   -2.5500 hc        1 Q86      0.064200
     25 HAH        -1.5760    0.6020   -1.2000 hc        1 Q86      0.076700
     26 HAHA       -0.6620   -0.9540   -1.3640 hc        1 Q86      0.076700
     27 HAM         0.7350   -1.7990    5.0920 h5        1 Q86      0.072100
     28 HAO         1.8970    1.1960    2.2840 h5        1 Q86      0.090100
     29 HAAA       -1.1070   -2.3850   -5.7830 ha        1 Q86      0.133000
@<TRIPOS>BOND
     1    1    3 2   
     2    1    4 1   
     3    1   12 1   
     4    2    4 1   
     5    2   13 1   
     6    2   16 1   
     7    4   17 1   
     8    4   18 1   
     9    5    6 ar  
    10    5   10 ar  
    11    5   29 1   
    12    6    7 ar  
    13    6   19 1   
    14    7    8 ar  
    15    7   20 1   
    16    8    9 ar  
    17    8   21 1   
    18    9   10 ar  
    19    9   11 1   
    20   10   22 1   
    21   11   12 1   
    22   11   23 1   
    23   11   24 1   
    24   12   25 1   
    25   12   26 1   
    26   13   14 2   
    27   14   15 1   
    28   14   27 1   
    29   15   16 2   
    30   16   28 1   
@<TRIPOS>SUBSTRUCTURE
     1 Q86         1 TEMP              0 ****  ****    0 ROOT
