@<TRIPOS>MOLECULE
Q86
   29    23     1     0     0
SMALL
bcc


@<TRIPOS>ATOM
      1 C           0.2520    0.1070    1.4460 c1        1 Q86      0.216000
      2 N           1.0900    1.2870    3.3560 n2        1 Q86     -0.130500
      3 O           1.0450   -0.7750    1.7110 o         1 Q86     -0.277000
      4 CA          0.0110    1.2280    2.4310 c1        1 Q86     -0.059000
      5 CAA        -0.1440   -0.4100   -4.3700 c1        1 Q86     -0.127000
      6 CAB        -1.3970   -0.8840   -4.7270 c1        1 Q86     -0.127000
      7 CAC        -2.2350   -1.4210   -3.7620 c1        1 Q86     -0.127000
      8 CAD        -1.8200   -1.4830   -2.4410 c1        1 Q86     -0.127000
      9 CAE        -0.5670   -1.0090   -2.0840 c1        1 Q86     -0.080000
     10 CAF         0.2710   -0.4730   -3.0490 c1        1 Q86     -0.125000
     11 CAG        -0.0880   -1.1430   -0.6570 c3        1 Q86     -0.118000
     12 CAH        -0.4850    0.0890    0.1260 c3        1 Q86     -0.205000
     13 NAL         0.8560    0.5810    4.4760 n2        1 Q86     -0.130500
     14 CAM         1.7940    0.9100    5.3750 c1        1 Q86     -0.108000
     15 NAN         2.6080    1.8180    4.8130 n2        1 Q86     -0.162000
     16 CAO         2.1710    2.0500    3.5640 c1        1 Q86     -0.108000
     17 HA         -0.0520    2.0780    1.9490 ha        1 Q86      0.128500
     18 HAA        -0.8250    1.0650    2.9140 ha        1 Q86      0.128500
     19 HAAA        0.4460   -0.0330   -5.0500 ha        1 Q86      0.132750
     20 HAB        -1.6880   -0.8400   -5.6570 ha        1 Q86      0.132750
     21 HAC        -3.1170   -1.7550   -4.0130 ha        1 Q86      0.132750
     22 HAD        -2.4110   -1.8610   -1.7620 ha        1 Q86      0.132750
     23 HAF         1.1530   -0.1390   -2.7980 ha        1 Q86      0.131000
     24 HAG         0.8860   -1.2350   -0.6480 hc        1 Q86      0.103500
     25 HAGA       -0.4940   -1.9340   -0.2490 hc        1 Q86      0.103500
     26 HAH        -1.4490    0.0730    0.2910 hc        1 Q86      0.116000
     27 HAHA       -0.2550    0.8890   -0.3870 hc        1 Q86      0.116000
     28 HAM         1.8720    0.5530    6.2800 DU        1 Q86      0.218000
     29 HAO         2.5710    2.6660    2.9220 DU        1 Q86      0.218000
@<TRIPOS>BOND
     1    1    3 1   
     2    1   12 1   
     3    2   13 1   
     4    2   16 1   
     5    4   17 1   
     6    4   18 1   
     7    5    6 1   
     8    5   19 1   
     9    6   20 1   
    10    7    8 1   
    11    7   21 1   
    12    8   22 1   
    13    9   10 1   
    14    9   11 1   
    15   10   23 1   
    16   11   12 1   
    17   11   24 1   
    18   11   25 1   
    19   12   26 1   
    20   12   27 1   
    21   13   14 1   
    22   14   15 1   
    23   15   16 1   
@<TRIPOS>SUBSTRUCTURE
     1 Q86         1 TEMP              0 ****  ****    0 ROOT
