@<TRIPOS>MOLECULE
Q86
   29    30     1     0     0
SMALL
bcc


@<TRIPOS>ATOM
      1 C           0.1810    0.4440   -0.0050 c         1 Q86      0.555100
      2 N           0.1610   -0.2680    2.3960 na        1 Q86     -0.067400
      3 O           1.3100    0.9370    0.0380 o         1 Q86     -0.516100
      4 CA         -0.6240    0.1150    1.2460 c3        1 Q86     -0.049700
      5 CAA        -1.0740   -1.2490   -5.4590 ca        1 Q86     -0.126500
      6 CAB        -1.8860   -0.3270   -6.1200 ca        1 Q86     -0.128000
      7 CAC        -2.0480    0.9550   -5.5960 ca        1 Q86     -0.126500
      8 CAD        -1.4030    1.3150   -4.4120 ca        1 Q86     -0.126000
      9 CAE        -0.5900    0.3930   -3.7440 ca        1 Q86     -0.087300
     10 CAF        -0.4290   -0.8920   -4.2770 ca        1 Q86     -0.126000
     11 CAG         0.1090    0.7740   -2.4880 c3        1 Q86     -0.032100
     12 CAH        -0.5550    0.1480   -1.2760 c3        1 Q86     -0.176400
     13 NAL        -0.1630   -1.2870    3.2200 nc        1 Q86     -0.525800
     14 CAM         0.8020   -1.2670    4.1790 cd        1 Q86      0.507900
     15 NAN         1.7530   -0.2460    3.9860 nd        1 Q86     -0.688000
     16 CAO         1.3330    0.3690    2.8630 cc        1 Q86      0.427400
     17 HA         -1.3550   -0.7100    1.0040 h1        1 Q86      0.089200
     18 HAA        -1.2170    1.0430    1.5060 h1        1 Q86      0.089200
     19 HAB        -2.3940   -0.6090   -7.0530 ha        1 Q86      0.133000
     20 HAC        -2.6840    1.6860   -6.1160 ha        1 Q86      0.133000
     21 HAD        -1.5310    2.3290   -4.0060 ha        1 Q86      0.131500
     22 HAF         0.2160   -1.6190   -3.7600 ha        1 Q86      0.131500
     23 HAG         0.1200    1.8910   -2.3680 hc        1 Q86      0.064200
     24 HAGA        1.1820    0.4410   -2.5320 hc        1 Q86      0.064200
     25 HAH        -1.6120    0.5150   -1.1840 hc        1 Q86      0.076700
     26 HAHA       -0.5960   -0.9690   -1.4020 hc        1 Q86      0.076700
     27 HAM         0.8480   -1.9680    5.0190 h5        1 Q86      0.072100
     28 HAO         1.8060    1.2080    2.3370 h5        1 Q86      0.090100
     29 HAAA       -0.9410   -2.2600   -5.8720 ha        1 Q86      0.133000
@<TRIPOS>BOND
     1    1    3 2   
     2    1    4 1   
     3    1   12 1   
     4    2    4 1   
     5    2   13 1   
     6    2   16 1   
     7    4   17 1   
     8    4   18 1   
     9    5    6 ar  
    10    5   10 ar  
    11    5   29 1   
    12    6    7 ar  
    13    6   19 1   
    14    7    8 ar  
    15    7   20 1   
    16    8    9 ar  
    17    8   21 1   
    18    9   10 ar  
    19    9   11 1   
    20   10   22 1   
    21   11   12 1   
    22   11   23 1   
    23   11   24 1   
    24   12   25 1   
    25   12   26 1   
    26   13   14 2   
    27   14   15 1   
    28   14   27 1   
    29   15   16 2   
    30   16   28 1   
@<TRIPOS>SUBSTRUCTURE
     1 Q86         1 TEMP              0 ****  ****    0 ROOT
