@<TRIPOS>MOLECULE
Q88
   17    18     1     0     0
SMALL
bcc


@<TRIPOS>ATOM
      1 N1         -0.0290   -0.0580   -0.0510 nb        1 Q88     -0.791000
      2 C2          1.3290   -0.0800    0.0210 ca        1 Q88      0.680900
      3 N3          2.1460   -0.0690    1.1000 nb        1 Q88     -0.730000
      4 C4          1.4550   -0.0330    2.2790 ca        1 Q88      0.456800
      5 C5          0.0020   -0.0030    2.3680 ca        1 Q88     -0.213200
      6 C6         -0.7290   -0.0080    1.1310 ca        1 Q88      0.750200
      7 N6         -2.1000    0.0770    1.1380 nh        1 Q88     -0.954500
      8 N7         -0.4070    0.0330    3.7050 nc        1 Q88     -0.582100
      9 C8          0.7490    0.0120    4.4290 cd        1 Q88      0.553700
     10 N8          0.8710   -0.0660    5.8360 nh        1 Q88     -0.843800
     11 N9          1.9170    0.0030    3.5980 na        1 Q88     -0.378000
     12 H2          1.8430   -0.1160   -0.9640 h5        1 Q88      0.052100
     13 HN6        -2.5700   -0.0400    2.0010 hn        1 Q88      0.443300
     14 HN6A       -2.6060   -0.0390    0.2950 hn        1 Q88      0.443300
     15 HN8         1.4060    0.6970    6.2030 hn        1 Q88      0.395800
     16 HN8A       -0.0280   -0.1240    6.2760 hn        1 Q88      0.395800
     17 HN9         2.8490   -0.1280    3.8940 hn        1 Q88      0.320700
@<TRIPOS>BOND
     1    1    2 ar  
     2    1    6 ar  
     3    2    3 ar  
     4    2   12 1   
     5    3    4 ar  
     6    4    5 ar  
     7    4   11 1   
     8    5    6 ar  
     9    5    8 1   
    10    6    7 1   
    11    7   13 1   
    12    7   14 1   
    13    8    9 2   
    14    9   10 1   
    15    9   11 1   
    16   10   15 1   
    17   10   16 1   
    18   11   17 1   
@<TRIPOS>SUBSTRUCTURE
     1 Q88         1 TEMP              0 ****  ****    0 ROOT
