@<TRIPOS>MOLECULE
Q88
   17    18     1     0     0
SMALL
bcc


@<TRIPOS>ATOM
      1 N1         -0.0240   -0.0580   -0.0530 nb        1 Q88     -0.791000
      2 C2          1.3340   -0.0880    0.0230 ca        1 Q88      0.680900
      3 N3          2.1490   -0.0820    1.1030 nb        1 Q88     -0.730000
      4 C4          1.4550   -0.0420    2.2810 ca        1 Q88      0.456800
      5 C5          0.0020   -0.0020    2.3660 ca        1 Q88     -0.213200
      6 C6         -0.7260   -0.0030    1.1280 ca        1 Q88      0.750200
      7 N6         -2.0960    0.0920    1.1320 nv        1 Q88     -0.953500
      8 N7         -0.4100    0.0370    3.7020 nc        1 Q88     -0.582100
      9 C8          0.7450    0.0080    4.4290 cd        1 Q88      0.553700
     10 N8          0.8630   -0.0700    5.8370 nv        1 Q88     -0.843800
     11 N9          1.9150   -0.0080    3.6000 na        1 Q88     -0.378000
     12 H2          1.8500   -0.1280   -0.9610 h5        1 Q88      0.052100
     13 HN6        -2.6020   -0.0220    0.2880 hn        1 Q88      0.443300
     14 HN6A       -2.5690   -0.0230    1.9940 hn        1 Q88      0.443300
     15 HN8        -0.0370   -0.1210    6.2740 hn        1 Q88      0.395800
     16 HN8A        1.4030    0.6880    6.2050 hn        1 Q88      0.395800
     17 HN9         2.8450   -0.1450    3.8990 hn        1 Q88      0.320700
@<TRIPOS>BOND
     1    1    2 ar  
     2    1    6 ar  
     3    2    3 ar  
     4    2   12 1   
     5    3    4 ar  
     6    4    5 ar  
     7    4   11 1   
     8    5    6 ar  
     9    5    8 1   
    10    6    7 1   
    11    7   13 1   
    12    7   14 1   
    13    8    9 2   
    14    9   10 1   
    15    9   11 1   
    16   10   15 1   
    17   10   16 1   
    18   11   17 1   
@<TRIPOS>SUBSTRUCTURE
     1 Q88         1 TEMP              0 ****  ****    0 ROOT
