@<TRIPOS>MOLECULE
Q88
   17    18     1     0     0
SMALL
bcc


@<TRIPOS>ATOM
      1 N1         -2.4590   -0.0510   -0.0240 nb        1 Q88     -0.791000
      2 C2         -2.1020   -1.3630    0.0000 ca        1 Q88      0.680900
      3 N3         -0.8750   -1.9340    0.0250 nb        1 Q88     -0.730000
      4 C4          0.1320   -1.0080    0.0280 ca        1 Q88      0.456800
      5 C5         -0.0880    0.4310    0.0010 ca        1 Q88     -0.213200
      6 C6         -1.4510    0.8830   -0.0350 ca        1 Q88      0.750200
      7 N6         -1.7320    2.2250   -0.1200 nh        1 Q88     -0.954500
      8 N7          1.1320    1.1140    0.0090 nc        1 Q88     -0.582100
      9 C8          2.0840    0.1370    0.0540 cd        1 Q88      0.553700
     10 N8          3.4820    0.3150    0.1780 nh        1 Q88     -0.843800
     11 N9          1.5190   -1.1810    0.0350 na        1 Q88     -0.378000
     12 H2         -2.9560   -2.0750    0.0040 h5        1 Q88      0.052100
     13 HN6        -2.6660    2.5410   -0.0310 hn        1 Q88      0.443300
     14 HN6A       -0.9920    2.8660    0.0260 hn        1 Q88      0.443300
     15 HN8         3.7190    1.2860    0.2490 hn        1 Q88      0.395800
     16 HN8A        3.9780   -0.1260   -0.5710 hn        1 Q88      0.395800
     17 HN9         2.0020   -2.0290    0.1760 hn        1 Q88      0.320700
@<TRIPOS>BOND
     1    1    2 ar  
     2    1    6 ar  
     3    2    3 ar  
     4    2   12 1   
     5    3    4 ar  
     6    4    5 ar  
     7    4   11 1   
     8    5    6 ar  
     9    5    8 1   
    10    6    7 1   
    11    7   13 1   
    12    7   14 1   
    13    8    9 2   
    14    9   10 1   
    15    9   11 1   
    16   10   15 1   
    17   10   16 1   
    18   11   17 1   
@<TRIPOS>SUBSTRUCTURE
     1 Q88         1 TEMP              0 ****  ****    0 ROOT
