@<TRIPOS>MOLECULE
Q88
   19    20     1     0     0
SMALL
bcc


@<TRIPOS>ATOM
      1 N1          0.0050   -0.0180   -0.0680 nb        1 Q88     -0.639000
      2 C2          1.3860   -0.0730    0.0070 ca        1 Q88      0.731900
      3 N3          2.1570   -0.0870    1.1100 nb        1 Q88     -0.589000
      4 C4          1.4500   -0.0390    2.2810 ca        1 Q88      0.497800
      5 C5         -0.0190    0.0220    2.3440 ca        1 Q88     -0.178200
      6 C6         -0.6820    0.0290    1.0810 ca        1 Q88      0.593200
      7 N6         -2.1560    0.0890    1.0360 n4        1 Q88     -0.829300
      8 N7         -0.4450    0.0610    3.6680 nc        1 Q88     -0.472100
      9 C8          0.7120    0.0260    4.3960 cd        1 Q88      0.452700
     10 N8          0.7480    0.0480    5.8610 n4        1 Q88     -0.761600
     11 N9          1.8910   -0.0360    3.6060 na        1 Q88     -0.320000
     12 H2          1.9130   -0.1110   -0.9840 h5        1 Q88      0.140100
     13 HN6        -2.5420   -0.7290    1.5290 hn        1 Q88      0.495133
     14 HN6A       -2.4730    0.9520    1.5020 hn        1 Q88      0.495133
     15 HN8         1.2000   -0.8110    6.2150 hn        1 Q88      0.504133
     16 HN8A        1.2690    0.8780    6.1880 hn        1 Q88      0.504133
     17 HN9         2.8420   -0.0700    3.9060 hn        1 Q88      0.376700
     18 H63        -2.4990    0.0870    0.0590 hn        1 Q88      0.495133
     19 H83        -0.2200    0.0940    6.2280 hn        1 Q88      0.504133
@<TRIPOS>BOND
     1    1    2 ar  
     2    1    6 ar  
     3    2    3 ar  
     4    2   12 1   
     5    3    4 ar  
     6    4    5 ar  
     7    4   11 1   
     8    5    6 ar  
     9    5    8 1   
    10    6    7 1   
    11    7   13 1   
    12    7   14 1   
    13    7   18 1   
    14    8    9 2   
    15    9   10 1   
    16    9   11 1   
    17   10   15 1   
    18   10   16 1   
    19   10   19 1   
    20   11   17 1   
@<TRIPOS>SUBSTRUCTURE
     1 Q88         1 TEMP              0 ****  ****    0 ROOT
