@<TRIPOS>MOLECULE
Q8A
   19    20     1     0     0
SMALL
bcc


@<TRIPOS>ATOM
      1 NAA        -0.0520    0.0960   -0.0270 nv        1 Q8A     -0.827200
      2 CAB         5.0470    0.1350    0.0170 ca        1 Q8A     -0.240300
      3 CAC         1.5870   -0.1110   -3.3480 ca        1 Q8A     -0.074000
      4 CAD         4.0020    0.1110    0.9940 ca        1 Q8A      0.399200
      5 CAE         0.6020   -0.1070   -2.3470 ca        1 Q8A     -0.225000
      6 CAF         4.6990    0.0910   -1.3070 ca        1 Q8A     -0.090000
      7 CAG         2.9220   -0.0390   -3.0300 ca        1 Q8A     -0.172000
      8 NAH         2.7160    0.0580    0.7020 nb        1 Q8A     -0.664000
      9 CAI         0.9380   -0.0210   -0.9930 ca        1 Q8A      0.131300
     10 CAJ         3.3210    0.0270   -1.6740 ca        1 Q8A     -0.105300
     11 CAK         2.3470    0.0240   -0.6300 ca        1 Q8A      0.346600
     12 HNAA        0.2140   -0.0670    0.9170 hn        1 Q8A      0.411300
     13 HNAB       -0.9430   -0.2640   -0.2800 hn        1 Q8A      0.411300
     14 HAC         1.2690   -0.1710   -4.4010 ha        1 Q8A      0.131000
     15 HAD         4.2580    0.1360    2.0700 h4        1 Q8A      0.020100
     16 HAE        -0.4540   -0.1610   -2.6520 ha        1 Q8A      0.134000
     17 HAF         5.4570    0.1020   -2.1040 ha        1 Q8A      0.139000
     18 HAG         3.6930   -0.0350   -3.8130 ha        1 Q8A      0.133000
     19 HAB         6.0930    0.1870    0.3450 ha        1 Q8A      0.143000
@<TRIPOS>BOND
     1    1    9 1   
     2    1   12 1   
     3    1   13 1   
     4    2    4 ar  
     5    2    6 ar  
     6    2   19 1   
     7    3    5 ar  
     8    3    7 ar  
     9    3   14 1   
    10    4    8 ar  
    11    4   15 1   
    12    5    9 ar  
    13    5   16 1   
    14    6   10 ar  
    15    6   17 1   
    16    7   10 ar  
    17    7   18 1   
    18    8   11 ar  
    19    9   11 ar  
    20   10   11 ar  
@<TRIPOS>SUBSTRUCTURE
     1 Q8A         1 TEMP              0 ****  ****    0 ROOT
