@<TRIPOS>MOLECULE
Q8A
   19    20     1     0     0
SMALL
bcc


@<TRIPOS>ATOM
      1 NAA        -0.0440    0.1160   -0.0120 nh        1 Q8A     -0.827200
      2 CAB         5.0550    0.1200    0.0020 ca        1 Q8A     -0.240300
      3 CAC         1.5730   -0.1090   -3.3430 ca        1 Q8A     -0.074000
      4 CAD         4.0150    0.1050    0.9860 ca        1 Q8A      0.399200
      5 CAE         0.5940   -0.0970   -2.3360 ca        1 Q8A     -0.225000
      6 CAF         4.6980    0.0750   -1.3200 ca        1 Q8A     -0.090000
      7 CAG         2.9110   -0.0460   -3.0320 ca        1 Q8A     -0.172000
      8 NAH         2.7270    0.0600    0.7010 nb        1 Q8A     -0.664000
      9 CAI         0.9390   -0.0090   -0.9830 ca        1 Q8A      0.131300
     10 CAJ         3.3180    0.0210   -1.6790 ca        1 Q8A     -0.105300
     11 CAK         2.3510    0.0270   -0.6290 ca        1 Q8A      0.346600
     12 HNAA       -0.9390   -0.2380   -0.2600 hn        1 Q8A      0.411300
     13 HNAB        0.2250   -0.0470    0.9300 hn        1 Q8A      0.411300
     14 HAC         1.2490   -0.1690   -4.3930 ha        1 Q8A      0.131000
     15 HAD         4.2770    0.1310    2.0590 h4        1 Q8A      0.020100
     16 HAE        -0.4640   -0.1430   -2.6340 ha        1 Q8A      0.134000
     17 HAF         5.4520    0.0790   -2.1210 ha        1 Q8A      0.139000
     18 HAG         3.6770   -0.0490   -3.8200 ha        1 Q8A      0.133000
     19 HAB         6.1030    0.1650    0.3240 ha        1 Q8A      0.143000
@<TRIPOS>BOND
     1    1    9 1   
     2    1   12 1   
     3    1   13 1   
     4    2    4 ar  
     5    2    6 ar  
     6    2   19 1   
     7    3    5 ar  
     8    3    7 ar  
     9    3   14 1   
    10    4    8 ar  
    11    4   15 1   
    12    5    9 ar  
    13    5   16 1   
    14    6   10 ar  
    15    6   17 1   
    16    7   10 ar  
    17    7   18 1   
    18    8   11 ar  
    19    9   11 ar  
    20   10   11 ar  
@<TRIPOS>SUBSTRUCTURE
     1 Q8A         1 TEMP              0 ****  ****    0 ROOT
