@<TRIPOS>MOLECULE
Q8A
   19    20     1     0     0
SMALL
bcc


@<TRIPOS>ATOM
      1 NAA         1.8000    2.0900    0.1720 nh        1 Q8A     -0.827200
      2 CAB        -2.7310   -0.2430   -0.0030 ca        1 Q8A     -0.240300
      3 CAC         1.9040   -1.6140   -0.0090 ca        1 Q8A     -0.074000
      4 CAD        -2.2600    1.1080   -0.0110 ca        1 Q8A      0.399200
      5 CAE         2.3100   -0.2700    0.0070 ca        1 Q8A     -0.225000
      6 CAF        -1.8060   -1.2540    0.0050 ca        1 Q8A     -0.090000
      7 CAG         0.5720   -1.9520   -0.0020 ca        1 Q8A     -0.172000
      8 NAH        -0.9840    1.4470   -0.0020 nb        1 Q8A     -0.664000
      9 CAI         1.3790    0.7740    0.0420 ca        1 Q8A      0.131300
     10 CAJ        -0.4130   -0.9380    0.0090 ca        1 Q8A     -0.105300
     11 CAK        -0.0380    0.4390    0.0170 ca        1 Q8A      0.346600
     12 HNAA        2.7230    2.2780   -0.1440 hn        1 Q8A      0.411300
     13 HNAB        1.1350    2.8000   -0.0290 hn        1 Q8A      0.411300
     14 HAC         2.6770   -2.3970   -0.0260 ha        1 Q8A      0.131000
     15 HAD        -2.9860    1.9400   -0.0270 h4        1 Q8A      0.020100
     16 HAE         3.3880   -0.0480    0.0070 ha        1 Q8A      0.134000
     17 HAF        -2.1070   -2.3120    0.0070 ha        1 Q8A      0.139000
     18 HAG         0.2540   -3.0040   -0.0090 ha        1 Q8A      0.133000
     19 HAB        -3.8110   -0.4390   -0.0040 ha        1 Q8A      0.143000
@<TRIPOS>BOND
     1    1    9 1   
     2    1   12 1   
     3    1   13 1   
     4    2    4 ar  
     5    2    6 ar  
     6    2   19 1   
     7    3    5 ar  
     8    3    7 ar  
     9    3   14 1   
    10    4    8 ar  
    11    4   15 1   
    12    5    9 ar  
    13    5   16 1   
    14    6   10 ar  
    15    6   17 1   
    16    7   10 ar  
    17    7   18 1   
    18    8   11 ar  
    19    9   11 ar  
    20   10   11 ar  
@<TRIPOS>SUBSTRUCTURE
     1 Q8A         1 TEMP              0 ****  ****    0 ROOT
