@<TRIPOS>MOLECULE
Q8A
   20    21     1     0     0
SMALL
bcc


@<TRIPOS>ATOM
      1 NAA        -0.0470    0.0150    0.0160 n4        1 Q8A     -0.689000
      2 CAB         5.0340   -0.0310    0.0140 ca        1 Q8A     -0.228300
      3 CAC         1.5760   -0.0190   -3.3810 ca        1 Q8A     -0.135000
      4 CAD         3.9830   -0.0160    0.9870 ca        1 Q8A      0.477200
      5 CAE         0.5880   -0.0040   -2.3780 ca        1 Q8A     -0.052000
      6 CAF         4.7010   -0.0350   -1.3160 ca        1 Q8A     -0.052000
      7 CAG         2.9140   -0.0290   -3.0520 ca        1 Q8A     -0.029000
      8 NAH         2.6950   -0.0060    0.6830 nb        1 Q8A     -0.730000
      9 CAI         0.9620   -0.0000   -1.0420 ca        1 Q8A     -0.134700
     10 CAJ         3.3240   -0.0250   -1.6970 ca        1 Q8A     -0.142300
     11 CAK         2.3490   -0.0100   -0.6540 ca        1 Q8A      0.412600
     12 HNAA        0.0870    0.8520    0.6000 hn        1 Q8A      0.466133
     13 HNAB        0.0720   -0.8170    0.6090 hn        1 Q8A      0.466133
     14 HAD         4.2310   -0.0120    2.0680 h4        1 Q8A      0.052100
     15 HAE        -0.4720    0.0040   -2.6840 ha        1 Q8A      0.159000
     16 HAF         5.4710   -0.0470   -2.1050 ha        1 Q8A      0.169000
     17 HAG         3.6860   -0.0410   -3.8420 ha        1 Q8A      0.172000
     18 HAB         6.0810   -0.0380    0.3530 ha        1 Q8A      0.178000
     19 HAA3       -0.9890    0.0210   -0.3840 hn        1 Q8A      0.466133
     20 HAC         1.2580   -0.0220   -4.4380 ha        1 Q8A      0.176000
@<TRIPOS>BOND
     1    1    9 1   
     2    1   12 1   
     3    1   13 1   
     4    1   19 1   
     5    2    4 ar  
     6    2    6 ar  
     7    2   18 1   
     8    3    5 ar  
     9    3    7 ar  
    10    3   20 1   
    11    4    8 ar  
    12    4   14 1   
    13    5    9 ar  
    14    5   15 1   
    15    6   10 ar  
    16    6   16 1   
    17    7   10 ar  
    18    7   17 1   
    19    8   11 ar  
    20    9   11 ar  
    21   10   11 ar  
@<TRIPOS>SUBSTRUCTURE
     1 Q8A         1 TEMP              0 ****  ****    0 ROOT
