@<TRIPOS>MOLECULE
Q97
   51    43     1     0     0
SMALL
bcc


@<TRIPOS>ATOM
      1 CAA        -6.6260    2.0900   -0.9660 c3        1 Q97     -0.218000
      2 CAB         4.1540   -0.5540   -0.9680 c3        1 Q97     -0.206000
      3 OAC         0.2580   -5.3650   -3.2220 oh        1 Q97     -0.252000
      4 OAD         2.6740    3.6000    4.7060 oh        1 Q97     -0.252000
      5 CAE         0.9370   -2.9730   -3.2170 c1        1 Q97     -0.213500
      6 CAF         0.7850   -4.2460   -1.1750 c1        1 Q97     -0.123667
      7 CAG         2.2060    3.2200    2.4200 c1        1 Q97     -0.123667
      8 CAH         1.9330    1.3690    3.9230 c1        1 Q97     -0.213500
      9 CAI        -2.8860   -0.0970    0.6010 c1        1 Q97     -0.123667
     10 CAJ        -2.0830    1.2780   -1.2060 c1        1 Q97     -0.210000
     11 CAK         1.1490   -1.8090   -2.4750 c1        1 Q97     -0.072000
     12 CAL         0.9960   -3.0840   -0.4350 c1        1 Q97     -0.123667
     13 CAM         1.8780    2.3980    1.3460 c1        1 Q97     -0.123667
     14 CAN         1.6050    0.5460    2.8510 c1        1 Q97     -0.073000
     15 CAO        -1.5790   -0.4010    0.9510 c1        1 Q97     -0.123667
     16 CAP        -0.7700    0.9730   -0.8540 c1        1 Q97     -0.079000
     17 CAQ        -5.0730    2.1400   -0.9360 c3        1 Q97     -0.022000
     18 CAR         3.3350   -0.9110    0.2910 c3        1 Q97     -0.129000
     19 OAS        -4.5480    0.7970   -0.8340 os        1 Q97     -0.215000
     20 CAT         1.7890   -0.8550   -0.0530 c2        1 Q97     -0.047000
     21 CAU         0.9830    0.0800    0.5550 c1        1 Q97     -0.022000
     22 CAV         0.7550   -4.1910   -2.5640 c1        1 Q97      0.079000
     23 CAW         2.2330    2.7030    3.7060 c1        1 Q97      0.079000
     24 CAX        -3.1400    0.7440   -0.4780 c1        1 Q97      0.085000
     25 CAY         1.1780   -1.8640   -1.0870 c1        1 Q97     -0.076000
     26 CAZ         1.5780    1.0630    1.5620 c1        1 Q97     -0.075000
     27 CBA        -0.5170    0.1350    0.2210 c1        1 Q97     -0.078000
     28 HAA        -6.9580    1.6500   -0.1460 hc        1 Q97      0.088000
     29 HAAA       -6.9830    3.0080   -1.0130 hc        1 Q97      0.088000
     30 HAAB       -6.9230    1.5830   -1.7530 hc        1 Q97      0.088000
     31 HAB         5.0290   -0.1660   -0.6970 hc        1 Q97      0.075000
     32 HABA        3.6610    0.0980   -1.5030 hc        1 Q97      0.075000
     33 HABB        4.3050   -1.3610   -1.4980 hc        1 Q97      0.075000
     34 HOAC        0.9150   -5.7350   -3.7150 ho        1 Q97      0.218000
     35 HOAD        1.9900    3.8070    5.2440 ho        1 Q97      0.218000
     36 HAE         0.9160   -2.9350   -4.1920 ha        1 Q97      0.134000
     37 HAF         0.6580   -5.1010   -0.7170 ha        1 Q97      0.144167
     38 HAG         2.4170    4.1600    2.2680 ha        1 Q97      0.144167
     39 HAH         1.9520    1.0050    4.8320 ha        1 Q97      0.134000
     40 HAI        -3.6220   -0.4690    1.1070 ha        1 Q97      0.144167
     41 HAJ        -2.2610    1.8690   -1.9630 ha        1 Q97      0.136000
     42 HAK         1.2760   -0.9570   -2.9320 ha        1 Q97      0.139000
     43 HAL         1.0170   -3.1240    0.5430 ha        1 Q97      0.144167
     44 HAM         1.8590    2.7620    0.4410 ha        1 Q97      0.144167
     45 HAN         1.3940   -0.3940    3.0050 ha        1 Q97      0.142000
     46 HAO        -1.4010   -0.9910    1.7090 ha        1 Q97      0.144167
     47 HAP        -0.0310    1.3460   -1.3630 ha        1 Q97      0.137000
     48 HAQ        -4.7760    2.6700   -0.1570 h1        1 Q97      0.077000
     49 HAQA       -4.7440    2.5580   -1.7620 h1        1 Q97      0.077000
     50 HAR         3.5360   -0.2620    1.0100 hc        1 Q97      0.091500
     51 HARA        3.5700   -1.8080    0.5890 hc        1 Q97      0.091500
@<TRIPOS>BOND
     1    1   17 1   
     2    1   28 1   
     3    1   29 1   
     4    1   30 1   
     5    2   18 1   
     6    2   31 1   
     7    2   32 1   
     8    2   33 1   
     9    3   22 1   
    10    3   34 1   
    11    4   23 1   
    12    4   35 1   
    13    5   22 1   
    14    5   36 1   
    15    6   12 1   
    16    6   37 1   
    17    7   13 1   
    18    7   38 1   
    19    8   23 1   
    20    8   39 1   
    21    9   15 1   
    22    9   40 1   
    23   10   24 1   
    24   10   41 1   
    25   11   25 1   
    26   11   42 1   
    27   12   43 1   
    28   13   44 1   
    29   14   26 1   
    30   14   45 1   
    31   15   46 1   
    32   16   27 1   
    33   16   47 1   
    34   17   19 1   
    35   17   48 1   
    36   17   49 1   
    37   18   20 1   
    38   18   50 1   
    39   18   51 1   
    40   19   24 1   
    41   20   21 1   
    42   20   25 1   
    43   21   27 1   
@<TRIPOS>SUBSTRUCTURE
     1 Q97         1 TEMP              0 ****  ****    0 ROOT
