@<TRIPOS>MOLECULE
Q97
   51    53     1     0     0
SMALL
bcc


@<TRIPOS>ATOM
      1 CAA         5.0160    4.7200    0.2780 c3        1 Q97     -0.100100
      2 CAB        -2.4220   -2.8700    1.5270 c3        1 Q97     -0.088100
      3 CAE         2.3380   -3.4200    1.1780 ca        1 Q97     -0.185500
      4 CAF         2.4650   -3.0350   -1.2280 ca        1 Q97     -0.185500
      5 CAG        -4.2110    1.2840    1.1600 ca        1 Q97     -0.185500
      6 CAH        -4.3710    0.8600   -1.2370 ca        1 Q97     -0.185500
      7 CAI         1.0390    2.6320   -1.0770 ca        1 Q97     -0.185000
      8 CAJ         2.1460    1.5670    0.8160 ca        1 Q97     -0.185000
      9 CAK         1.0950   -2.7980    1.2000 ca        1 Q97     -0.083000
     10 CAL         1.2190   -2.4140   -1.1860 ca        1 Q97     -0.083000
     11 CAM        -2.9380    0.7270    1.1630 ca        1 Q97     -0.084000
     12 CAN        -3.0940    0.3040   -1.2150 ca        1 Q97     -0.084000
     13 CAO         0.0350    1.6770   -1.0170 ca        1 Q97     -0.080000
     14 CAP         1.1310    0.6120    0.8550 ca        1 Q97     -0.080000
     15 CAQ         4.1340    3.5450    0.6330 c3        1 Q97      0.128400
     16 CAR        -1.9440   -2.6440    0.1130 c3        1 Q97     -0.045200
     17 OAS         3.0440    3.5730   -0.2970 os        1 Q97     -0.331900
     18 CAU        -1.0110   -0.3370   -0.0050 ce        1 Q97      0.001600
     19 CAV         3.0220   -3.5360   -0.0440 ca        1 Q97      0.123100
     20 CAW        -4.9260    1.3490   -0.0470 ca        1 Q97      0.123100
     21 CAX         2.1010    2.5760   -0.1530 ca        1 Q97      0.131100
     22 CAY         0.5240   -2.2890    0.0230 ca        1 Q97     -0.084800
     23 CAZ        -2.3690    0.2330   -0.0200 ca        1 Q97     -0.082800
     24 CBA         0.0700    0.6520   -0.0560 ca        1 Q97     -0.086800
     25 HAA         5.8860    4.7480    0.9750 hc        1 Q97      0.048700
     26 HAAA        5.3880    4.6260   -0.7700 hc        1 Q97      0.048700
     27 HAAB        4.4460    5.6760    0.3630 hc        1 Q97      0.048700
     28 HAB        -3.2810   -3.5840    1.5300 hc        1 Q97      0.036033
     29 HABA       -1.6060   -3.2970    2.1580 hc        1 Q97      0.036033
     30 HABB       -2.7580   -1.9060    1.9830 hc        1 Q97      0.036033
     31 HOAC        4.6050   -4.1700   -0.9040 ho        1 Q97      0.419000
     32 HOAD       -6.5540    1.9000   -0.8810 ho        1 Q97      0.418000
     33 HAE         2.7930   -3.8200    2.0940 ha        1 Q97      0.142000
     34 HAF         3.0060   -3.1280   -2.1800 ha        1 Q97      0.142000
     35 HAG        -4.6650    1.6750    2.0820 ha        1 Q97      0.142500
     36 HAH        -4.9360    0.9150   -2.1780 ha        1 Q97      0.142500
     37 HAI         1.0190    3.4330   -1.8290 ha        1 Q97      0.142500
     38 HAJ         2.9670    1.5120    1.5430 ha        1 Q97      0.142500
     39 HAK         0.5520   -2.7030    2.1530 ha        1 Q97      0.138000
     40 HAL         0.7790   -2.0150   -2.1130 ha        1 Q97      0.138000
     41 HAM        -2.3680    0.6740    2.1040 ha        1 Q97      0.138500
     42 HAN        -2.6520   -0.0830   -2.1460 ha        1 Q97      0.138500
     43 HAO        -0.8050    1.7200   -1.7280 ha        1 Q97      0.138000
     44 HAP         1.1700   -0.1910    1.6080 ha        1 Q97      0.138000
     45 HAQ         4.6880    2.5750    0.5290 h1        1 Q97      0.038700
     46 HAQA        3.7350    3.6390    1.6780 h1        1 Q97      0.038700
     47 HAR        -1.6240   -3.6230   -0.3350 hc        1 Q97      0.051700
     48 HARA       -2.7970   -2.2560   -0.5090 hc        1 Q97      0.051700
     49 OAD        -6.1810    1.9110    0.0120 oh        1 Q97     -0.497100
     50 CAT        -0.8080   -1.6730    0.0500 cf        1 Q97     -0.041400
     51 OAC         4.2470   -4.1610   -0.0050 oh        1 Q97     -0.498100
@<TRIPOS>BOND
     1    1   15 1   
     2    1   25 1   
     3    1   26 1   
     4    1   27 1   
     5    2   16 1   
     6    2   28 1   
     7    2   29 1   
     8    2   30 1   
     9    3    9 ar  
    10    3   19 ar  
    11    3   33 1   
    12    4   10 ar  
    13    4   19 ar  
    14    4   34 1   
    15    5   11 ar  
    16    5   20 ar  
    17    5   35 1   
    18    6   12 ar  
    19    6   20 ar  
    20    6   36 1   
    21    7   13 ar  
    22    7   21 ar  
    23    7   37 1   
    24    8   14 ar  
    25    8   21 ar  
    26    8   38 1   
    27    9   22 ar  
    28    9   39 1   
    29   10   22 ar  
    30   10   40 1   
    31   11   23 ar  
    32   11   41 1   
    33   12   23 ar  
    34   12   42 1   
    35   13   24 ar  
    36   13   43 1   
    37   14   24 ar  
    38   14   44 1   
    39   15   17 1   
    40   15   45 1   
    41   15   46 1   
    42   16   47 1   
    43   16   48 1   
    44   16   50 1   
    45   17   21 1   
    46   18   23 1   
    47   18   24 1   
    48   18   50 2   
    49   19   51 1   
    50   20   49 1   
    51   22   50 1   
    52   31   51 1   
    53   32   49 1   
@<TRIPOS>SUBSTRUCTURE
     1 Q97         1 TEMP              0 ****  ****    0 ROOT
