@<TRIPOS>MOLECULE
Q97
   51    49     1     0     0
SMALL
bcc


@<TRIPOS>ATOM
      1 CAA        -2.0630    0.6960    1.9530 c1        1 Q97     -0.064000
      2 CAB        11.7900   -1.3270    3.6290 c1        1 Q97     -0.220000
      3 CAE         8.2540   -4.0510   -0.5510 c1        1 Q97     -0.170000
      4 CAF         6.3530   -4.0800    1.0400 c2        1 Q97     -0.152000
      5 CAG         7.5110    3.4820    4.2710 ca        1 Q97     -0.185750
      6 CAH         8.7510    1.9540    5.7140 ca        1 Q97     -0.185750
      7 CAI         3.3530   -0.2270    2.8470 ca        1 Q97     -0.185750
      8 CAJ         4.1660    0.5130    0.6680 ca        1 Q97     -0.185750
      9 CAK         9.2400   -3.5880   -1.0500 c1        1 Q97     -0.162000
     10 CAL         6.5930   -2.8700    1.7780 c2        1 Q97     -0.101000
     11 CAM         7.1150    2.4040    3.4900 ca        1 Q97     -0.081500
     12 CAN         8.3470    0.8860    4.9170 ca        1 Q97     -0.081500
     13 CAO         4.6650   -0.2970    3.3000 ca        1 Q97     -0.081500
     14 CAP         5.4740    0.4360    1.1390 ca        1 Q97     -0.081500
     15 CAQ        -1.1750    0.0130    1.0510 c3        1 Q97     -0.305000
     16 CAR        12.2740   -1.8780    4.5730 c1        1 Q97     -0.220000
     17 OAS         1.7890    0.2320    1.1310 oh        1 Q97     -0.257000
     18 CAU         7.1140   -0.0290    2.9540 c2        1 Q97     -0.024000
     19 CAV         7.0900   -4.5980    0.0260 c2        1 Q97      0.133000
     20 CAW         8.3330    3.2510    5.3870 ca        1 Q97      0.079000
     21 CAX         3.1080    0.1800    1.5250 ca        1 Q97      0.079000
     22 CAY         7.7600   -2.2060    1.8740 c2        1 Q97     -0.141000
     23 CAZ         7.5300    1.0980    3.7980 ca        1 Q97     -0.076000
     24 CBA         5.7350    0.0290    2.4540 ca        1 Q97     -0.076000
     25 HAA        -2.0590    1.7960    1.9150 ha        1 Q97      0.033000
     26 HAAA       -0.3420   -0.4030    1.6940 hc        1 Q97      0.112000
     27 HAAB       -1.7020   -0.8640    0.5910 hc        1 Q97      0.112000
     28 HAB        10.5670   -0.4550    0.6320 ha        1 Q97      0.000500
     29 HABA       10.0010   -0.6670    0.9400 ha        1 Q97      0.000500
     30 HABB       11.3630   -0.8380    2.7890 ha        1 Q97      0.220000
     31 HOAC        7.1950   -6.0450   -1.2420 ho        1 Q97      0.222000
     32 HOAD        9.2480    4.0560    6.8590 ho        1 Q97      0.219000
     33 HAE        10.1130   -3.1770   -1.4920 ha        1 Q97      0.230000
     34 HAF         5.4470   -4.6420    1.3400 ha        1 Q97      0.149000
     35 HAG         7.1920    4.5060    4.0340 ha        1 Q97      0.143000
     36 HAH         9.3890    1.7800    6.5910 ha        1 Q97      0.143000
     37 HAI         2.5090   -0.4820    3.5030 ha        1 Q97      0.143000
     38 HAJ         3.9650    0.8300   -0.3650 ha        1 Q97      0.143000
     39 HAK         8.6620   -2.5820    1.3570 ha        1 Q97      0.129000
     40 HAL         5.7080   -2.4950    2.3280 ha        1 Q97      0.136000
     41 HAM         6.4660    2.5710    2.6160 ha        1 Q97      0.141000
     42 HAN         8.6690   -0.1340    5.1750 ha        1 Q97      0.141000
     43 HAO         4.8670   -0.6110    4.3360 ha        1 Q97      0.141000
     44 HAP         6.3090    0.6940    0.4710 ha        1 Q97      0.141000
     45 HAQ        -0.7010    0.6190    0.2360 hc        1 Q97      0.112000
     46 HAQA        1.7630    0.5150    0.2060 ho        1 Q97      0.219000
     47 HAR         9.0190   -0.9420    3.0580 ha        1 Q97      0.127000
     48 HARA       12.7040   -2.3690    5.4100 ha        1 Q97      0.220000
     49 OAD         8.6930    4.3560    6.1240 oh        1 Q97     -0.257000
     50 CAT         7.9840   -1.0200    2.6650 c2        1 Q97     -0.116000
     51 OAC         6.6250   -5.7970   -0.5010 oh        1 Q97     -0.259000
@<TRIPOS>BOND
     1    1   15 1   
     2    1   25 1   
     3    2   16 1   
     4    2   30 1   
     5    3    9 1   
     6    3   19 1   
     7    4   10 1   
     8    4   19 1   
     9    4   34 1   
    10    5   11 1   
    11    5   20 1   
    12    5   35 1   
    13    6   12 1   
    14    6   20 1   
    15    6   36 1   
    16    7   13 1   
    17    7   21 1   
    18    7   37 1   
    19    8   14 1   
    20    8   21 1   
    21    8   38 1   
    22    9   33 1   
    23   10   22 1   
    24   10   40 1   
    25   11   23 1   
    26   11   41 1   
    27   12   23 1   
    28   12   42 1   
    29   13   24 1   
    30   13   43 1   
    31   14   24 1   
    32   14   44 1   
    33   15   26 1   
    34   15   27 1   
    35   15   45 1   
    36   16   48 1   
    37   17   21 1   
    38   17   46 1   
    39   18   23 1   
    40   18   24 1   
    41   18   50 1   
    42   19   51 1   
    43   20   49 1   
    44   22   39 1   
    45   22   50 1   
    46   28   29 1   
    47   31   51 1   
    48   32   49 1   
    49   47   50 1   
@<TRIPOS>SUBSTRUCTURE
     1 Q97         1 TEMP              0 ****  ****    0 ROOT
