@<TRIPOS>MOLECULE
Q97
   51    50     1     0     0
SMALL
bcc


@<TRIPOS>ATOM
      1 CAA        -1.7670    1.2100    1.3620 c1        1 Q97     -0.064000
      2 CAB        11.3360    0.1490    1.7780 c2        1 Q97     -0.545000
      3 CAE         8.5540   -4.5980    0.9910 ca        1 Q97     -0.191000
      4 CAF         6.1640   -4.4520    1.4560 ca        1 Q97     -0.191000
      5 CAG         7.8560    3.1080    4.2840 ca        1 Q97     -0.185500
      6 CAH         8.7400    1.5610    5.9500 ca        1 Q97     -0.185500
      7 CAI         3.4200   -0.2560    2.7440 ca        1 Q97     -0.185500
      8 CAJ         4.4760    0.2940    0.6140 ca        1 Q97     -0.185500
      9 CAK         8.7550   -3.4140    1.6910 ca        1 Q97     -0.079000
     10 CAL         6.3830   -3.2650    2.1470 ca        1 Q97     -0.079000
     11 CAM         7.4130    2.0270    3.5330 ca        1 Q97     -0.084000
     12 CAN         8.2920    0.4900    5.1820 ca        1 Q97     -0.084000
     13 CAO         4.6780   -0.4330    3.3090 ca        1 Q97     -0.084000
     14 CAP         5.7280    0.1120    1.1970 ca        1 Q97     -0.084000
     15 CAQ        -0.9010    0.3760    0.5720 c3        1 Q97     -0.305000
     16 CAR        11.1010   -1.0380    2.2610 c1        1 Q97      0.151000
     17 OAS         2.0540    0.2690    0.8840 oh        1 Q97     -0.257500
     18 CAU         7.1630   -0.4230    3.1580 c2        1 Q97     -0.040000
     19 CAV         7.2550   -5.1150    0.8740 ca        1 Q97      0.083000
     20 CAW         8.5230    2.8700    5.4970 ca        1 Q97      0.078000
     21 CAX         3.3250    0.1080    1.3910 ca        1 Q97      0.078000
     22 CAY         7.6730   -2.7270    2.2680 ca        1 Q97     -0.089000
     23 CAZ         7.6270    0.7100    3.9680 ca        1 Q97     -0.074000
     24 CBA         5.8400   -0.2570    2.5430 ca        1 Q97     -0.074000
     25 HAA        -1.6310    2.2990    1.2630 ha        1 Q97      0.033000
     26 HAAA       -0.1730   -0.0910    1.3020 hc        1 Q97      0.112000
     27 HAAB       -1.4920   -0.4630    0.1200 hc        1 Q97      0.112000
     28 HAB        12.3450    0.5660    1.6320 ha        1 Q97      0.196000
     29 HABA        8.7480    1.6940    0.2760 ha        1 Q97      0.001000
     30 HABB       10.5360    0.8490    1.4770 ha        1 Q97      0.196000
     31 HOAC        7.8150   -6.6360   -0.1390 ho        1 Q97      0.218000
     32 HOAD        9.3620    3.6740    7.0140 ho        1 Q97      0.219500
     33 HAE         9.4040   -5.1260    0.5370 ha        1 Q97      0.142000
     34 HAF         5.1550   -4.8770    1.3610 ha        1 Q97      0.142000
     35 HAG         7.6920    4.1420    3.9490 ha        1 Q97      0.143000
     36 HAH         9.2580    1.3820    6.9030 ha        1 Q97      0.143000
     37 HAI         2.5050   -0.3930    3.3360 ha        1 Q97      0.143000
     38 HAJ         4.3930    0.5790   -0.4440 ha        1 Q97      0.143000
     39 HAK         9.7760   -3.0050    1.7990 ha        1 Q97      0.151000
     40 HAL         5.5300   -2.7430    2.6090 ha        1 Q97      0.151000
     41 HAM         6.8850    2.2010    2.5810 ha        1 Q97      0.141250
     42 HAN         8.4570   -0.5390    5.5370 ha        1 Q97      0.141250
     43 HAO         4.7630   -0.7140    4.3700 ha        1 Q97      0.141250
     44 HAP         6.6380    0.2600    0.5940 ha        1 Q97      0.141250
     45 HAQ        -0.3010    0.8710   -0.2340 hc        1 Q97      0.112000
     46 HAQA        2.1310    0.5050   -0.0510 ho        1 Q97      0.219500
     47 HAR         8.4470    1.7820    0.8760 ha        1 Q97      0.001000
     48 HARA        8.9600   -1.4930    3.4670 ha        1 Q97      0.139000
     49 OAD         8.9400    3.9780    6.1970 oh        1 Q97     -0.257500
     50 CAT         7.9510   -1.5070    3.0040 c2        1 Q97     -0.098000
     51 OAC         6.9790   -6.2810    0.1970 oh        1 Q97     -0.252000
@<TRIPOS>BOND
     1    1   15 1   
     2    1   25 1   
     3    2   16 1   
     4    2   28 1   
     5    2   30 1   
     6    3    9 1   
     7    3   19 1   
     8    3   33 1   
     9    4   10 1   
    10    4   19 1   
    11    4   34 1   
    12    5   11 1   
    13    5   20 1   
    14    5   35 1   
    15    6   12 1   
    16    6   20 1   
    17    6   36 1   
    18    7   13 1   
    19    7   21 1   
    20    7   37 1   
    21    8   14 1   
    22    8   21 1   
    23    8   38 1   
    24    9   22 1   
    25    9   39 1   
    26   10   22 1   
    27   10   40 1   
    28   11   23 1   
    29   11   41 1   
    30   12   23 1   
    31   12   42 1   
    32   13   24 1   
    33   13   43 1   
    34   14   24 1   
    35   14   44 1   
    36   15   26 1   
    37   15   27 1   
    38   15   45 1   
    39   17   21 1   
    40   17   46 1   
    41   18   23 1   
    42   18   24 1   
    43   18   50 1   
    44   19   51 1   
    45   20   49 1   
    46   22   50 1   
    47   29   47 1   
    48   31   51 1   
    49   32   49 1   
    50   48   50 1   
@<TRIPOS>SUBSTRUCTURE
     1 Q97         1 TEMP              0 ****  ****    0 ROOT
