@<TRIPOS>MOLECULE
Q9C
   37    36     1     0     0
SMALL
bcc


@<TRIPOS>ATOM
      1 N          -0.0870   -0.0020   -0.1530 n4        1 Q9C     -0.837600
      2 C          10.1130    0.0050    7.1960 c         1 Q9C      0.571100
      3 O           9.2570    0.0070    8.0560 o         1 Q9C     -0.376100
      4 N01         3.9270    0.0010    2.9050 n4        1 Q9C     -0.764000
      5 N02         9.5780    0.0000    5.7400 n4        1 Q9C     -0.700800
      6 C01         3.3740   -0.0030    1.5150 c3        1 Q9C      0.107800
      7 C02         1.3930   -0.0040    0.0150 c3        1 Q9C      0.104800
      8 C03         5.4290   -0.0020    2.9080 c3        1 Q9C      0.107800
      9 C04         8.0920    0.0040    5.6740 c3        1 Q9C      0.099800
     10 C05         1.8430   -0.0000    1.4780 c3        1 Q9C     -0.138400
     11 C06         6.0110    0.0020    4.3210 c3        1 Q9C     -0.108400
     12 C07         7.5310   -0.0010    4.2520 c3        1 Q9C     -0.101400
     13 C08        11.5950    0.0070    7.3000 c3        1 Q9C     -0.193100
     14 HN         -0.3160   -0.0050   -1.1600 hn        1 Q9C      0.483467
     15 HNA        -0.5090   -0.8350    0.2780 hn        1 Q9C      0.483467
     16 HN01        3.5880   -0.8280    3.4130 hn        1 Q9C      0.463800
     17 HN02        9.9480   -0.8320    5.2680 hn        1 Q9C      0.459800
     18 H01         3.7700   -0.9230    0.9910 hx        1 Q9C      0.125700
     19 H01A        3.7730    0.9120    0.9840 hx        1 Q9C      0.125700
     20 H02         1.7960    0.9110   -0.5150 hx        1 Q9C      0.130700
     21 H02A        1.7930   -0.9240   -0.5090 hx        1 Q9C      0.130700
     22 H03         5.7720   -0.9230    2.3510 hx        1 Q9C      0.120700
     23 H03A        5.7760    0.9130    2.3440 hx        1 Q9C      0.120700
     24 H04         7.7260   -0.9050    6.2380 hx        1 Q9C      0.122700
     25 H04A        7.7310    0.9200    6.2290 hx        1 Q9C      0.122700
     26 H05         1.4400   -0.9070    2.0080 hc        1 Q9C      0.096700
     27 H05A        1.4440    0.9120    2.0020 hc        1 Q9C      0.096700
     28 H06         5.6670    0.9140    4.8820 hc        1 Q9C      0.086700
     29 H06A        5.6630   -0.9030    4.8890 hc        1 Q9C      0.086700
     30 H07         7.8830   -0.9120    3.6970 hc        1 Q9C      0.080700
     31 H07A        7.8880    0.9030    3.6890 hc        1 Q9C      0.080700
     32 H08        12.0350    0.9250    6.8300 hc        1 Q9C      0.132700
     33 H08A       12.0390   -0.9040    6.8230 hc        1 Q9C      0.132700
     34 H08B       11.8690    0.0040    8.3940 hc        1 Q9C      0.132700
     35 HN3        -0.5060    0.8350    0.2730 hn        1 Q9C      0.483467
     36 H012        3.5910    0.8350    3.4070 hn        1 Q9C      0.463800
     37 H022        9.9520    0.8260    5.2610 hn        1 Q9C      0.459800
@<TRIPOS>BOND
     1    1    7 1   
     2    1   14 1   
     3    1   15 1   
     4    1   35 1   
     5    2    3 2   
     6    2    5 1   
     7    2   13 1   
     8    4    6 1   
     9    4    8 1   
    10    4   16 1   
    11    4   36 1   
    12    5    9 1   
    13    5   17 1   
    14    5   37 1   
    15    6   10 1   
    16    6   18 1   
    17    6   19 1   
    18    7   10 1   
    19    7   20 1   
    20    7   21 1   
    21    8   11 1   
    22    8   22 1   
    23    8   23 1   
    24    9   12 1   
    25    9   24 1   
    26    9   25 1   
    27   10   26 1   
    28   10   27 1   
    29   11   12 1   
    30   11   28 1   
    31   11   29 1   
    32   12   30 1   
    33   12   31 1   
    34   13   32 1   
    35   13   33 1   
    36   13   34 1   
@<TRIPOS>SUBSTRUCTURE
     1 Q9C         1 TEMP              0 ****  ****    0 ROOT
