@<TRIPOS>MOLECULE
Q9C
   37    36     1     0     0
SMALL
bcc


@<TRIPOS>ATOM
      1 N          -0.0850   -0.0040   -0.1560 nz        1 Q9C     -0.837600
      2 C          10.1110    0.0080    7.1980 c         1 Q9C      0.571100
      3 O           9.2550    0.0110    8.0580 o         1 Q9C     -0.376100
      4 N01         3.9270   -0.0010    2.9040 ny        1 Q9C     -0.764000
      5 N02         9.5770    0.0040    5.7410 ny        1 Q9C     -0.700800
      6 C01         3.3750   -0.0020    1.5140 c3        1 Q9C      0.107800
      7 C02         1.3950   -0.0040    0.0130 c3        1 Q9C      0.104800
      8 C03         5.4300   -0.0010    2.9080 c3        1 Q9C      0.107800
      9 C04         8.0910    0.0040    5.6750 c3        1 Q9C      0.099800
     10 C05         1.8440   -0.0020    1.4760 c3        1 Q9C     -0.138400
     11 C06         6.0110    0.0020    4.3210 c3        1 Q9C     -0.108400
     12 C07         7.5310    0.0010    4.2530 c3        1 Q9C     -0.101400
     13 C08        11.5930    0.0060    7.3030 c3        1 Q9C     -0.193100
     14 HN         -0.3140   -0.0050   -1.1630 hn        1 Q9C      0.483467
     15 HNA        -0.5060   -0.8390    0.2730 hn        1 Q9C      0.483467
     16 HN01        3.5900   -0.8310    3.4100 hn        1 Q9C      0.463800
     17 HN02        9.9490    0.8330    5.2640 hn        1 Q9C      0.459800
     18 H01         3.7730    0.9140    0.9850 hx        1 Q9C      0.125700
     19 H01A        3.7730   -0.9200    0.9880 hx        1 Q9C      0.125700
     20 H02         1.7960    0.9130   -0.5150 hx        1 Q9C      0.130700
     21 H02A        1.7960   -0.9220   -0.5130 hx        1 Q9C      0.130700
     22 H03         5.7750    0.9160    2.3460 hx        1 Q9C      0.120700
     23 H03A        5.7740   -0.9200    2.3490 hx        1 Q9C      0.120700
     24 H04         7.7270    0.9170    6.2330 hx        1 Q9C      0.122700
     25 H04A        7.7270   -0.9070    6.2360 hx        1 Q9C      0.122700
     26 H05         1.4430    0.9070    2.0020 hc        1 Q9C      0.096700
     27 H05A        1.4430   -0.9110    2.0040 hc        1 Q9C      0.096700
     28 H06         5.6640    0.9110    4.8840 hc        1 Q9C      0.086700
     29 H06A        5.6640   -0.9050    4.8870 hc        1 Q9C      0.086700
     30 H07         7.8850    0.9080    3.6930 hc        1 Q9C      0.080700
     31 H07A        7.8850   -0.9080    3.6960 hc        1 Q9C      0.080700
     32 H08        12.0330   -0.9140    6.8380 hc        1 Q9C      0.132700
     33 H08A       12.0380    0.9150    6.8210 hc        1 Q9C      0.132700
     34 H08B       11.8670    0.0150    8.3960 hc        1 Q9C      0.132700
     35 HN3        -0.5060    0.8310    0.2710 hn        1 Q9C      0.483467
     36 H012        3.5900    0.8310    3.4080 hn        1 Q9C      0.463800
     37 H022        9.9490   -0.8260    5.2680 hn        1 Q9C      0.459800
@<TRIPOS>BOND
     1    1    7 1   
     2    1   14 1   
     3    1   15 1   
     4    1   35 1   
     5    2    3 2   
     6    2    5 1   
     7    2   13 1   
     8    4    6 1   
     9    4    8 1   
    10    4   16 1   
    11    4   36 1   
    12    5    9 1   
    13    5   17 1   
    14    5   37 1   
    15    6   10 1   
    16    6   18 1   
    17    6   19 1   
    18    7   10 1   
    19    7   20 1   
    20    7   21 1   
    21    8   11 1   
    22    8   22 1   
    23    8   23 1   
    24    9   12 1   
    25    9   24 1   
    26    9   25 1   
    27   10   26 1   
    28   10   27 1   
    29   11   12 1   
    30   11   28 1   
    31   11   29 1   
    32   12   30 1   
    33   12   31 1   
    34   13   32 1   
    35   13   33 1   
    36   13   34 1   
@<TRIPOS>SUBSTRUCTURE
     1 Q9C         1 TEMP              0 ****  ****    0 ROOT
