@<TRIPOS>MOLECULE
Q9C
   34    33     1     0     0
SMALL
bcc


@<TRIPOS>ATOM
      1 N           7.0960   -0.2420   -0.4780 n3        1 Q9C     -0.915800
      2 C          -4.8660    0.1130   -0.5660 c         1 Q9C      0.653100
      3 O          -4.6780   -0.7310   -1.4640 o         1 Q9C     -0.607100
      4 N01         2.2210   -0.3230    0.4090 n3        1 Q9C     -0.825200
      5 N02        -3.9920    0.2390    0.5000 n         1 Q9C     -0.571900
      6 C01         3.3870    0.4230   -0.0200 c3        1 Q9C      0.164800
      7 C02         5.8470    0.4760   -0.3970 c3        1 Q9C      0.159800
      8 C03         0.9820    0.4010    0.2080 c3        1 Q9C      0.164800
      9 C04        -2.7470   -0.4710    0.5690 c3        1 Q9C      0.085000
     10 C05         4.6660   -0.4120   -0.0060 c3        1 Q9C     -0.088400
     11 C06        -0.2580   -0.4510    0.4740 c3        1 Q9C     -0.082400
     12 C07        -1.5060    0.3900    0.3170 c3        1 Q9C     -0.105400
     13 C08        -6.0840    1.0060   -0.5680 c3        1 Q9C     -0.176100
     14 HN          7.8560    0.3960   -0.6050 hn        1 Q9C      0.349800
     15 HNA         7.2560   -0.7850    0.3460 hn        1 Q9C      0.349800
     16 HN01        2.1860   -1.2180   -0.0430 hn        1 Q9C      0.357800
     17 HN02       -4.1040    1.0100    1.1140 hn        1 Q9C      0.302500
     18 H01         3.2570    0.8580   -1.0570 h1        1 Q9C      0.028700
     19 H01A        3.5050    1.2920    0.6890 h1        1 Q9C      0.028700
     20 H02         5.8910    1.3390    0.3350 h1        1 Q9C      0.024700
     21 H02A        5.6510    0.9200   -1.4150 h1        1 Q9C      0.024700
     22 H03         0.9870    1.2750    0.9200 h1        1 Q9C      0.028700
     23 H03A        0.9010    0.8270   -0.8380 h1        1 Q9C      0.028700
     24 H04        -2.6650   -0.9260    1.5990 h1        1 Q9C      0.063200
     25 H04A       -2.7680   -1.3120   -0.1840 h1        1 Q9C      0.063200
     26 H05         4.8310   -0.8450    1.0140 hc        1 Q9C      0.053700
     27 H05A        4.5780   -1.2660   -0.7270 hc        1 Q9C      0.053700
     28 H06        -0.2930   -1.3140   -0.2420 hc        1 Q9C      0.050700
     29 H06A       -0.2140   -0.8770    1.5110 hc        1 Q9C      0.050700
     30 H07        -1.5450    0.8230   -0.7160 hc        1 Q9C      0.044700
     31 H07A       -1.4770    1.2470    1.0400 hc        1 Q9C      0.044700
     32 H08        -5.7830    2.0800   -0.5960 hc        1 Q9C      0.065033
     33 H08A       -6.6960    0.7750   -1.4740 hc        1 Q9C      0.065033
     34 H08B       -6.7030    0.8240    0.3440 hc        1 Q9C      0.065033
@<TRIPOS>BOND
     1    1    7 1   
     2    1   14 1   
     3    1   15 1   
     4    2    3 2   
     5    2    5 1   
     6    2   13 1   
     7    4    6 1   
     8    4    8 1   
     9    4   16 1   
    10    5    9 1   
    11    5   17 1   
    12    6   10 1   
    13    6   18 1   
    14    6   19 1   
    15    7   10 1   
    16    7   20 1   
    17    7   21 1   
    18    8   11 1   
    19    8   22 1   
    20    8   23 1   
    21    9   12 1   
    22    9   24 1   
    23    9   25 1   
    24   10   26 1   
    25   10   27 1   
    26   11   12 1   
    27   11   28 1   
    28   11   29 1   
    29   12   30 1   
    30   12   31 1   
    31   13   32 1   
    32   13   33 1   
    33   13   34 1   
@<TRIPOS>SUBSTRUCTURE
     1 Q9C         1 TEMP              0 ****  ****    0 ROOT
