@<TRIPOS>MOLECULE
Q9G
   39    42     1     0     0
SMALL
bcc


@<TRIPOS>ATOM
      1 N01        -0.3720   -1.5520    0.7040 nb        1 Q9G     -0.656000
      2 C02        -1.7270   -1.4300    0.7460 ca        1 Q9G      0.425800
      3 C03        -2.4630   -0.2460    0.3440 ca        1 Q9G     -0.329200
      4 C04        -1.7480    0.8660   -0.1080 ca        1 Q9G      0.037700
      5 C05        -0.3550    0.7440   -0.1840 ca        1 Q9G     -0.211600
      6 C06         0.2790   -0.4680    0.2380 cp        1 Q9G      0.493800
      7 C07         1.7590   -0.5550    0.1800 cp        1 Q9G     -0.121500
      8 C08        -2.4630    2.1100   -0.4980 c3        1 Q9G     -0.042100
      9 C09        -1.5470    3.2890   -0.7590 c3        1 Q9G     -0.077400
     10 C10        -0.3020    2.8650   -1.5030 c3        1 Q9G     -0.077400
     11 C11         0.4880    1.8590   -0.6920 c3        1 Q9G     -0.029100
     12 N12        -2.6840   -2.3520    1.2390 na        1 Q9G     -0.095800
     13 N13        -3.9360   -1.9000    1.0400 nc        1 Q9G     -0.579100
     14 C14        -3.8730   -0.6260    0.5440 cd        1 Q9G      0.541800
     15 N15        -4.9640    0.1580    0.1720 nh        1 Q9G     -0.846800
     16 C16         2.4950   -0.1720    1.3030 ca        1 Q9G     -0.139000
     17 C17         3.8980   -0.2470    1.2690 ca        1 Q9G      0.115900
     18 F18         4.6190    0.1290    2.3530 f         1 Q9G     -0.140900
     19 C19         4.5550   -0.7130    0.1150 ca        1 Q9G     -0.156000
     20 C20         3.8040   -1.1000   -0.9880 ca        1 Q9G     -0.112000
     21 C21         2.4050   -1.0320   -0.9730 ca        1 Q9G     -0.065300
     22 C22         1.6260   -1.4700   -2.1540 c3        1 Q9G     -0.058800
     23 H12        -2.5420   -3.3390    1.2290 hn        1 Q9G      0.317700
     24 H081       -3.0710    1.8910   -1.4190 hc        1 Q9G      0.058700
     25 H082       -3.1810    2.3950    0.3190 hc        1 Q9G      0.058700
     26 H111        0.9680    2.3750    0.1840 hc        1 Q9G      0.057700
     27 H112        1.3180    1.4430   -1.3270 hc        1 Q9G      0.057700
     28 H16         1.9880    0.1810    2.2130 ha        1 Q9G      0.156000
     29 H091       -2.1020    4.0620   -1.3510 hc        1 Q9G      0.045700
     30 H092       -1.2540    3.7600    0.2160 hc        1 Q9G      0.045700
     31 H101       -0.5870    2.4160   -2.4900 hc        1 Q9G      0.046700
     32 H102        0.3400    3.7600   -1.7110 hc        1 Q9G      0.046700
     33 H151       -4.8250    1.1230    0.3880 hn        1 Q9G      0.393800
     34 H152       -5.8440   -0.1830    0.5010 hn        1 Q9G      0.393800
     35 H19         5.6530   -0.7700    0.0990 ha        1 Q9G      0.149000
     36 H20         4.3170   -1.4710   -1.8880 ha        1 Q9G      0.139000
     37 H221        0.8380   -0.7150   -2.4030 hc        1 Q9G      0.051033
     38 H222        2.2840   -1.6060   -3.0460 hc        1 Q9G      0.051033
     39 H223        1.1190   -2.4440   -1.9360 hc        1 Q9G      0.051033
@<TRIPOS>BOND
     1    1    2 ar  
     2    1    6 ar  
     3    2    3 ar  
     4    2   12 1   
     5    3    4 ar  
     6    3   14 1   
     7    4    5 ar  
     8    4    8 1   
     9    5    6 ar  
    10    5   11 1   
    11    6    7 1   
    12    7   16 ar  
    13    7   21 ar  
    14    8    9 1   
    15    8   24 1   
    16    8   25 1   
    17    9   10 1   
    18    9   29 1   
    19    9   30 1   
    20   10   11 1   
    21   10   31 1   
    22   10   32 1   
    23   11   26 1   
    24   11   27 1   
    25   12   13 1   
    26   12   23 1   
    27   13   14 2   
    28   14   15 1   
    29   15   33 1   
    30   15   34 1   
    31   16   17 ar  
    32   16   28 1   
    33   17   18 1   
    34   17   19 ar  
    35   19   20 ar  
    36   19   35 1   
    37   20   21 ar  
    38   20   36 1   
    39   21   22 1   
    40   22   37 1   
    41   22   38 1   
    42   22   39 1   
@<TRIPOS>SUBSTRUCTURE
     1 Q9G         1 TEMP              0 ****  ****    0 ROOT
