@<TRIPOS>MOLECULE
Q9G
   39    42     1     0     0
SMALL
bcc


@<TRIPOS>ATOM
      1 N01        -0.0030    0.3270   -0.1170 nb        1 Q9G     -0.655000
      2 C02         1.3520    0.3480   -0.0020 ca        1 Q9G      0.424800
      3 C03         2.0780    0.2000    1.2450 ca        1 Q9G     -0.329200
      4 C04         1.3530    0.0140    2.4250 ca        1 Q9G      0.036700
      5 C05        -0.0430   -0.0370    2.3180 ca        1 Q9G     -0.210600
      6 C06        -0.6660    0.1360    1.0410 cp        1 Q9G      0.492800
      7 C07        -2.1480    0.1290    0.9680 cp        1 Q9G     -0.121500
      8 C08         2.0580   -0.1320    3.7270 c3        1 Q9G     -0.046100
      9 C09         1.1370   -0.0350    4.9260 c3        1 Q9G     -0.077400
     10 C10        -0.1420   -0.8080    4.6970 c3        1 Q9G     -0.077400
     11 C11        -0.9030   -0.2500    3.5130 c3        1 Q9G     -0.029100
     12 N12         2.3280    0.4330   -1.0290 na        1 Q9G     -0.095800
     13 N13         3.5680    0.4820   -0.5110 nc        1 Q9G     -0.579100
     14 C14         3.4910    0.3020    0.8430 cd        1 Q9G      0.541800
     15 N15         4.5660    0.3000    1.7320 nv        1 Q9G     -0.847800
     16 C16        -2.8320    1.3330    1.1500 ca        1 Q9G     -0.141000
     17 C17        -4.2360    1.3470    1.0830 ca        1 Q9G      0.115900
     18 F18        -4.9070    2.5100    1.2630 f         1 Q9G     -0.140900
     19 C19        -4.9450    0.1590    0.8270 ca        1 Q9G     -0.155000
     20 C20        -4.2450   -1.0270    0.6400 ca        1 Q9G     -0.112000
     21 C21        -2.8460   -1.0600    0.7030 ca        1 Q9G     -0.063300
     22 C22        -2.1200   -2.3320    0.4820 c3        1 Q9G     -0.058800
     23 H12         2.1660    0.9170   -1.8860 hn        1 Q9G      0.316700
     24 H081        2.8470    0.6640    3.8130 hc        1 Q9G      0.061200
     25 H082        2.5780   -1.1290    3.7350 hc        1 Q9G      0.061200
     26 H111       -1.7420   -0.9510    3.2490 hc        1 Q9G      0.057200
     27 H112       -1.3710    0.7330    3.7960 hc        1 Q9G      0.057200
     28 H16        -2.2840    2.2670    1.3390 ha        1 Q9G      0.155000
     29 H091        0.8900    1.0420    5.1240 hc        1 Q9G      0.047200
     30 H092        1.6660   -0.4300    5.8310 hc        1 Q9G      0.047200
     31 H101        0.1000   -1.8890    4.5170 hc        1 Q9G      0.045200
     32 H102       -0.7880   -0.7550    5.6110 hc        1 Q9G      0.045200
     33 H151        5.4610    0.2270    1.2930 hn        1 Q9G      0.394300
     34 H152        4.4420   -0.3700    2.4630 hn        1 Q9G      0.394300
     35 H19        -6.0430    0.1810    0.7740 ha        1 Q9G      0.149000
     36 H20        -4.8000   -1.9550    0.4340 ha        1 Q9G      0.140000
     37 H221       -1.5790   -2.2980   -0.4970 hc        1 Q9G      0.051367
     38 H222       -2.8210   -3.2030    0.4690 hc        1 Q9G      0.051367
     39 H223       -1.3650   -2.4950    1.2920 hc        1 Q9G      0.051367
@<TRIPOS>BOND
     1    1    2 ar  
     2    1    6 ar  
     3    2    3 ar  
     4    2   12 1   
     5    3    4 ar  
     6    3   14 1   
     7    4    5 ar  
     8    4    8 1   
     9    5    6 ar  
    10    5   11 1   
    11    6    7 1   
    12    7   16 ar  
    13    7   21 ar  
    14    8    9 1   
    15    8   24 1   
    16    8   25 1   
    17    9   10 1   
    18    9   29 1   
    19    9   30 1   
    20   10   11 1   
    21   10   31 1   
    22   10   32 1   
    23   11   26 1   
    24   11   27 1   
    25   12   13 1   
    26   12   23 1   
    27   13   14 2   
    28   14   15 1   
    29   15   33 1   
    30   15   34 1   
    31   16   17 ar  
    32   16   28 1   
    33   17   18 1   
    34   17   19 ar  
    35   19   20 ar  
    36   19   35 1   
    37   20   21 ar  
    38   20   36 1   
    39   21   22 1   
    40   22   37 1   
    41   22   38 1   
    42   22   39 1   
@<TRIPOS>SUBSTRUCTURE
     1 Q9G         1 TEMP              0 ****  ****    0 ROOT
