@<TRIPOS>MOLECULE
Q9G
   39    42     1     0     0
SMALL
bcc


@<TRIPOS>ATOM
      1 N01        -0.0050    0.3210   -0.1180 nb        1 Q9G     -0.655000
      2 C02         1.3510    0.3400   -0.0030 ca        1 Q9G      0.424800
      3 C03         2.0770    0.1960    1.2440 ca        1 Q9G     -0.329200
      4 C04         1.3530    0.0150    2.4250 ca        1 Q9G      0.036700
      5 C05        -0.0430   -0.0350    2.3190 ca        1 Q9G     -0.210600
      6 C06        -0.6670    0.1340    1.0420 cp        1 Q9G      0.492800
      7 C07        -2.1490    0.1290    0.9700 cp        1 Q9G     -0.121500
      8 C08         2.0580   -0.1280    3.7270 c3        1 Q9G     -0.046100
      9 C09         1.1370   -0.0260    4.9260 c3        1 Q9G     -0.077400
     10 C10        -0.1420   -0.7990    4.7000 c3        1 Q9G     -0.077400
     11 C11        -0.9030   -0.2440    3.5140 c3        1 Q9G     -0.029100
     12 N12         2.3260    0.4210   -1.0310 na        1 Q9G     -0.095800
     13 N13         3.5670    0.4710   -0.5140 nc        1 Q9G     -0.579100
     14 C14         3.4910    0.2950    0.8410 cd        1 Q9G      0.541800
     15 N15         4.5660    0.2950    1.7290 nh        1 Q9G     -0.847800
     16 C16        -2.8310    1.3330    1.1510 ca        1 Q9G     -0.141000
     17 C17        -4.2360    1.3490    1.0840 ca        1 Q9G      0.115900
     18 F18        -4.9050    2.5130    1.2640 f         1 Q9G     -0.140900
     19 C19        -4.9460    0.1620    0.8300 ca        1 Q9G     -0.155000
     20 C20        -4.2470   -1.0250    0.6440 ca        1 Q9G     -0.112000
     21 C21        -2.8490   -1.0600    0.7060 ca        1 Q9G     -0.063300
     22 C22        -2.1240   -2.3330    0.4860 c3        1 Q9G     -0.058800
     23 H12         2.1640    0.9030   -1.8900 hn        1 Q9G      0.316700
     24 H081        2.8480    0.6670    3.8100 hc        1 Q9G      0.061200
     25 H082        2.5770   -1.1260    3.7380 hc        1 Q9G      0.061200
     26 H111       -1.7420   -0.9460    3.2530 hc        1 Q9G      0.057200
     27 H112       -1.3700    0.7400    3.7950 hc        1 Q9G      0.057200
     28 H16        -2.2820    2.2680    1.3390 ha        1 Q9G      0.155000
     29 H091        0.8920    1.0520    5.1200 hc        1 Q9G      0.047200
     30 H092        1.6670   -0.4180    5.8320 hc        1 Q9G      0.047200
     31 H101        0.0990   -1.8800    4.5240 hc        1 Q9G      0.045200
     32 H102       -0.7880   -0.7420    5.6140 hc        1 Q9G      0.045200
     33 H151        5.4600    0.2190    1.2900 hn        1 Q9G      0.394300
     34 H152        4.4410   -0.3720    2.4630 hn        1 Q9G      0.394300
     35 H19        -6.0440    0.1850    0.7780 ha        1 Q9G      0.149000
     36 H20        -4.8030   -1.9530    0.4390 ha        1 Q9G      0.140000
     37 H221       -1.5840   -2.3000   -0.4940 hc        1 Q9G      0.051367
     38 H222       -2.8260   -3.2030    0.4740 hc        1 Q9G      0.051367
     39 H223       -1.3680   -2.4950    1.2950 hc        1 Q9G      0.051367
@<TRIPOS>BOND
     1    1    2 ar  
     2    1    6 ar  
     3    2    3 ar  
     4    2   12 1   
     5    3    4 ar  
     6    3   14 1   
     7    4    5 ar  
     8    4    8 1   
     9    5    6 ar  
    10    5   11 1   
    11    6    7 1   
    12    7   16 ar  
    13    7   21 ar  
    14    8    9 1   
    15    8   24 1   
    16    8   25 1   
    17    9   10 1   
    18    9   29 1   
    19    9   30 1   
    20   10   11 1   
    21   10   31 1   
    22   10   32 1   
    23   11   26 1   
    24   11   27 1   
    25   12   13 1   
    26   12   23 1   
    27   13   14 2   
    28   14   15 1   
    29   15   33 1   
    30   15   34 1   
    31   16   17 ar  
    32   16   28 1   
    33   17   18 1   
    34   17   19 ar  
    35   19   20 ar  
    36   19   35 1   
    37   20   21 ar  
    38   20   36 1   
    39   21   22 1   
    40   22   37 1   
    41   22   38 1   
    42   22   39 1   
@<TRIPOS>SUBSTRUCTURE
     1 Q9G         1 TEMP              0 ****  ****    0 ROOT
