@<TRIPOS>MOLECULE
Q9G
   40    43     1     0     0
SMALL
bcc


@<TRIPOS>ATOM
      1 N01        -0.0010    0.3500   -0.1220 nb        1 Q9G     -0.614000
      2 C02         1.3560    0.3700    0.0000 ca        1 Q9G      0.421800
      3 C03         2.0880    0.1950    1.2390 ca        1 Q9G     -0.278200
      4 C04         1.3550   -0.0170    2.4210 ca        1 Q9G     -0.017300
      5 C05        -0.0330   -0.0630    2.3090 ca        1 Q9G     -0.136600
      6 C06        -0.6660    0.1370    1.0240 cp        1 Q9G      0.528800
      7 C07        -2.1470    0.1340    0.9570 cp        1 Q9G     -0.159500
      8 C08         2.0580   -0.1950    3.7200 c3        1 Q9G     -0.040100
      9 C09         1.1340   -0.0780    4.9170 c3        1 Q9G     -0.078400
     10 C10        -0.1480   -0.8440    4.6860 c3        1 Q9G     -0.081400
     11 C11        -0.9010   -0.2950    3.4930 c3        1 Q9G     -0.048100
     12 N12         2.3330    0.5610   -1.0130 na        1 Q9G     -0.039800
     13 N13         3.5540    0.5200   -0.5420 nc        1 Q9G     -0.433100
     14 C14         3.4720    0.3000    0.8200 cd        1 Q9G      0.290800
     15 N15         4.6260    0.1950    1.6820 n4        1 Q9G     -0.727600
     16 C16        -2.8160    1.3530    1.0910 ca        1 Q9G     -0.142000
     17 C17        -4.2200    1.3790    1.0270 ca        1 Q9G      0.131900
     18 F18        -4.8750    2.5550    1.1630 f         1 Q9G     -0.124900
     19 C19        -4.9410    0.1880    0.8190 ca        1 Q9G     -0.136000
     20 C20        -4.2540   -1.0110    0.6780 ca        1 Q9G     -0.102000
     21 C21        -2.8540   -1.0590    0.7390 ca        1 Q9G     -0.061300
     22 C22        -2.1520   -2.3500    0.5560 c3        1 Q9G     -0.061800
     23 H12         2.1620    0.7150   -1.9900 hn        1 Q9G      0.374700
     24 H081        2.8670    0.5790    3.8210 hc        1 Q9G      0.038700
     25 H082        2.5430   -1.2110    3.7270 hc        1 Q9G      0.038700
     26 H111       -1.3900    0.6820    3.7680 hc        1 Q9G      0.081200
     27 H112       -1.7270   -1.0080    3.2140 hc        1 Q9G      0.081200
     28 H16        -2.2610    2.2910    1.2400 ha        1 Q9G      0.155000
     29 H091        1.6570   -0.4730    5.8270 hc        1 Q9G      0.062700
     30 H092        0.8980    1.0030    5.1060 hc        1 Q9G      0.062700
     31 H101        0.0830   -1.9300    4.5250 hc        1 Q9G      0.062700
     32 H102       -0.8000   -0.7730    5.5970 hc        1 Q9G      0.062700
     33 H151        4.3530   -0.3480    2.5130 hn        1 Q9G      0.471133
     34 H152        4.9260    1.1360    1.9690 hn        1 Q9G      0.471133
     35 H19        -6.0410    0.2190    0.7670 ha        1 Q9G      0.165000
     36 H20        -4.8190   -1.9420    0.5080 ha        1 Q9G      0.153000
     37 H221       -1.2710   -2.4240    1.2410 hc        1 Q9G      0.052700
     38 H222       -2.8340   -3.2120    0.7650 hc        1 Q9G      0.052700
     39 H223       -1.7880   -2.4400   -0.4990 hc        1 Q9G      0.052700
     40 H153        5.4030   -0.2750    1.1990 hn        1 Q9G      0.471133
@<TRIPOS>BOND
     1    1    2 ar  
     2    1    6 ar  
     3    2    3 ar  
     4    2   12 1   
     5    3    4 ar  
     6    3   14 1   
     7    4    5 ar  
     8    4    8 1   
     9    5    6 ar  
    10    5   11 1   
    11    6    7 1   
    12    7   16 ar  
    13    7   21 ar  
    14    8    9 1   
    15    8   24 1   
    16    8   25 1   
    17    9   10 1   
    18    9   29 1   
    19    9   30 1   
    20   10   11 1   
    21   10   31 1   
    22   10   32 1   
    23   11   26 1   
    24   11   27 1   
    25   12   13 1   
    26   12   23 1   
    27   13   14 2   
    28   14   15 1   
    29   15   33 1   
    30   15   34 1   
    31   15   40 1   
    32   16   17 ar  
    33   16   28 1   
    34   17   18 1   
    35   17   19 ar  
    36   19   20 ar  
    37   19   35 1   
    38   20   21 ar  
    39   20   36 1   
    40   21   22 1   
    41   22   37 1   
    42   22   38 1   
    43   22   39 1   
@<TRIPOS>SUBSTRUCTURE
     1 Q9G         1 TEMP              0 ****  ****    0 ROOT
