@<TRIPOS>MOLECULE
QAB
   23    24     1     0     0
SMALL
bcc


@<TRIPOS>ATOM
      1 C1         -0.0060   -0.0480    0.0090 cc        1 QAB     -0.184600
      2 O1         -2.1280   -0.1190   -1.0770 o         1 QAB     -0.837800
      3 S1          0.7770   -0.1660    2.4560 ss        1 QAB     -0.155800
      4 C2         -0.8720   -0.0210   -1.2280 c         1 QAB      0.928200
      5 N3         -1.8350   -0.2140    1.7240 nh        1 QAB     -0.770200
      6 C5          1.4270    0.0470    0.0060 cc        1 QAB     -0.036300
      7 C6          1.9680   -0.0170    1.2750 cd        1 QAB     -0.151400
      8 C7         -0.5000   -0.1710    1.3000 cd        1 QAB      0.129500
      9 C10         2.2500    0.1640   -1.2140 c3        1 QAB     -0.021100
     10 C11         3.6830    0.5490   -0.8940 c3        1 QAB     -0.073400
     11 C12         4.2240   -0.2180    0.2950 c3        1 QAB     -0.069400
     12 C13         3.4120    0.0520    1.5520 c3        1 QAB      0.019900
     13 OXT        -0.3210    0.0940   -2.3580 o         1 QAB     -0.837800
     14 HN3        -2.1240   -1.1730    1.8200 hn        1 QAB      0.375300
     15 HN3A       -2.4180    0.2140    1.0160 hn        1 QAB      0.375300
     16 H10         1.7800    0.9140   -1.9090 hc        1 QAB      0.078200
     17 H10A        2.2220   -0.8210   -1.7570 hc        1 QAB      0.078200
     18 H11         3.7340    1.6480   -0.6760 hc        1 QAB      0.025700
     19 H11A        4.3290    0.3540   -1.7900 hc        1 QAB      0.025700
     20 H12         4.1990   -1.3160    0.0680 hc        1 QAB      0.025200
     21 H12A        5.2930    0.0660    0.4780 hc        1 QAB      0.025200
     22 H13         3.6980   -0.6890    2.3460 hc        1 QAB      0.026700
     23 H13A        3.6710    1.0740    1.9450 hc        1 QAB      0.026700
@<TRIPOS>BOND
     1    1    4 1   
     2    1    6 1   
     3    1    8 2   
     4    2    4 1   
     5    3    7 1   
     6    3    8 1   
     7    4   13 1   
     8    5    8 1   
     9    5   14 1   
    10    5   15 1   
    11    6    7 2   
    12    6    9 1   
    13    7   12 1   
    14    9   10 1   
    15    9   16 1   
    16    9   17 1   
    17   10   11 1   
    18   10   18 1   
    19   10   19 1   
    20   11   12 1   
    21   11   20 1   
    22   11   21 1   
    23   12   22 1   
    24   12   23 1   
@<TRIPOS>SUBSTRUCTURE
     1 QAB         1 TEMP              0 ****  ****    0 ROOT
