@<TRIPOS>MOLECULE
QAB
   23    24     1     0     0
SMALL
bcc


@<TRIPOS>ATOM
      1 C1         -0.0020   -0.0830   -0.0100 cc        1 QAB     -0.183600
      2 O1         -2.1190   -0.0970   -1.1100 o         1 QAB     -0.837800
      3 S1          0.7590   -0.2720    2.4400 ss        1 QAB     -0.154800
      4 C2         -0.8620    0.0040   -1.2490 c         1 QAB      0.928200
      5 N3         -1.8380   -0.4160    1.6730 nv        1 QAB     -0.770200
      6 C5          1.4320   -0.0070    0.0000 cc        1 QAB     -0.036300
      7 C6          1.9590   -0.0820    1.2750 cd        1 QAB     -0.151400
      8 C7         -0.5080   -0.2320    1.2730 cd        1 QAB      0.128500
      9 C10         2.2690    0.1290   -1.2080 c3        1 QAB     -0.022100
     10 C11         3.6910    0.5390   -0.8670 c3        1 QAB     -0.072400
     11 C12         4.2320   -0.2280    0.3220 c3        1 QAB     -0.069400
     12 C13         3.3980    0.0140    1.5710 c3        1 QAB      0.019900
     13 OXT        -0.3060    0.1790   -2.3700 o         1 QAB     -0.837800
     14 HN3        -2.3650   -0.7970    0.8950 hn        1 QAB      0.375300
     15 HN3A       -2.2430    0.4730    1.9100 hn        1 QAB      0.375300
     16 H10         1.7950    0.8740   -1.9070 hc        1 QAB      0.078200
     17 H10A        2.2690   -0.8540   -1.7520 hc        1 QAB      0.078200
     18 H11         3.7170    1.6370   -0.6390 hc        1 QAB      0.025700
     19 H11A        4.3510    0.3650   -1.7570 hc        1 QAB      0.025700
     20 H12         4.2310   -1.3240    0.0840 hc        1 QAB      0.025700
     21 H12A        5.2920    0.0750    0.5210 hc        1 QAB      0.025700
     22 H13         3.6310    1.0370    1.9770 hc        1 QAB      0.026700
     23 H13A        3.6900   -0.7290    2.3610 hc        1 QAB      0.026700
@<TRIPOS>BOND
     1    1    4 1   
     2    1    6 1   
     3    1    8 2   
     4    2    4 1   
     5    3    7 1   
     6    3    8 1   
     7    4   13 1   
     8    5    8 1   
     9    5   14 1   
    10    5   15 1   
    11    6    7 2   
    12    6    9 1   
    13    7   12 1   
    14    9   10 1   
    15    9   16 1   
    16    9   17 1   
    17   10   11 1   
    18   10   18 1   
    19   10   19 1   
    20   11   12 1   
    21   11   20 1   
    22   11   21 1   
    23   12   22 1   
    24   12   23 1   
@<TRIPOS>SUBSTRUCTURE
     1 QAB         1 TEMP              0 ****  ****    0 ROOT
