@<TRIPOS>MOLECULE
QAB
   23    24     1     0     0
SMALL
bcc


@<TRIPOS>ATOM
      1 C1         -0.9040    0.1000   -0.0700 cc        1 QAB     -0.183600
      2 O1         -3.2020    0.7400   -0.0600 o         1 QAB     -0.837800
      3 S1          0.3430   -2.1440   -0.2390 ss        1 QAB     -0.154800
      4 C2         -1.9990    1.1370    0.0150 c         1 QAB      0.928200
      5 N3         -2.3590   -1.9300   -0.3470 nh        1 QAB     -0.770200
      6 C5          0.5020    0.3860   -0.0210 cc        1 QAB     -0.036300
      7 C6          1.2800   -0.7540   -0.0880 cd        1 QAB     -0.151400
      8 C7         -1.1370   -1.2620   -0.1930 cd        1 QAB      0.128500
      9 C10         1.0750    1.7430    0.0830 c3        1 QAB     -0.022100
     10 C11         2.5420    1.7100    0.4720 c3        1 QAB     -0.073400
     11 C12         3.3050    0.6440   -0.2890 c3        1 QAB     -0.069400
     12 C13         2.7500   -0.7450   -0.0140 c3        1 QAB      0.019900
     13 OXT        -1.6840    2.3510    0.1630 o         1 QAB     -0.837800
     14 HN3        -2.6920   -2.2300    0.5540 hn        1 QAB      0.375300
     15 HN3A       -3.0400   -1.2840   -0.7280 hn        1 QAB      0.375300
     16 H10         0.9480    2.2590   -0.9080 hc        1 QAB      0.078200
     17 H10A        0.4780    2.3430    0.8260 hc        1 QAB      0.078200
     18 H11         3.0020    2.7120    0.2730 hc        1 QAB      0.025700
     19 H11A        2.6320    1.5110    1.5720 hc        1 QAB      0.025700
     20 H12         3.2390    0.8570   -1.3880 hc        1 QAB      0.025700
     21 H12A        4.3880    0.6720   -0.0020 hc        1 QAB      0.025700
     22 H13         3.0770   -1.0770    1.0100 hc        1 QAB      0.026700
     23 H13A        3.1870   -1.4710   -0.7510 hc        1 QAB      0.026700
@<TRIPOS>BOND
     1    1    4 1   
     2    1    6 1   
     3    1    8 2   
     4    2    4 1   
     5    3    7 1   
     6    3    8 1   
     7    4   13 1   
     8    5    8 1   
     9    5   14 1   
    10    5   15 1   
    11    6    7 2   
    12    6    9 1   
    13    7   12 1   
    14    9   10 1   
    15    9   16 1   
    16    9   17 1   
    17   10   11 1   
    18   10   18 1   
    19   10   19 1   
    20   11   12 1   
    21   11   20 1   
    22   11   21 1   
    23   12   22 1   
    24   12   23 1   
@<TRIPOS>SUBSTRUCTURE
     1 QAB         1 TEMP              0 ****  ****    0 ROOT
