@<TRIPOS>MOLECULE
QAB
   24    25     1     0     0
SMALL
bcc


@<TRIPOS>ATOM
      1 C1         -0.0040    0.1100    0.1580 cc        1 QAB     -0.288600
      2 O1         -1.9950   -0.4330   -1.1370 oh        1 QAB     -0.598100
      3 S1          0.8600   -0.2480    2.5350 ss        1 QAB     -0.005800
      4 C2         -0.8660    0.3350   -0.9960 c         1 QAB      0.669700
      5 N3         -1.7750   -0.1240    1.8800 nh        1 QAB     -0.794200
      6 C5          1.4270    0.0670    0.0780 cc        1 QAB     -0.016300
      7 C6          2.0090   -0.1270    1.3130 cd        1 QAB     -0.132400
      8 C7         -0.4560   -0.0460    1.4740 cd        1 QAB      0.165500
      9 C10         2.2040    0.1980   -1.1720 c3        1 QAB     -0.030100
     10 C11         3.6690    0.4790   -0.8850 c3        1 QAB     -0.074400
     11 C12         4.2050   -0.4100    0.2190 c3        1 QAB     -0.072400
     12 C13         3.4660   -0.1900    1.5300 c3        1 QAB      0.003900
     13 OXT        -0.7350    1.1690   -1.8930 o         1 QAB     -0.491000
     14 HN3        -1.9500   -1.2010   -0.5510 ho        1 QAB      0.434000
     15 HN3A       -2.4290    0.2600    1.2280 hn        1 QAB      0.405300
     16 H10         1.7680    1.0200   -1.8040 hc        1 QAB      0.069200
     17 H10A        2.1100   -0.7570   -1.7580 hc        1 QAB      0.069200
     18 H11         4.2640    0.3170   -1.8210 hc        1 QAB      0.046200
     19 H11A        3.7910    1.5540   -0.5880 hc        1 QAB      0.046200
     20 H12         5.2950   -0.2010    0.3750 hc        1 QAB      0.044700
     21 H12A        4.1060   -1.4840   -0.0880 hc        1 QAB      0.044700
     22 H13         3.7220   -1.0180    2.2440 hc        1 QAB      0.049200
     23 H13A        3.8130    0.7730    1.9960 hc        1 QAB      0.049200
     24 H33        -1.9390    0.1670    2.8200 hn        1 QAB      0.405300
@<TRIPOS>BOND
     1    1    4 1   
     2    1    6 1   
     3    1    8 2   
     4    2    4 1   
     5    2   14 1   
     6    3    7 1   
     7    3    8 1   
     8    4   13 2   
     9    5    8 1   
    10    5   15 1   
    11    5   24 1   
    12    6    7 2   
    13    6    9 1   
    14    7   12 1   
    15    9   10 1   
    16    9   16 1   
    17    9   17 1   
    18   10   11 1   
    19   10   18 1   
    20   10   19 1   
    21   11   12 1   
    22   11   20 1   
    23   11   21 1   
    24   12   22 1   
    25   12   23 1   
@<TRIPOS>SUBSTRUCTURE
     1 QAB         1 TEMP              0 ****  ****    0 ROOT
