@<TRIPOS>MOLECULE
QAF
   38    38     1     0     0
SMALL
bcc


@<TRIPOS>ATOM
      1 C01         0.0000    0.0000    0.0000 c3        1 QAF     -0.163000
      2 C02         1.5300    0.0000    0.0000 c3        1 QAF      0.023000
      3 C03         2.0390    0.0000    1.4440 c3        1 QAF     -0.104000
      4 C04         3.5700    0.0000    1.4450 c3        1 QAF     -0.584000
      5 C05         4.0590    0.0010    2.8320 c2        1 QAF     -0.134000
      6 C06         4.4690    0.0050    3.9320 c1        1 QAF     -0.206000
      7 C07         4.2310   -0.1150    5.3230 c2        1 QAF      0.043000
      8 C08         5.5690    0.0720    5.9130 c2        1 QAF     -0.028000
      9 C09         5.9040    0.0400    7.4170 c2        1 QAF     -0.422000
     10 C10         4.4590   -0.2340    8.0370 c2        1 QAF     -0.305000
     11 N11         3.4950   -0.3720    7.6670 na        1 QAF      0.913000
     12 C12         2.3280   -0.3590    8.4070 c3        1 QAF     -0.182000
     13 C13         1.5600   -1.7150    8.1190 c2        1 QAF     -0.999000
     14 P14         0.5380   -2.1660   10.1140 p3        1 QAF      1.893000
     15 O15        -0.5280   -0.7810    9.9820 o         1 QAF     -1.009000
     16 O16         1.7080   -1.7720   11.0090 o         1 QAF     -1.009000
     17 O17         0.1170   -3.4610    9.9300 o         1 QAF     -1.009000
     18 P18         2.5440   -3.0300    7.9200 p5        1 QAF      0.956500
     19 O19         2.3770   -4.3320    9.0870 o         1 QAF     -0.446833
     20 O20         2.9440   -3.1630    6.5770 o         1 QAF     -0.446833
     21 O21         4.1550   -2.6920    8.5930 o         1 QAF     -0.446833
     22 C22         3.1770   -0.3390    6.1860 c2        1 QAF     -0.518000
     23 H01        -0.6400   -0.4770   -0.7320 hc        1 QAF      0.021667
     24 H01A       -0.5020    0.8330    0.4780 hc        1 QAF      0.021667
     25 H01B       -0.2450   -0.7220    0.7690 hc        1 QAF      0.021667
     26 H02         1.8640    0.5720   -0.8570 hc        1 QAF      0.014500
     27 H02A        1.8740   -0.9580   -0.3710 hc        1 QAF      0.014500
     28 H03         1.5930    0.5110    2.2880 hc        1 QAF      0.051500
     29 H03A        2.0680   -0.8370    2.1310 hc        1 QAF      0.051500
     30 H04         4.0770   -0.3640    2.3300 DU        1 QAF      0.163000
     31 H04A        3.8570   -0.8770    0.8770 hc        1 QAF      0.034000
     32 H08         6.4890    0.2310    5.3630 ha        1 QAF      0.047000
     33 H09         6.9360    0.0750    7.7440 ha        1 QAF      0.123000
     34 H10         4.8370   -0.3260    9.0480 h4        1 QAF      0.137000
     35 H12         2.4230   -0.0690    9.4460 h1        1 QAF      0.108000
     36 H12A        1.5870    0.2320    7.8830 h1        1 QAF      0.108000
     37 H13         0.6270   -1.9150    7.6070 ha        1 QAF      0.132000
     38 H22         2.1500   -0.0450    6.0100 h4        1 QAF      0.135000
@<TRIPOS>BOND
     1    1    2 1   
     2    1   23 1   
     3    1   24 1   
     4    1   25 1   
     5    2    3 1   
     6    2   26 1   
     7    2   27 1   
     8    3    4 1   
     9    3   28 1   
    10    3   29 1   
    11    4    5 1   
    12    4   30 1   
    13    4   31 1   
    14    5    6 1   
    15    5   30 1   
    16    6    7 1   
    17    7    8 1   
    18    7   22 1   
    19    8    9 1   
    20    8   32 1   
    21    9   10 1   
    22    9   33 1   
    23   10   11 1   
    24   10   34 1   
    25   11   12 1   
    26   11   22 1   
    27   12   13 1   
    28   12   35 1   
    29   12   36 1   
    30   13   18 1   
    31   13   37 1   
    32   14   15 1   
    33   14   16 1   
    34   14   17 1   
    35   18   19 1   
    36   18   20 1   
    37   18   21 1   
    38   22   38 1   
@<TRIPOS>SUBSTRUCTURE
     1 QAF         1 TEMP              0 ****  ****    0 ROOT
