@<TRIPOS>MOLECULE
QAP
   37    38     1     0     0
SMALL
bcc


@<TRIPOS>ATOM
      1 C1         -0.2900   -0.6630    0.3270 c3        1 QAP     -0.041100
      2 O1         -2.4390    0.1210    0.9530 os        1 QAP     -0.436900
      3 C2          0.5760    0.4890   -0.0460 ca        1 QAP     -0.082300
      4 O2         -5.5130    6.7860    0.5340 oh        1 QAP     -0.495100
      5 C3         -1.7280   -0.4890   -0.1390 c3        1 QAP      0.142400
      6 O3         -6.3260    6.0170   -1.9990 oh        1 QAP     -0.515100
      7 C4          1.0390    1.3760    0.9320 ca        1 QAP     -0.123000
      8 O4         -4.2120    0.2050   -0.3970 o         1 QAP     -0.549000
      9 C5          0.9460    0.6860   -1.3820 ca        1 QAP     -0.123000
     10 C6         -5.3910    3.1450    0.8830 ca        1 QAP     -0.089800
     11 C7          1.8620    2.4440    0.5780 ca        1 QAP     -0.128500
     12 C8          1.7680    1.7550   -1.7340 ca        1 QAP     -0.128500
     13 C9          2.2280    2.6350   -0.7540 ca        1 QAP     -0.129000
     14 C10        -5.3080    4.5160    1.1760 ca        1 QAP     -0.116000
     15 C11        -5.8030    2.7280   -0.3880 ca        1 QAP     -0.097000
     16 C12        -5.0820    2.2020    1.9480 ce        1 QAP     -0.024200
     17 C13        -5.6190    5.4580    0.1930 ca        1 QAP      0.103100
     18 C14        -3.7420    0.4720    0.7120 c         1 QAP      0.643300
     19 C15        -6.0300    5.0260   -1.0880 ca        1 QAP      0.055100
     20 C16        -6.1230    3.6610   -1.3710 ca        1 QAP     -0.175000
     21 C17        -4.3790    1.0660    1.8920 cf        1 QAP     -0.206200
     22 H1         -0.2790   -0.8130    1.4400 hc        1 QAP      0.063700
     23 H1A         0.1150   -1.5980   -0.1480 hc        1 QAP      0.063700
     24 HO2        -5.7400    7.3130   -0.2480 ho        1 QAP      0.437000
     25 H3         -2.2090   -1.4790   -0.3560 h1        1 QAP      0.056200
     26 H3A        -1.8040    0.1670   -1.0440 h1        1 QAP      0.056200
     27 HO3        -6.5590    5.5900   -2.8360 ho        1 QAP      0.432000
     28 H4          0.7490    1.2320    1.9830 ha        1 QAP      0.132500
     29 H5          0.5830   -0.0070   -2.1560 ha        1 QAP      0.132500
     30 H7          2.2210    3.1380    1.3520 ha        1 QAP      0.131000
     31 H8          2.0540    1.9030   -2.7850 ha        1 QAP      0.131000
     32 H9          2.8770    3.4780   -1.0330 ha        1 QAP      0.131000
     33 H10        -4.9920    4.8640    2.1710 ha        1 QAP      0.153000
     34 H11        -5.8720    1.6510   -0.6190 ha        1 QAP      0.170000
     35 H12        -5.4760    2.5130    2.9380 ha        1 QAP      0.135000
     36 H16        -6.4450    3.3250   -2.3680 ha        1 QAP      0.140000
     37 H17        -4.2020    0.4790    2.8120 ha        1 QAP      0.154000
@<TRIPOS>BOND
     1    1    3 1   
     2    1    5 1   
     3    1   22 1   
     4    1   23 1   
     5    2    5 1   
     6    2   18 1   
     7    3    7 ar  
     8    3    9 ar  
     9    4   17 1   
    10    4   24 1   
    11    5   25 1   
    12    5   26 1   
    13    6   19 1   
    14    6   27 1   
    15    7   11 ar  
    16    7   28 1   
    17    8   18 2   
    18    9   12 ar  
    19    9   29 1   
    20   10   14 ar  
    21   10   15 ar  
    22   10   16 1   
    23   11   13 ar  
    24   11   30 1   
    25   12   13 ar  
    26   12   31 1   
    27   13   32 1   
    28   14   17 ar  
    29   14   33 1   
    30   15   20 ar  
    31   15   34 1   
    32   16   21 2   
    33   16   35 1   
    34   17   19 ar  
    35   18   21 1   
    36   19   20 ar  
    37   20   36 1   
    38   21   37 1   
@<TRIPOS>SUBSTRUCTURE
     1 QAP         1 TEMP              0 ****  ****    0 ROOT
