@<TRIPOS>MOLECULE
QAP
   37    38     1     0     0
SMALL
bcc


@<TRIPOS>ATOM
      1 C1         -0.8980    0.6980   -1.1710 c3        1 QAP     -0.040100
      2 O1         -1.7770    2.5150    0.0810 os        1 QAP     -0.448900
      3 C2          0.3890    0.2900   -0.5470 ca        1 QAP     -0.086300
      4 O2         -8.5830    5.0490    0.6200 oh        1 QAP     -0.493100
      5 C3         -1.1150    2.2030   -1.1590 c3        1 QAP      0.138400
      6 O3         -8.4820    3.1890   -1.4280 oh        1 QAP     -0.514100
      7 C4          0.6670    0.6340    0.7820 ca        1 QAP     -0.124000
      8 O4         -1.8800    4.6290   -0.6300 o         1 QAP     -0.526000
      9 C5          1.3230   -0.4590   -1.2710 ca        1 QAP     -0.124000
     10 C6         -5.1460    3.8500    0.9960 ca        1 QAP     -0.076800
     11 C7          1.8610    0.2330    1.3770 ca        1 QAP     -0.129500
     12 C8          2.5170   -0.8600   -0.6740 ca        1 QAP     -0.129500
     13 C9          2.7880   -0.5150    0.6500 ca        1 QAP     -0.130000
     14 C10        -6.3400    4.5590    1.2020 ca        1 QAP     -0.114000
     15 C11        -5.0690    2.9000   -0.0300 ca        1 QAP     -0.108000
     16 C12        -4.0260    4.1110    1.8870 ce        1 QAP     -0.039200
     17 C13        -7.4410    4.3240    0.3730 ca        1 QAP      0.108100
     18 C14        -2.1320    3.8260    0.2700 c         1 QAP      0.636300
     19 C15        -7.3500    3.3650   -0.6610 ca        1 QAP      0.054100
     20 C16        -6.1630    2.6550   -0.8570 ca        1 QAP     -0.172000
     21 C17        -2.7230    4.0810    1.5910 cf        1 QAP     -0.197200
     22 H1         -1.7440    0.2000   -0.6220 hc        1 QAP      0.063200
     23 H1A        -0.9360    0.3550   -2.2390 hc        1 QAP      0.063200
     24 HO2        -9.2440    4.8000   -0.0450 ho        1 QAP      0.438000
     25 H3         -1.7780    2.5230   -2.0060 h1        1 QAP      0.057700
     26 H3A        -0.1520    2.7730   -1.2050 h1        1 QAP      0.057700
     27 HO3        -8.2740    2.5440   -2.1190 ho        1 QAP      0.432000
     28 H4         -0.0690    1.2270    1.3470 ha        1 QAP      0.136500
     29 H5          1.1150   -0.7350   -2.3160 ha        1 QAP      0.136500
     30 H7          2.0730    0.5060    2.4210 ha        1 QAP      0.131000
     31 H8          3.2460   -1.4490   -1.2490 ha        1 QAP      0.131000
     32 H9          3.7310   -0.8320    1.1200 ha        1 QAP      0.131000
     33 H10        -6.4240    5.3060    2.0050 ha        1 QAP      0.156000
     34 H11        -4.1350    2.3340   -0.1830 ha        1 QAP      0.150000
     35 H12        -4.3230    4.3750    2.9210 ha        1 QAP      0.138000
     36 H16        -6.0950    1.9070   -1.6600 ha        1 QAP      0.138000
     37 H17        -1.9600    4.2830    2.3630 ha        1 QAP      0.157000
@<TRIPOS>BOND
     1    1    3 1   
     2    1    5 1   
     3    1   22 1   
     4    1   23 1   
     5    2    5 1   
     6    2   18 1   
     7    3    7 ar  
     8    3    9 ar  
     9    4   17 1   
    10    4   24 1   
    11    5   25 1   
    12    5   26 1   
    13    6   19 1   
    14    6   27 1   
    15    7   11 ar  
    16    7   28 1   
    17    8   18 2   
    18    9   12 ar  
    19    9   29 1   
    20   10   14 ar  
    21   10   15 ar  
    22   10   16 1   
    23   11   13 ar  
    24   11   30 1   
    25   12   13 ar  
    26   12   31 1   
    27   13   32 1   
    28   14   17 ar  
    29   14   33 1   
    30   15   20 ar  
    31   15   34 1   
    32   16   21 2   
    33   16   35 1   
    34   17   19 ar  
    35   18   21 1   
    36   19   20 ar  
    37   20   36 1   
    38   21   37 1   
@<TRIPOS>SUBSTRUCTURE
     1 QAP         1 TEMP              0 ****  ****    0 ROOT
