@<TRIPOS>MOLECULE
QAP
   37    38     1     0     0
SMALL
bcc


@<TRIPOS>ATOM
      1 C1         -3.6970   -0.9160    0.2730 c3        1 QAP     -0.042100
      2 O1         -1.4380   -0.2560    0.1230 os        1 QAP     -0.442900
      3 C2         -5.1210   -0.5100    0.1350 ca        1 QAP     -0.083300
      4 O2          6.7360    1.6590    0.2780 oh        1 QAP     -0.491100
      5 C3         -2.7750    0.2690    0.0340 c3        1 QAP      0.144400
      6 O3          7.3390   -1.0430    0.2310 oh        1 QAP     -0.512100
      7 C4         -5.6540   -0.2320   -1.1300 ca        1 QAP     -0.124000
      8 O4         -0.7170    1.8160   -0.3090 o         1 QAP     -0.547000
      9 C5         -5.9460   -0.4160    1.2620 ca        1 QAP     -0.124000
     10 C6          3.3740    0.2450   -0.0350 ca        1 QAP     -0.080800
     11 C7         -6.9920    0.1350   -1.2640 ca        1 QAP     -0.127500
     12 C8         -7.2840   -0.0500    1.1250 ca        1 QAP     -0.127500
     13 C9         -7.8090    0.2270   -0.1370 ca        1 QAP     -0.129000
     14 C10         4.4280    1.1670    0.0750 ca        1 QAP     -0.109000
     15 C11         3.6540   -1.1280   -0.0640 ca        1 QAP     -0.103000
     16 C12         2.0180    0.7580   -0.1250 ce        1 QAP     -0.017200
     17 C13         5.7470    0.7110    0.1660 ca        1 QAP      0.106100
     18 C14        -0.4200    0.6410   -0.0710 c         1 QAP      0.633300
     19 C15         6.0140   -0.6760    0.1390 ca        1 QAP      0.058100
     20 C16         4.9640   -1.5910    0.0220 ca        1 QAP     -0.177000
     21 C17         0.9050    0.0260    0.0420 cf        1 QAP     -0.218200
     22 H1         -3.5020   -1.3360    1.2960 hc        1 QAP      0.061200
     23 H1A        -3.4580   -1.7250   -0.4680 hc        1 QAP      0.061200
     24 HO2         7.5880    1.1980    0.3290 ho        1 QAP      0.439000
     25 H3         -2.9250    0.7150   -0.9830 h1        1 QAP      0.056700
     26 H3A        -2.9040    1.0650    0.8110 h1        1 QAP      0.056700
     27 HO3         7.3840   -2.0090    0.2010 ho        1 QAP      0.433000
     28 H4         -5.0110   -0.3060   -2.0190 ha        1 QAP      0.132500
     29 H5         -5.5360   -0.6330    2.2600 ha        1 QAP      0.132500
     30 H7         -7.4030    0.3520   -2.2600 ha        1 QAP      0.132000
     31 H8         -7.9250    0.0220    2.0160 ha        1 QAP      0.132000
     32 H9         -8.8640    0.5160   -0.2430 ha        1 QAP      0.132000
     33 H10         4.2340    2.2500    0.0950 ha        1 QAP      0.160000
     34 H11         2.8340   -1.8550   -0.1620 ha        1 QAP      0.141000
     35 H12         1.9300    1.8420   -0.3420 ha        1 QAP      0.151000
     36 H16         5.1740   -2.6700   -0.0030 ha        1 QAP      0.140000
     37 H17         0.9080   -1.0500    0.2730 ha        1 QAP      0.154000
@<TRIPOS>BOND
     1    1    3 1   
     2    1    5 1   
     3    1   22 1   
     4    1   23 1   
     5    2    5 1   
     6    2   18 1   
     7    3    7 ar  
     8    3    9 ar  
     9    4   17 1   
    10    4   24 1   
    11    5   25 1   
    12    5   26 1   
    13    6   19 1   
    14    6   27 1   
    15    7   11 ar  
    16    7   28 1   
    17    8   18 2   
    18    9   12 ar  
    19    9   29 1   
    20   10   14 ar  
    21   10   15 ar  
    22   10   16 1   
    23   11   13 ar  
    24   11   30 1   
    25   12   13 ar  
    26   12   31 1   
    27   13   32 1   
    28   14   17 ar  
    29   14   33 1   
    30   15   20 ar  
    31   15   34 1   
    32   16   21 2   
    33   16   35 1   
    34   17   19 ar  
    35   18   21 1   
    36   19   20 ar  
    37   20   36 1   
    38   21   37 1   
@<TRIPOS>SUBSTRUCTURE
     1 QAP         1 TEMP              0 ****  ****    0 ROOT
