@<TRIPOS>MOLECULE
QAQ
   41    44     1     0     0
SMALL
bcc


@<TRIPOS>ATOM
      1 N1          0.0310    0.2520    0.0190 nb        1 QAQ     -0.824000
      2 N3          2.0630   -0.6450    1.0830 nb        1 QAQ     -0.795000
      3 C4         -2.8540    0.1500    2.3370 ca        1 QAQ     -0.050200
      4 C5         -4.2180    0.2990    1.8710 ca        1 QAQ      0.088400
      5 C6         -2.9780    0.1300    0.0490 cc        1 QAQ      0.641700
      6 C7         -2.5580    0.1640    3.7000 ca        1 QAQ     -0.102000
      7 C8         -3.6230    0.3050    4.5890 ca        1 QAQ     -0.127000
      8 C10        -5.2600    0.4400    2.7920 ca        1 QAQ     -0.084000
      9 C13        -3.4860   -0.2200   -2.3090 ca        1 QAQ      0.169600
     10 C15        -5.3500   -1.4340   -3.2800 ca        1 QAQ     -0.080000
     11 C17        -4.2260    0.2520   -4.5700 ca        1 QAQ      0.144100
     12 N8          4.5840    1.0380   -3.4090 n1        1 QAQ     -0.334800
     13 C12         4.0950    0.6320   -2.4370 c1        1 QAQ      0.184700
     14 N7          2.1350    0.4720   -1.0430 nu        1 QAQ     -0.852900
     15 C1          1.4000    0.0000    0.0380 ca        1 QAQ      0.927900
     16 C3          1.2590   -0.9920    2.1140 ca        1 QAQ      0.708900
     17 N2         -0.0760   -0.7990    2.2300 nb        1 QAQ     -0.775000
     18 C2         -0.6640   -0.1710    1.1330 ca        1 QAQ      0.825500
     19 N4         -2.0510    0.0570    1.1730 na        1 QAQ     -0.221100
     20 C9         -4.9440    0.4380    4.1460 ca        1 QAQ     -0.137000
     21 N5         -4.2570    0.2890    0.4610 nd        1 QAQ     -0.582100
     22 C18        -3.3570    0.5170   -3.5060 ca        1 QAQ     -0.256000
     23 C14        -4.4940   -1.2000   -2.2060 ca        1 QAQ     -0.154000
     24 C16        -5.2310   -0.7240   -4.4690 ca        1 QAQ     -0.169000
     25 O1         -4.1480    0.9270   -5.7670 oh        1 QAQ     -0.496100
     26 H7         -1.5340    0.0630    4.0820 ha        1 QAQ      0.157000
     27 H8         -3.4150    0.3100    5.6700 ha        1 QAQ      0.135000
     28 H10        -6.2980    0.5520    2.4460 ha        1 QAQ      0.151000
     29 H15        -6.1350   -2.2000   -3.1830 ha        1 QAQ      0.139000
     30 H11         3.6430   -1.0220   -1.2080 h1        1 QAQ      0.091200
     31 H11A        4.1140    0.5120   -0.3270 h1        1 QAQ      0.091200
     32 HN7         1.6380    0.8000   -1.8410 hn        1 QAQ      0.457800
     33 H3          1.7530   -1.5050    2.9690 h5        1 QAQ      0.065100
     34 H9         -5.7510    0.5450    4.8880 ha        1 QAQ      0.135000
     35 HN6        -1.7830    0.5850   -1.5270 hn        1 QAQ      0.440800
     36 H18        -2.5860    1.2930   -3.6150 ha        1 QAQ      0.132000
     37 H14        -4.6170   -1.7800   -1.2790 ha        1 QAQ      0.153000
     38 H16        -5.9020   -0.9060   -5.3200 ha        1 QAQ      0.153000
     39 HO1        -3.4410    1.5850   -5.6960 ho        1 QAQ      0.418000
     40 N6         -2.5320   -0.0340   -1.2770 nu        1 QAQ     -0.657600
     41 C11         3.5220    0.1050   -1.2030 c3        1 QAQ      0.287900
@<TRIPOS>BOND
     1    1   15 ar  
     2    1   18 ar  
     3    2   15 ar  
     4    2   16 ar  
     5    3    4 ar  
     6    3    6 ar  
     7    3   19 1   
     8    4    8 ar  
     9    4   21 1   
    10    5   19 1   
    11    5   21 2   
    12    5   40 1   
    13    6    7 ar  
    14    6   26 1   
    15    7   20 ar  
    16    7   27 1   
    17    8   20 ar  
    18    8   28 1   
    19    9   22 ar  
    20    9   23 ar  
    21    9   40 1   
    22   10   23 ar  
    23   10   24 ar  
    24   10   29 1   
    25   11   22 ar  
    26   11   24 ar  
    27   11   25 1   
    28   12   13 3   
    29   13   41 1   
    30   14   15 1   
    31   14   32 1   
    32   14   41 1   
    33   16   17 ar  
    34   16   33 1   
    35   17   18 ar  
    36   18   19 1   
    37   20   34 1   
    38   22   36 1   
    39   23   37 1   
    40   24   38 1   
    41   25   39 1   
    42   30   41 1   
    43   31   41 1   
    44   35   40 1   
@<TRIPOS>SUBSTRUCTURE
     1 QAQ         1 TEMP              0 ****  ****    0 ROOT
