@<TRIPOS>MOLECULE
QAQ
   43    46     1     0     0
SMALL
bcc


@<TRIPOS>ATOM
      1 N1          0.1960   -0.4460    0.0230 nb        1 QAQ     -0.845000
      2 N3          2.2170   -0.5240    1.4080 nb        1 QAQ     -0.706000
      3 C4         -2.8070    0.0870    2.2240 ca        1 QAQ     -0.035200
      4 C5         -4.0800    0.4490    1.6230 ca        1 QAQ      0.034400
      5 C6         -2.7650   -0.0850   -0.0540 cc        1 QAQ      0.407700
      6 C7         -2.6550    0.0830    3.6050 ca        1 QAQ     -0.098000
      7 C8         -3.7600    0.4680    4.3760 ca        1 QAQ     -0.053000
      8 C10        -5.1640    0.8310    2.4200 ca        1 QAQ     -0.010000
      9 C13        -3.3770   -0.4400   -2.4120 ca        1 QAQ     -0.014400
     10 C15        -5.0950   -1.6370   -3.6000 ca        1 QAQ     -0.056000
     11 C17        -4.6460    0.6800   -4.1220 ca        1 QAQ      0.173100
     12 N8          4.5950    0.4190   -3.4470 n1        1 QAQ     -0.159800
     13 C12         4.0310    0.4010   -2.4300 c1        1 QAQ      0.093700
     14 N7          2.4050   -0.7070   -1.0030 n4        1 QAQ     -0.757700
     15 C1          1.5520   -0.5470    0.2200 ca        1 QAQ      0.799900
     16 C3          1.3900   -0.3880    2.4990 ca        1 QAQ      0.752900
     17 N2          0.0510   -0.2810    2.4720 nb        1 QAQ     -0.684000
     18 C2         -0.5450   -0.3170    1.2060 ca        1 QAQ      0.829500
     19 N4         -1.9340   -0.2640    1.1380 na        1 QAQ     -0.184100
     20 C9         -4.9800    0.8390    3.8030 ca        1 QAQ     -0.115000
     21 N5         -4.0130    0.3190    0.2220 nd        1 QAQ     -0.376100
     22 C18        -3.6400    0.7290   -3.1400 ca        1 QAQ     -0.146000
     23 C14        -4.1010   -1.6250   -2.6190 ca        1 QAQ     -0.135000
     24 C16        -5.3740   -0.5010   -4.3520 ca        1 QAQ     -0.149000
     25 O1         -4.8450    1.8410   -4.8130 oh        1 QAQ     -0.467100
     26 H7         -1.7270   -0.2140    4.1160 ha        1 QAQ      0.180000
     27 H8         -3.6570    0.4730    5.4770 ha        1 QAQ      0.179000
     28 H10        -6.1310    1.1080    1.9670 ha        1 QAQ      0.187000
     29 H15        -5.6690   -2.5650   -3.7730 ha        1 QAQ      0.182000
     30 H11         2.8020    1.4130   -1.0260 hx        1 QAQ      0.153700
     31 H11A        4.1440    0.3680   -0.3070 hx        1 QAQ      0.153700
     32 HN7         2.9360   -1.5910   -0.9130 hn        1 QAQ      0.484300
     33 H3          1.8940   -0.3640    3.5010 h5        1 QAQ      0.131100
     34 H9         -5.8190    1.1370    4.4570 ha        1 QAQ      0.183000
     35 HN6        -1.8610   -1.3500   -1.3810 hn        1 QAQ      0.467800
     36 H18        -3.1090    1.6780   -2.9730 ha        1 QAQ      0.174000
     37 H14        -3.9120   -2.5350   -2.0280 ha        1 QAQ      0.160000
     38 H16        -6.1660   -0.5230   -5.1210 ha        1 QAQ      0.181000
     39 HO1        -5.5770    1.7150   -5.4420 ho        1 QAQ      0.458000
     40 C11         3.3740    0.4430   -1.1390 c3        1 QAQ      0.208900
     41 H72         1.8140   -0.7660   -1.8430 hn        1 QAQ      0.484300
     42 H62        -1.6040    0.2910   -1.6880 hn        1 QAQ      0.467800
     43 N6         -2.2960   -0.4170   -1.4050 n4        1 QAQ     -0.537400
@<TRIPOS>BOND
     1    1   15 ar  
     2    1   18 ar  
     3    2   15 ar  
     4    2   16 ar  
     5    3    4 ar  
     6    3    6 ar  
     7    3   19 1   
     8    4    8 ar  
     9    4   21 1   
    10    5   19 1   
    11    5   21 2   
    12    5   43 1   
    13    6    7 ar  
    14    6   26 1   
    15    7   20 ar  
    16    7   27 1   
    17    8   20 ar  
    18    8   28 1   
    19    9   22 ar  
    20    9   23 ar  
    21    9   43 1   
    22   10   23 ar  
    23   10   24 ar  
    24   10   29 1   
    25   11   22 ar  
    26   11   24 ar  
    27   11   25 1   
    28   12   13 3   
    29   13   40 1   
    30   14   15 1   
    31   14   32 1   
    32   14   40 1   
    33   14   41 1   
    34   16   17 ar  
    35   16   33 1   
    36   17   18 ar  
    37   18   19 1   
    38   20   34 1   
    39   22   36 1   
    40   23   37 1   
    41   24   38 1   
    42   25   39 1   
    43   30   40 1   
    44   31   40 1   
    45   35   43 1   
    46   42   43 1   
@<TRIPOS>SUBSTRUCTURE
     1 QAQ         1 TEMP              0 ****  ****    0 ROOT
