@<TRIPOS>MOLECULE
QAQ
   41    44     1     0     0
SMALL
bcc


@<TRIPOS>ATOM
      1 N1          0.0790    0.2050    0.0070 nb        1 QAQ     -0.825000
      2 N3          2.1200   -0.6710    1.0730 nb        1 QAQ     -0.796000
      3 C4         -2.8050    0.0890    2.3210 ca        1 QAQ     -0.050200
      4 C5         -4.1680    0.2410    1.8530 ca        1 QAQ      0.089400
      5 C6         -2.9260    0.0650    0.0330 cc        1 QAQ      0.644700
      6 C7         -2.5110    0.1030    3.6850 ca        1 QAQ     -0.102000
      7 C8         -3.5760    0.2490    4.5710 ca        1 QAQ     -0.128000
      8 C10        -5.2110    0.3870    2.7730 ca        1 QAQ     -0.084000
      9 C13        -3.4300   -0.2800   -2.3280 ca        1 QAQ      0.165600
     10 C15        -5.3130   -1.4630   -3.3020 ca        1 QAQ     -0.075000
     11 C17        -4.1420    0.1890   -4.5970 ca        1 QAQ      0.143100
     12 N8          4.6340    1.0450   -3.4100 n1        1 QAQ     -0.333800
     13 C12         4.1460    0.6340   -2.4390 c1        1 QAQ      0.184700
     14 N7          2.1810    0.4380   -1.0570 nh        1 QAQ     -0.854900
     15 C1          1.4510   -0.0340    0.0260 ca        1 QAQ      0.929900
     16 C3          1.3180   -1.0250    2.1040 ca        1 QAQ      0.708900
     17 N2         -0.0190   -0.8460    2.2180 nb        1 QAQ     -0.776000
     18 C2         -0.6120   -0.2240    1.1210 ca        1 QAQ      0.825500
     19 N4         -2.0020   -0.0110    1.1580 na        1 QAQ     -0.221100
     20 C9         -4.8970    0.3870    4.1280 ca        1 QAQ     -0.137000
     21 N5         -4.2060    0.2280    0.4430 nd        1 QAQ     -0.584100
     22 C18        -3.2750    0.4460   -3.5270 ca        1 QAQ     -0.202000
     23 C14        -4.4610   -1.2390   -2.2250 ca        1 QAQ     -0.154000
     24 C16        -5.1670   -0.7610   -4.4960 ca        1 QAQ     -0.227000
     25 O1         -3.9240    0.9250   -5.7400 oh        1 QAQ     -0.499100
     26 H7         -1.4870   -0.0000    4.0670 ha        1 QAQ      0.158000
     27 H8         -3.3690    0.2560    5.6520 ha        1 QAQ      0.135000
     28 H10        -6.2480    0.5020    2.4260 ha        1 QAQ      0.151000
     29 H15        -6.1150   -2.2100   -3.2070 ha        1 QAQ      0.137000
     30 H11         3.7190   -1.0240   -1.2060 h1        1 QAQ      0.090700
     31 H11A        4.1560    0.5230   -0.3290 h1        1 QAQ      0.090700
     32 HN7         1.6840    0.7760   -1.8500 hn        1 QAQ      0.460800
     33 H3          1.8160   -1.5320    2.9600 h5        1 QAQ      0.064100
     34 H9         -5.7030    0.4980    4.8680 ha        1 QAQ      0.135000
     35 HN6        -1.7200    0.5010   -1.5420 hn        1 QAQ      0.443800
     36 H18        -2.4910    1.2070   -3.6510 ha        1 QAQ      0.150000
     37 H14        -4.6010   -1.8110   -1.2950 ha        1 QAQ      0.154000
     38 H16        -5.8420   -0.9460   -5.3410 ha        1 QAQ      0.136000
     39 HO1        -4.5990    0.6750   -6.3880 ho        1 QAQ      0.421000
     40 N6         -2.4790   -0.1050   -1.2920 nh        1 QAQ     -0.658600
     41 C11         3.5760    0.1010   -1.2070 c3        1 QAQ      0.289900
@<TRIPOS>BOND
     1    1   15 ar  
     2    1   18 ar  
     3    2   15 ar  
     4    2   16 ar  
     5    3    4 ar  
     6    3    6 ar  
     7    3   19 1   
     8    4    8 ar  
     9    4   21 1   
    10    5   19 1   
    11    5   21 2   
    12    5   40 1   
    13    6    7 ar  
    14    6   26 1   
    15    7   20 ar  
    16    7   27 1   
    17    8   20 ar  
    18    8   28 1   
    19    9   22 ar  
    20    9   23 ar  
    21    9   40 1   
    22   10   23 ar  
    23   10   24 ar  
    24   10   29 1   
    25   11   22 ar  
    26   11   24 ar  
    27   11   25 1   
    28   12   13 3   
    29   13   41 1   
    30   14   15 1   
    31   14   32 1   
    32   14   41 1   
    33   16   17 ar  
    34   16   33 1   
    35   17   18 ar  
    36   18   19 1   
    37   20   34 1   
    38   22   36 1   
    39   23   37 1   
    40   24   38 1   
    41   25   39 1   
    42   30   41 1   
    43   31   41 1   
    44   35   40 1   
@<TRIPOS>SUBSTRUCTURE
     1 QAQ         1 TEMP              0 ****  ****    0 ROOT
