@<TRIPOS>MOLECULE
QAQ
   41    44     1     0     0
SMALL
bcc


@<TRIPOS>ATOM
      1 N1         -1.6270    0.7850    0.2190 nb        1 QAQ     -0.825000
      2 N3         -3.3280    2.3270   -0.6740 nb        1 QAQ     -0.796000
      3 C4          1.7310    2.3370    0.2160 ca        1 QAQ     -0.050200
      4 C5          2.9370    1.5520    0.3850 ca        1 QAQ      0.089400
      5 C6          1.2990    0.0880    0.1410 cc        1 QAQ      0.643700
      6 C7          1.7740    3.7310    0.2560 ca        1 QAQ     -0.102000
      7 C8          3.0160    4.3320    0.4450 ca        1 QAQ     -0.128000
      8 C10         4.1670    2.1910    0.5740 ca        1 QAQ     -0.084000
      9 C13         1.2280   -2.3180   -0.2510 ca        1 QAQ      0.165600
     10 C15         2.8510   -3.6940   -1.4200 ca        1 QAQ     -0.075000
     11 C17         1.3610   -4.7000    0.1750 ca        1 QAQ      0.143100
     12 N8         -6.8910   -1.4460    0.8890 n1        1 QAQ     -0.333800
     13 C12        -6.1730   -0.6150    0.5090 c1        1 QAQ      0.184700
     14 N7         -3.9290    0.2560    0.3850 nh        1 QAQ     -0.854900
     15 C1         -2.9480    1.1390   -0.0480 ca        1 QAQ      0.929900
     16 C3         -2.2930    3.1400   -0.9880 ca        1 QAQ      0.708900
     17 N2         -0.9730    2.9250   -0.7780 nb        1 QAQ     -0.776000
     18 C2         -0.6780    1.7070   -0.1700 ca        1 QAQ      0.825500
     19 N4          0.6740    1.4040    0.0720 na        1 QAQ     -0.221100
     20 C9          4.1880    3.5810    0.5990 ca        1 QAQ     -0.137000
     21 N5          2.6350    0.1750    0.3400 nd        1 QAQ     -0.584100
     22 C18         0.7710   -3.4580    0.4420 ca        1 QAQ     -0.202000
     23 C14         2.2770   -2.4480   -1.1870 ca        1 QAQ     -0.154000
     24 C16         2.4040   -4.8300   -0.7510 ca        1 QAQ     -0.227000
     25 O1          0.8560   -5.7710    0.8790 oh        1 QAQ     -0.499100
     26 H7          0.8750    4.3510    0.1400 ha        1 QAQ      0.158000
     27 H8          3.0760    5.4310    0.4730 ha        1 QAQ      0.135000
     28 H10         5.0860    1.6020    0.7030 ha        1 QAQ      0.151000
     29 H15         3.6710   -3.7810   -2.1490 ha        1 QAQ      0.137000
     30 H11        -5.4190    0.5060   -1.1120 h1        1 QAQ      0.090700
     31 H11A       -5.6710    1.4370    0.4450 h1        1 QAQ      0.090700
     32 HN7        -3.6460   -0.6390    0.7150 hn        1 QAQ      0.460800
     33 H3         -2.5570    4.1000   -1.4850 h5        1 QAQ      0.064100
     34 H9          5.1450    4.1030    0.7450 ha        1 QAQ      0.135000
     35 HN6        -0.2610   -1.1570    0.5160 hn        1 QAQ      0.443800
     36 H18        -0.0380   -3.4030    1.1830 ha        1 QAQ      0.150000
     37 H14         2.6510   -1.5690   -1.7320 ha        1 QAQ      0.154000
     38 H16         2.8610   -5.8100   -0.9430 ha        1 QAQ      0.136000
     39 HO1         1.3620   -6.5570    0.6260 ho        1 QAQ      0.421000
     40 N6          0.5510   -1.0860   -0.0700 nh        1 QAQ     -0.658600
     41 C11        -5.3100    0.4530    0.0150 c3        1 QAQ      0.289900
@<TRIPOS>BOND
     1    1   15 ar  
     2    1   18 ar  
     3    2   15 ar  
     4    2   16 ar  
     5    3    4 ar  
     6    3    6 ar  
     7    3   19 1   
     8    4    8 ar  
     9    4   21 1   
    10    5   19 1   
    11    5   21 2   
    12    5   40 1   
    13    6    7 ar  
    14    6   26 1   
    15    7   20 ar  
    16    7   27 1   
    17    8   20 ar  
    18    8   28 1   
    19    9   22 ar  
    20    9   23 ar  
    21    9   40 1   
    22   10   23 ar  
    23   10   24 ar  
    24   10   29 1   
    25   11   22 ar  
    26   11   24 ar  
    27   11   25 1   
    28   12   13 3   
    29   13   41 1   
    30   14   15 1   
    31   14   32 1   
    32   14   41 1   
    33   16   17 ar  
    34   16   33 1   
    35   17   18 ar  
    36   18   19 1   
    37   20   34 1   
    38   22   36 1   
    39   23   37 1   
    40   24   38 1   
    41   25   39 1   
    42   30   41 1   
    43   31   41 1   
    44   35   40 1   
@<TRIPOS>SUBSTRUCTURE
     1 QAQ         1 TEMP              0 ****  ****    0 ROOT
