@<TRIPOS>MOLECULE
QAR
   38    41     1     0     0
SMALL
bcc


@<TRIPOS>ATOM
      1 N1          0.0130    0.2540   -0.0880 nb        1 QAR     -0.722000
      2 N3          2.0130    0.2240    1.2820 nb        1 QAR     -0.819000
      3 C4          1.1890   -0.2590    4.9160 ca        1 QAR     -0.032200
      4 C5          2.2450   -0.1350    5.9060 ca        1 QAR      0.044400
      5 C6          3.2450    0.0010    3.9530 cc        1 QAR      0.438700
      6 C7         -0.1290   -0.4560    5.3140 ca        1 QAR     -0.112000
      7 C8         -0.3870   -0.5090    6.6880 ca        1 QAR     -0.060000
      8 C10         1.9540   -0.1920    7.2730 ca        1 QAR     -0.012000
      9 C13         6.5880    1.0900    3.5410 cc        1 QAR     -0.233300
     10 C14         7.7100    0.5100    4.1530 cd        1 QAR     -0.089300
     11 N8          7.3790   -0.8250    4.4200 na        1 QAR      0.050400
     12 N9          6.1630   -1.1500    4.0440 nd        1 QAR     -0.428800
     13 C12         5.6330    0.0020    3.4780 cc        1 QAR      0.297200
     14 N6          4.2940    0.0830    2.9240 n4        1 QAR     -0.603700
     15 N5          3.4950    0.0160    5.2690 nd        1 QAR     -0.386100
     16 C9          0.6240   -0.3770    7.6450 ca        1 QAR     -0.114000
     17 N4          1.8270   -0.1740    3.6380 na        1 QAR     -0.191100
     18 C2          1.2140   -0.0090    2.3980 ca        1 QAR      0.841500
     19 N2         -0.1790   -0.1110    2.3290 nb        1 QAR     -0.746000
     20 C3          1.3850    0.3450    0.0810 ca        1 QAR      0.796300
     21 C11         2.2070    0.5940   -1.1570 c3        1 QAR     -0.164400
     22 C1         -0.6800    0.0290    1.0630 ca        1 QAR      0.796900
     23 N7         -2.1670   -0.0760    0.9280 n4        1 QAR     -0.826300
     24 H7         -0.9600   -0.5800    4.6080 ha        1 QAR      0.157000
     25 H8         -1.4280   -0.6650    7.0240 ha        1 QAR      0.171000
     26 H10         2.7550   -0.0980    8.0260 ha        1 QAR      0.188000
     27 HN6         4.1650   -0.6930    2.2520 hn        1 QAR      0.487300
     28 H9          0.3650   -0.4260    8.7180 ha        1 QAR      0.182000
     29 H11         2.0400   -0.2400   -1.8880 hc        1 QAR      0.105700
     30 H11A        3.2970    0.6590   -0.9210 hc        1 QAR      0.105700
     31 H11B        1.8780    1.5540   -1.6360 hc        1 QAR      0.105700
     32 HN7        -2.6140    0.6460    1.5110 hn        1 QAR      0.496133
     33 HN7A       -2.4710   -1.0080    1.2440 hn        1 QAR      0.496133
     34 HN8         7.9650   -1.5170    4.8540 hn        1 QAR      0.370700
     35 H13         6.4680    2.1130    3.1970 ha        1 QAR      0.198000
     36 H62         4.2130    0.9900    2.4370 hn        1 QAR      0.487300
     37 H73        -2.4420    0.0590   -0.0590 hn        1 QAR      0.496133
     38 H14         8.6860    0.9350    4.4100 h4        1 QAR      0.228000
@<TRIPOS>BOND
     1    1   20 ar  
     2    1   22 ar  
     3    2   18 ar  
     4    2   20 ar  
     5    3    4 ar  
     6    3    6 ar  
     7    3   17 1   
     8    4    8 ar  
     9    4   15 1   
    10    5   14 1   
    11    5   15 2   
    12    5   17 1   
    13    6    7 ar  
    14    6   24 1   
    15    7   16 ar  
    16    7   25 1   
    17    8   16 ar  
    18    8   26 1   
    19    9   10 2   
    20    9   13 1   
    21    9   35 1   
    22   10   11 1   
    23   10   38 1   
    24   11   12 1   
    25   11   34 1   
    26   12   13 2   
    27   13   14 1   
    28   14   27 1   
    29   14   36 1   
    30   16   28 1   
    31   17   18 1   
    32   18   19 ar  
    33   19   22 ar  
    34   20   21 1   
    35   21   29 1   
    36   21   30 1   
    37   21   31 1   
    38   22   23 1   
    39   23   32 1   
    40   23   33 1   
    41   23   37 1   
@<TRIPOS>SUBSTRUCTURE
     1 QAR         1 TEMP              0 ****  ****    0 ROOT
