@<TRIPOS>MOLECULE
QAR
   36    39     1     0     0
SMALL
bcc


@<TRIPOS>ATOM
      1 N1          3.3220   -2.5120    0.2730 nb        1 QAR     -0.801000
      2 N3          1.0820   -1.8190   -0.3610 nb        1 QAR     -0.817000
      3 C4          0.7050    1.8790   -0.2770 ca        1 QAR     -0.055200
      4 C5         -0.5900    2.5240   -0.1980 ca        1 QAR      0.096400
      5 C6         -0.9870    0.3560   -0.0230 cc        1 QAR      0.649700
      6 C7          1.8660    2.6270   -0.4680 ca        1 QAR     -0.099000
      7 C8          1.7340    4.0120   -0.5560 ca        1 QAR     -0.135000
      8 C10        -0.6840    3.9160   -0.2930 ca        1 QAR     -0.090000
      9 C13        -3.9260   -0.1350    0.9640 cc        1 QAR     -0.248300
     10 C14        -5.1970   -0.6080    0.6200 cd        1 QAR     -0.151300
     11 N8         -5.0060   -1.6230   -0.3200 na        1 QAR     -0.014600
     12 N9         -3.7280   -1.8270   -0.6150 nd        1 QAR     -0.544800
     13 C12        -3.0090   -0.9350    0.1630 cc        1 QAR      0.493200
     14 N6         -1.6000   -0.8890    0.2350 nh        1 QAR     -0.720900
     15 N5         -1.6090    1.5610   -0.0440 nd        1 QAR     -0.595100
     16 C9          0.4880    4.6440   -0.4680 ca        1 QAR     -0.137000
     17 N4          0.4560    0.4860   -0.1940 na        1 QAR     -0.223100
     18 C2          1.4260   -0.5230   -0.0160 ca        1 QAR      0.822500
     19 N2          2.6610   -0.1440    0.4690 nb        1 QAR     -0.815000
     20 C3          2.0660   -2.7550   -0.1900 ca        1 QAR      0.734300
     21 C11         1.7160   -4.1810   -0.5500 c3        1 QAR     -0.143400
     22 C1          3.5870   -1.1770    0.5840 ca        1 QAR      0.925900
     23 N7          4.8610   -0.8480    1.0060 nh        1 QAR     -0.942500
     24 H7          2.8570    2.1620   -0.5500 ha        1 QAR      0.153000
     25 H8          2.6380    4.6240   -0.7010 ha        1 QAR      0.132000
     26 H10        -1.6630    4.4130   -0.2350 ha        1 QAR      0.148000
     27 H14        -6.1880   -0.3110    0.9610 h4        1 QAR      0.177000
     28 HN6        -1.1530   -1.6690   -0.2180 hn        1 QAR      0.454800
     29 H9          0.4350    5.7400   -0.5420 ha        1 QAR      0.132000
     30 H11         1.3950   -4.2250   -1.6210 hc        1 QAR      0.069367
     31 H11A        2.5890   -4.8610   -0.4050 hc        1 QAR      0.069367
     32 H11B        0.8720   -4.5280    0.0960 hc        1 QAR      0.069367
     33 HN7         5.0300    0.0600    1.3640 hn        1 QAR      0.448300
     34 HN7A        5.4930   -1.5780    1.2280 hn        1 QAR      0.448300
     35 HN8        -5.7050   -2.1710   -0.7630 hn        1 QAR      0.322700
     36 H13        -3.6610    0.6610    1.6500 ha        1 QAR      0.184000
@<TRIPOS>BOND
     1    1   20 ar  
     2    1   22 ar  
     3    2   18 ar  
     4    2   20 ar  
     5    3    4 ar  
     6    3    6 ar  
     7    3   17 1   
     8    4    8 ar  
     9    4   15 1   
    10    5   14 1   
    11    5   15 2   
    12    5   17 1   
    13    6    7 ar  
    14    6   24 1   
    15    7   16 ar  
    16    7   25 1   
    17    8   16 ar  
    18    8   26 1   
    19    9   10 2   
    20    9   13 1   
    21    9   36 1   
    22   10   11 1   
    23   10   27 1   
    24   11   12 1   
    25   11   35 1   
    26   12   13 2   
    27   13   14 1   
    28   14   28 1   
    29   16   29 1   
    30   17   18 1   
    31   18   19 ar  
    32   19   22 ar  
    33   20   21 1   
    34   21   30 1   
    35   21   31 1   
    36   21   32 1   
    37   22   23 1   
    38   23   33 1   
    39   23   34 1   
@<TRIPOS>SUBSTRUCTURE
     1 QAR         1 TEMP              0 ****  ****    0 ROOT
