@<TRIPOS>MOLECULE
QAR
   36    26     1     0     0
SMALL
bcc


@<TRIPOS>ATOM
      1 N1         -2.3200    0.3900   -3.1780 n1        1 QAR     -0.277000
      2 N3         -1.3310   -0.8460   -1.4790 n1        1 QAR     -0.255000
      3 C4         -0.9390    0.3040    1.5480 c1        1 QAR     -0.027000
      4 C5          0.0390    0.5140    2.4740 c1        1 QAR     -0.027000
      5 C6          0.9860    0.4070    0.4940 c1        1 QAR      0.195500
      6 C7         -2.2820    0.1870    1.9560 c1        1 QAR     -0.114500
      7 C8         -2.6080    0.2860    3.3000 c1        1 QAR     -0.114500
      8 C10        -0.2930    0.6140    3.8390 c1        1 QAR     -0.114500
      9 C13         4.5430   -0.2230    0.6090 c1        1 QAR     -0.250000
     10 C14         5.1950   -1.3840    0.3100 c1        1 QAR     -0.058000
     11 N8          4.3640   -2.1490   -0.4290 n2        1 QAR     -0.138000
     12 N9          3.1880   -1.4630   -0.5930 n2        1 QAR     -0.138000
     13 C12         3.3010   -0.2800    0.0460 c1        1 QAR     -0.058000
     14 N6          2.3100    0.7330    0.1080 n1        1 QAR     -0.155000
     15 N5          1.2260    0.5770    1.8210 n1        1 QAR     -0.213000
     16 C9         -1.6140    0.4990    4.2400 c1        1 QAR     -0.114500
     17 N4         -0.3530    0.2380    0.3270 n2        1 QAR     -0.137000
     18 C2         -0.9820    0.2890   -0.8550 c1        1 QAR      0.195500
     19 N2         -1.3030    1.4750   -1.3940 n1        1 QAR     -0.213000
     20 C3         -2.0000   -0.7960   -2.6400 c1        1 QAR      0.098000
     21 C11        -2.4260   -2.0760   -3.3240 c3        1 QAR     -0.164000
     22 C1         -1.9710    1.5260   -2.5550 c1        1 QAR      0.200000
     23 N7         -2.3480    2.7790   -3.1020 n3        1 QAR     -0.343000
     24 H7         -2.9820    0.0360    1.2940 ha        1 QAR      0.141750
     25 H8         -3.5390    0.2050    3.5830 ha        1 QAR      0.141750
     26 H10         0.4080    0.7650    4.5020 ha        1 QAR      0.141750
     27 H13         4.9020    0.5180    1.1330 DU        1 QAR      0.208000
     28 H14         6.1020   -1.6200    0.5830 DU        1 QAR      0.208000
     29 HN6         2.5290    1.5980   -0.0840 hn        1 QAR      0.232000
     30 H9         -1.8440    0.5690    5.1860 ha        1 QAR      0.141750
     31 H11        -2.9520   -2.6200   -2.7010 hc        1 QAR      0.105333
     32 H11A       -2.9700   -1.8610   -4.1100 hc        1 QAR      0.105333
     33 H11B       -1.6310   -2.5770   -3.6040 hc        1 QAR      0.105333
     34 HN7        -2.8430    2.8130   -3.8700 hn        1 QAR      0.242000
     35 HN7A       -2.1140    3.5530   -2.6750 hn        1 QAR      0.242000
     36 HN8         4.5520   -2.9770   -0.7610 DU        1 QAR      0.208000
@<TRIPOS>BOND
     1    1   22 1   
     2    2   20 1   
     3    3    4 1   
     4    5   15 1   
     5    5   17 1   
     6    6    7 1   
     7    6   24 1   
     8    7   25 1   
     9    8   16 1   
    10    8   26 1   
    11    9   10 1   
    12    9   13 1   
    13   10   11 1   
    14   11   12 1   
    15   12   13 1   
    16   14   29 1   
    17   16   30 1   
    18   17   18 1   
    19   18   19 1   
    20   20   21 1   
    21   21   31 1   
    22   21   32 1   
    23   21   33 1   
    24   22   23 1   
    25   23   34 1   
    26   23   35 1   
@<TRIPOS>SUBSTRUCTURE
     1 QAR         1 TEMP              0 ****  ****    0 ROOT
