@<TRIPOS>MOLECULE
QAR
   36    39     1     0     0
SMALL
bcc


@<TRIPOS>ATOM
      1 N1          0.0680    0.2250   -0.0650 nb        1 QAR     -0.801000
      2 N3          1.9900   -0.3700    1.2950 nb        1 QAR     -0.817000
      3 C4          1.1930   -0.2790    4.9260 ca        1 QAR     -0.055200
      4 C5          2.2210   -0.1770    5.9420 ca        1 QAR      0.096400
      5 C6          3.2710    0.0040    4.0050 cc        1 QAR      0.649700
      6 C7         -0.1400   -0.4900    5.2760 ca        1 QAR     -0.099000
      7 C8         -0.4460   -0.5750    6.6330 ca        1 QAR     -0.135000
      8 C10         1.8770   -0.2690    7.2940 ca        1 QAR     -0.090000
      9 C13         6.2000    1.0420    4.4500 cc        1 QAR     -0.248300
     10 C14         7.5610    0.7190    4.3990 cd        1 QAR     -0.151300
     11 N8          7.7120   -0.2250    3.3800 na        1 QAR     -0.014600
     12 N9          6.5650   -0.5410    2.7890 nd        1 QAR     -0.544800
     13 C12         5.5920    0.2250    3.4080 cc        1 QAR      0.493200
     14 N6          4.2370    0.2730    3.0120 nu        1 QAR     -0.720900
     15 N5          3.4860   -0.0040    5.3440 nd        1 QAR     -0.595100
     16 C9          0.5390   -0.4640    7.6210 ca        1 QAR     -0.137000
     17 N4          1.8630   -0.1920    3.6790 na        1 QAR     -0.223100
     18 C2          1.2530   -0.0310    2.4170 ca        1 QAR      0.822500
     19 N2         -0.0460    0.4320    2.3890 nb        1 QAR     -0.815000
     20 C3          1.3440   -0.2160    0.0970 ca        1 QAR      0.734300
     21 C11         2.1280   -0.5710   -1.1450 c3        1 QAR     -0.143400
     22 C1         -0.6050    0.5310    1.1190 ca        1 QAR      0.925900
     23 N7         -1.9250    0.9300    1.0310 nv        1 QAR     -0.942500
     24 H7         -0.9350   -0.5900    4.5250 ha        1 QAR      0.153000
     25 H8         -1.4920   -0.7360    6.9330 ha        1 QAR      0.132000
     26 H10         2.6500   -0.1930    8.0720 ha        1 QAR      0.148000
     27 H14         8.4040    1.0770    4.9870 h4        1 QAR      0.177000
     28 HN6         4.0640   -0.1880    2.1340 hn        1 QAR      0.454800
     29 H9          0.2490   -0.5360    8.6800 ha        1 QAR      0.132000
     30 H11         3.0250    0.0920   -1.2170 hc        1 QAR      0.069367
     31 H11A        2.4670   -1.6340   -1.0800 hc        1 QAR      0.069367
     32 H11B        1.5070   -0.4440   -2.0650 hc        1 QAR      0.069367
     33 HN7        -2.3760    1.2860    1.8390 hn        1 QAR      0.448300
     34 HN7A       -2.3020    1.1410    0.1390 hn        1 QAR      0.448300
     35 HN8         8.5540   -0.6560    3.0800 hn        1 QAR      0.322700
     36 H13         5.6890    1.7240    5.1190 ha        1 QAR      0.184000
@<TRIPOS>BOND
     1    1   20 ar  
     2    1   22 ar  
     3    2   18 ar  
     4    2   20 ar  
     5    3    4 ar  
     6    3    6 ar  
     7    3   17 1   
     8    4    8 ar  
     9    4   15 1   
    10    5   14 1   
    11    5   15 2   
    12    5   17 1   
    13    6    7 ar  
    14    6   24 1   
    15    7   16 ar  
    16    7   25 1   
    17    8   16 ar  
    18    8   26 1   
    19    9   10 2   
    20    9   13 1   
    21    9   36 1   
    22   10   11 1   
    23   10   27 1   
    24   11   12 1   
    25   11   35 1   
    26   12   13 2   
    27   13   14 1   
    28   14   28 1   
    29   16   29 1   
    30   17   18 1   
    31   18   19 ar  
    32   19   22 ar  
    33   20   21 1   
    34   21   30 1   
    35   21   31 1   
    36   21   32 1   
    37   22   23 1   
    38   23   33 1   
    39   23   34 1   
@<TRIPOS>SUBSTRUCTURE
     1 QAR         1 TEMP              0 ****  ****    0 ROOT
