@<TRIPOS>MOLECULE
QAR
   36    39     1     0     0
SMALL
bcc


@<TRIPOS>ATOM
      1 N1          0.0740    0.2000   -0.0720 nb        1 QAR     -0.801000
      2 N3          1.9940   -0.3840    1.2970 nb        1 QAR     -0.817000
      3 C4          1.1900   -0.2640    4.9260 ca        1 QAR     -0.055200
      4 C5          2.2160   -0.1560    5.9440 ca        1 QAR      0.096400
      5 C6          3.2700    0.0090    4.0070 cc        1 QAR      0.649700
      6 C7         -0.1450   -0.4690    5.2750 ca        1 QAR     -0.099000
      7 C8         -0.4530   -0.5440    6.6320 ca        1 QAR     -0.135000
      8 C10         1.8700   -0.2380    7.2950 ca        1 QAR     -0.090000
      9 C13         6.2000    1.0440    4.4500 cc        1 QAR     -0.248300
     10 C14         7.5600    0.7180    4.4030 cd        1 QAR     -0.151300
     11 N8          7.7110   -0.2330    3.3910 na        1 QAR     -0.014600
     12 N9          6.5650   -0.5510    2.8000 nd        1 QAR     -0.544800
     13 C12         5.5920    0.2210    3.4120 cc        1 QAR      0.493200
     14 N6          4.2380    0.2690    3.0130 nh        1 QAR     -0.720900
     15 N5          3.4820    0.0090    5.3460 nd        1 QAR     -0.595100
     16 C9          0.5310   -0.4280    7.6210 ca        1 QAR     -0.137000
     17 N4          1.8620   -0.1860    3.6800 na        1 QAR     -0.223100
     18 C2          1.2540   -0.0360    2.4150 ca        1 QAR      0.822500
     19 N2         -0.0440    0.4270    2.3810 nb        1 QAR     -0.815000
     20 C3          1.3510   -0.2400    0.0970 ca        1 QAR      0.734300
     21 C11         2.1370   -0.6050   -1.1410 c3        1 QAR     -0.143400
     22 C1         -0.6010    0.5160    1.1090 ca        1 QAR      0.925900
     23 N7         -1.9210    0.9150    1.0150 nh        1 QAR     -0.942500
     24 H7         -0.9390   -0.5730    4.5230 ha        1 QAR      0.153000
     25 H8         -1.5000   -0.7000    6.9310 ha        1 QAR      0.132000
     26 H10         2.6420   -0.1580    8.0730 ha        1 QAR      0.148000
     27 H14         8.4030    1.0780    4.9910 h4        1 QAR      0.177000
     28 HN6         4.0660   -0.1980    2.1380 hn        1 QAR      0.454800
     29 H9          0.2380   -0.4920    8.6800 ha        1 QAR      0.132000
     30 H11         2.4760   -1.6670   -1.0660 hc        1 QAR      0.069367
     31 H11A        1.5170   -0.4850   -2.0630 hc        1 QAR      0.069367
     32 H11B        3.0340    0.0580   -1.2170 hc        1 QAR      0.069367
     33 HN7        -2.2960    1.1190    0.1200 hn        1 QAR      0.448300
     34 HN7A       -2.3730    1.2770    1.8190 hn        1 QAR      0.448300
     35 HN8         8.5530   -0.6680    3.0950 hn        1 QAR      0.322700
     36 H13         5.6890    1.7310    5.1140 ha        1 QAR      0.184000
@<TRIPOS>BOND
     1    1   20 ar  
     2    1   22 ar  
     3    2   18 ar  
     4    2   20 ar  
     5    3    4 ar  
     6    3    6 ar  
     7    3   17 1   
     8    4    8 ar  
     9    4   15 1   
    10    5   14 1   
    11    5   15 2   
    12    5   17 1   
    13    6    7 ar  
    14    6   24 1   
    15    7   16 ar  
    16    7   25 1   
    17    8   16 ar  
    18    8   26 1   
    19    9   10 2   
    20    9   13 1   
    21    9   36 1   
    22   10   11 1   
    23   10   27 1   
    24   11   12 1   
    25   11   35 1   
    26   12   13 2   
    27   13   14 1   
    28   14   28 1   
    29   16   29 1   
    30   17   18 1   
    31   18   19 ar  
    32   19   22 ar  
    33   20   21 1   
    34   21   30 1   
    35   21   31 1   
    36   21   32 1   
    37   22   23 1   
    38   23   33 1   
    39   23   34 1   
@<TRIPOS>SUBSTRUCTURE
     1 QAR         1 TEMP              0 ****  ****    0 ROOT
