@<TRIPOS>MOLECULE
QB4
   50    53     1     0     0
SMALL
bcc


@<TRIPOS>ATOM
      1 C12        -0.1200    0.0840    0.0910 ca        1 QB4     -0.070000
      2 C13         1.2610    0.1490    0.0730 ca        1 QB4     -0.155000
      3 C6         -4.0510   -0.3560    3.6820 ca        1 QB4     -0.115000
      4 C15         1.2540   -0.0520    2.5040 ca        1 QB4     -0.176000
      5 C4         -5.1840    0.8700    5.3990 ca        1 QB4      0.480200
      6 C19        -7.2470    1.6400    3.1870 cc        1 QB4     -0.024300
      7 C5         -5.1200    0.4780    4.0350 ca        1 QB4     -0.203300
      8 C18        -5.9890    1.0080    3.0260 cd        1 QB4     -0.088300
      9 C11        -0.8320   -0.0430    1.3030 ca        1 QB4     -0.201600
     10 C10        -0.1500   -0.0980    2.5260 ca        1 QB4      0.007700
     11 C1         -2.9860   -0.5150    4.5640 ca        1 QB4     -0.115200
     12 C14         1.9610    0.0670    1.2970 ca        1 QB4      0.199900
     13 C22        -5.6930    1.1750    1.6110 cd        1 QB4      0.198600
     14 C2         -3.1700   -0.1740    5.9520 ca        1 QB4      0.675200
     15 C27        -2.2730   -0.3010    1.1210 c         1 QB4      0.587700
     16 C28        -4.6300    0.5510    0.7790 c3        1 QB4      0.096500
     17 C8         -0.7380   -0.0920    3.9210 c3        1 QB4      0.164400
     18 C9         -1.0650    1.3440    4.2930 c3        1 QB4     -0.123100
     19 N24        -8.7450    1.8240    5.2710 n1        1 QB4     -0.281800
     20 N3         -4.3020    0.5180    6.3350 nb        1 QB4     -0.699000
     21 N21        -6.7020    1.8900    1.0060 nc        1 QB4     -0.446800
     22 N20        -7.6160    2.1530    1.9230 na        1 QB4      0.158400
     23 N26        -3.2200    0.9090    1.1830 nx        1 QB4     -0.599200
     24 N17        -2.1920   -0.4740    6.8780 nv        1 QB4     -0.932500
     25 O30        -2.7760   -1.3810    0.8570 o         1 QB4     -0.396100
     26 O7         -1.8060   -1.0520    4.0700 os        1 QB4     -0.322900
     27 F16         3.3080    0.1060    1.3060 f         1 QB4     -0.098900
     28 H1         -0.6710    0.1110   -0.8640 ha        1 QB4      0.150000
     29 H2          1.8170    0.2470   -0.8730 ha        1 QB4      0.182000
     30 H3         -4.0520   -0.9270    2.7430 ha        1 QB4      0.150000
     31 H4          1.8250   -0.1140    3.4460 ha        1 QB4      0.176000
     32 H5         -6.0190    1.4990    5.7680 h4        1 QB4      0.046100
     33 H6         -4.7510    0.8360   -0.3090 hx        1 QB4      0.125700
     34 H7         -4.7630   -0.5720    0.8470 hx        1 QB4      0.125700
     35 H8          0.0490   -0.4870    4.6370 h1        1 QB4      0.092700
     36 H9         -0.2010    2.0020    4.0260 hc        1 QB4      0.058367
     37 H10        -1.9720    1.7070    3.7550 hc        1 QB4      0.058367
     38 H11        -1.2420    1.4420    5.3910 hc        1 QB4      0.058367
     39 H12        -9.2120    2.6850    0.6310 h1        1 QB4      0.086700
     40 H13        -8.6240    3.9990    1.7680 h1        1 QB4      0.086700
     41 H14        -9.6060    2.5890    2.4220 h1        1 QB4      0.086700
     42 H15        -3.4090    2.8990    0.4410 hx        1 QB4      0.103033
     43 H16        -1.6870    2.3290    0.7410 hx        1 QB4      0.103033
     44 H17        -2.6210    1.7080   -0.7090 hx        1 QB4      0.103033
     45 H18        -2.4010   -0.3580    7.8440 hn        1 QB4      0.443800
     46 H19        -1.5770   -1.2160    6.6340 hn        1 QB4      0.443800
     47 C25        -8.8360    2.9000    1.6680 c3        1 QB4      0.020600
     48 C29        -2.7010    2.0290    0.3640 c3        1 QB4      0.091100
     49 H261       -3.2370    1.2120    2.1710 hn        1 QB4      0.468800
     50 C23        -8.0640    1.7480    4.3300 cg        1 QB4      0.224800
@<TRIPOS>BOND
     1    1    2 ar  
     2    1    9 ar  
     3    1   28 1   
     4    2   12 ar  
     5    2   29 1   
     6    3    7 ar  
     7    3   11 ar  
     8    3   30 1   
     9    4   10 ar  
    10    4   12 ar  
    11    4   31 1   
    12    5    7 ar  
    13    5   20 ar  
    14    5   32 1   
    15    6    8 2   
    16    6   22 1   
    17    6   50 1   
    18    7    8 1   
    19    8   13 1   
    20    9   10 ar  
    21    9   15 1   
    22   10   17 1   
    23   11   14 ar  
    24   11   26 1   
    25   12   27 1   
    26   13   16 1   
    27   13   21 2   
    28   14   20 ar  
    29   14   24 1   
    30   15   23 1   
    31   15   25 2   
    32   16   23 1   
    33   16   33 1   
    34   16   34 1   
    35   17   18 1   
    36   17   26 1   
    37   17   35 1   
    38   18   36 1   
    39   18   37 1   
    40   18   38 1   
    41   19   50 3   
    42   21   22 1   
    43   22   47 1   
    44   23   48 1   
    45   23   49 1   
    46   24   45 1   
    47   24   46 1   
    48   39   47 1   
    49   40   47 1   
    50   41   47 1   
    51   42   48 1   
    52   43   48 1   
    53   44   48 1   
@<TRIPOS>SUBSTRUCTURE
     1 QB4         1 TEMP              0 ****  ****    0 ROOT
