@<TRIPOS>MOLECULE
QBB
   35    37     1     0     0
SMALL
bcc


@<TRIPOS>ATOM
      1 F1         -0.0500    0.2100   -0.3110 f         1 QBB     -0.133900
      2 C2          1.2920    0.0780   -0.2030 ca        1 QBB      0.148900
      3 C3          1.9210    0.3050    1.0360 ca        1 QBB     -0.174000
      4 C4          3.3010    0.1670    1.1370 ca        1 QBB     -0.066500
      5 C5          4.0610   -0.1830    0.0140 ca        1 QBB     -0.164600
      6 C6          3.4320   -0.4180   -1.2120 ca        1 QBB     -0.066500
      7 C7          2.0520   -0.2900   -1.3290 ca        1 QBB     -0.174000
      8 C8          5.5380   -0.3330    0.1870 c         1 QBB      0.681700
      9 O9          6.0090   -0.8790    1.2010 o         1 QBB     -0.581100
     10 N10         6.3200    0.1810   -0.8370 n         1 QBB     -0.467100
     11 C11         7.7240    0.2000   -0.9110 ca        1 QBB      0.066600
     12 C12         8.5530   -0.5140   -0.0200 ca        1 QBB     -0.151000
     13 C13         9.9350   -0.4590   -0.1630 ca        1 QBB     -0.104000
     14 C14        10.5330    0.2900   -1.1800 ca        1 QBB     -0.091300
     15 C15        12.0120    0.3550   -1.2960 c3        1 QBB     -0.031100
     16 C16        12.4570    0.7850   -2.6930 c3        1 QBB      0.165800
     17 N17        11.7410    1.9460   -3.1780 n3        1 QBB     -0.818200
     18 C20        10.2980    1.8040   -3.1970 c3        1 QBB      0.207100
     19 C21         9.7170    0.9980   -2.0720 ca        1 QBB     -0.051300
     20 C22         8.3290    0.9570   -1.9410 ca        1 QBB     -0.183000
     21 H3          1.3170    0.5830    1.9130 ha        1 QBB      0.155500
     22 H4          3.8060    0.3210    2.1050 ha        1 QBB      0.152500
     23 H6          4.0170   -0.7250   -2.0940 ha        1 QBB      0.152500
     24 H7          1.5480   -0.4770   -2.2880 ha        1 QBB      0.155500
     25 HN10        5.8470    0.6710   -1.5640 hn        1 QBB      0.317500
     26 H12         8.1190   -1.1150    0.7960 ha        1 QBB      0.172000
     27 H13        10.5690   -1.0190    0.5420 ha        1 QBB      0.135000
     28 H15        12.4670   -0.6450   -1.0690 hc        1 QBB      0.057200
     29 H15A       12.4020    1.0860   -0.5350 hc        1 QBB      0.057200
     30 H16        12.3500   -0.1020   -3.3860 h1        1 QBB      0.030200
     31 H16A       13.5500    1.0570   -2.6590 h1        1 QBB      0.030200
     32 HN17       12.0660    2.1900   -4.0950 hn        1 QBB      0.364800
     33 H20         9.9320    1.3400   -4.1630 h1        1 QBB      0.039700
     34 H20A        9.8750    2.8500   -3.1480 h1        1 QBB      0.039700
     35 H22         7.7130    1.5270   -2.6530 ha        1 QBB      0.128000
@<TRIPOS>BOND
     1    1    2 1   
     2    2    3 ar  
     3    2    7 ar  
     4    3    4 ar  
     5    3   21 1   
     6    4    5 ar  
     7    4   22 1   
     8    5    6 ar  
     9    5    8 1   
    10    6    7 ar  
    11    6   23 1   
    12    7   24 1   
    13    8    9 2   
    14    8   10 1   
    15   10   11 1   
    16   10   25 1   
    17   11   12 ar  
    18   11   20 ar  
    19   12   13 ar  
    20   12   26 1   
    21   13   14 ar  
    22   13   27 1   
    23   14   15 1   
    24   14   19 ar  
    25   15   16 1   
    26   15   28 1   
    27   15   29 1   
    28   16   17 1   
    29   16   30 1   
    30   16   31 1   
    31   17   18 1   
    32   17   32 1   
    33   18   19 1   
    34   18   33 1   
    35   18   34 1   
    36   19   20 ar  
    37   20   35 1   
@<TRIPOS>SUBSTRUCTURE
     1 QBB         1 TEMP              0 ****  ****    0 ROOT
