@<TRIPOS>MOLECULE
QBB
   35    37     1     0     0
SMALL
bcc


@<TRIPOS>ATOM
      1 F1         -0.0510    0.1980   -0.3200 f         1 QBB     -0.133900
      2 C2          1.2910    0.0680   -0.2100 ca        1 QBB      0.148900
      3 C3          1.9180    0.2980    1.0300 ca        1 QBB     -0.174000
      4 C4          3.2980    0.1630    1.1330 ca        1 QBB     -0.066500
      5 C5          4.0600   -0.1870    0.0110 ca        1 QBB     -0.164600
      6 C6          3.4340   -0.4240   -1.2160 ca        1 QBB     -0.066500
      7 C7          2.0530   -0.3000   -1.3350 ca        1 QBB     -0.174000
      8 C8          5.5370   -0.3340    0.1870 c         1 QBB      0.681700
      9 O9          6.0080   -0.8770    1.2020 o         1 QBB     -0.581100
     10 N10         6.3200    0.1810   -0.8370 ns        1 QBB     -0.467100
     11 C11         7.7240    0.2020   -0.9090 ca        1 QBB      0.066600
     12 C12         8.5540   -0.5070   -0.0150 ca        1 QBB     -0.151000
     13 C13         9.9350   -0.4500   -0.1560 ca        1 QBB     -0.104000
     14 C14        10.5330    0.2970   -1.1750 ca        1 QBB     -0.091300
     15 C15        12.0120    0.3650   -1.2890 c3        1 QBB     -0.031100
     16 C16        12.4580    0.7900   -2.6880 c3        1 QBB      0.165800
     17 N17        11.7400    1.9470   -3.1790 n7        1 QBB     -0.818200
     18 C20        10.2970    1.8020   -3.1980 c3        1 QBB      0.207100
     19 C21         9.7160    0.9990   -2.0710 ca        1 QBB     -0.051300
     20 C22         8.3290    0.9560   -1.9410 ca        1 QBB     -0.183000
     21 H3          1.3120    0.5760    1.9050 ha        1 QBB      0.155500
     22 H4          3.8010    0.3200    2.1010 ha        1 QBB      0.152500
     23 H6          4.0210   -0.7320   -2.0960 ha        1 QBB      0.152500
     24 H7          1.5510   -0.4890   -2.2940 ha        1 QBB      0.155500
     25 HN10        5.8470    0.6680   -1.5660 hn        1 QBB      0.317500
     26 H12         8.1200   -1.1050    0.8030 ha        1 QBB      0.172000
     27 H13        10.5700   -1.0050    0.5520 ha        1 QBB      0.135000
     28 H15        12.4690   -0.6330   -1.0580 hc        1 QBB      0.057200
     29 H15A       12.3990    1.0990   -0.5310 hc        1 QBB      0.057200
     30 H16        12.3530   -0.1000   -3.3780 h1        1 QBB      0.030200
     31 H16A       13.5500    1.0640   -2.6530 h1        1 QBB      0.030200
     32 HN17       12.0650    2.1890   -4.0960 hn        1 QBB      0.364800
     33 H20         9.8720    2.8480   -3.1540 h1        1 QBB      0.039700
     34 H20A        9.9340    1.3330   -4.1630 h1        1 QBB      0.039700
     35 H22         7.7120    1.5220   -2.6570 ha        1 QBB      0.128000
@<TRIPOS>BOND
     1    1    2 1   
     2    2    3 ar  
     3    2    7 ar  
     4    3    4 ar  
     5    3   21 1   
     6    4    5 ar  
     7    4   22 1   
     8    5    6 ar  
     9    5    8 1   
    10    6    7 ar  
    11    6   23 1   
    12    7   24 1   
    13    8    9 2   
    14    8   10 1   
    15   10   11 1   
    16   10   25 1   
    17   11   12 ar  
    18   11   20 ar  
    19   12   13 ar  
    20   12   26 1   
    21   13   14 ar  
    22   13   27 1   
    23   14   15 1   
    24   14   19 ar  
    25   15   16 1   
    26   15   28 1   
    27   15   29 1   
    28   16   17 1   
    29   16   30 1   
    30   16   31 1   
    31   17   18 1   
    32   17   32 1   
    33   18   19 1   
    34   18   33 1   
    35   18   34 1   
    36   19   20 ar  
    37   20   35 1   
@<TRIPOS>SUBSTRUCTURE
     1 QBB         1 TEMP              0 ****  ****    0 ROOT
