@<TRIPOS>MOLECULE
QBB
   35    37     1     0     0
SMALL
bcc


@<TRIPOS>ATOM
      1 F1         -0.0510    0.1600   -0.3290 f         1 QBB     -0.133900
      2 C2          1.2920    0.0420   -0.2140 ca        1 QBB      0.148900
      3 C3          1.9150    0.2960    1.0230 ca        1 QBB     -0.174000
      4 C4          3.2960    0.1720    1.1300 ca        1 QBB     -0.066500
      5 C5          4.0620   -0.1910    0.0160 ca        1 QBB     -0.164600
      6 C6          3.4400   -0.4530   -1.2080 ca        1 QBB     -0.066500
      7 C7          2.0590   -0.3400   -1.3310 ca        1 QBB     -0.174000
      8 C8          5.5400   -0.3240    0.1960 c         1 QBB      0.681700
      9 O9          6.0130   -0.8480    1.2220 o         1 QBB     -0.581100
     10 N10         6.3210    0.1790   -0.8350 n         1 QBB     -0.467100
     11 C11         7.7240    0.2080   -0.9050 ca        1 QBB      0.067600
     12 C12         8.5580   -0.4780    0.0030 ca        1 QBB     -0.151000
     13 C13         9.9400   -0.4140   -0.1380 ca        1 QBB     -0.104000
     14 C14        10.5330    0.3180   -1.1690 ca        1 QBB     -0.091300
     15 C15        12.0120    0.3940   -1.2830 c3        1 QBB     -0.031100
     16 C16        12.4570    0.7960   -2.6880 c3        1 QBB      0.165800
     17 N17        11.7320    1.9400   -3.2010 n3        1 QBB     -0.818200
     18 C20        10.2900    1.7840   -3.2200 c3        1 QBB      0.207100
     19 C21         9.7130    0.9980   -2.0790 ca        1 QBB     -0.051300
     20 C22         8.3260    0.9480   -1.9500 ca        1 QBB     -0.183000
     21 H3          1.3060    0.5840    1.8920 ha        1 QBB      0.155500
     22 H4          3.7960    0.3480    2.0970 ha        1 QBB      0.152500
     23 H6          4.0300   -0.7700   -2.0820 ha        1 QBB      0.152500
     24 H7          1.5600   -0.5480   -2.2890 ha        1 QBB      0.155500
     25 HN10        5.8450    0.6510   -1.5720 hn        1 QBB      0.317500
     26 H12         8.1270   -1.0650    0.8310 ha        1 QBB      0.172000
     27 H13        10.5770   -0.9530    0.5810 ha        1 QBB      0.135000
     28 H15        12.4750   -0.5970   -1.0330 hc        1 QBB      0.057200
     29 H15A       12.3930    1.1440   -0.5380 hc        1 QBB      0.057200
     30 H16        13.5480    1.0790   -2.6570 h1        1 QBB      0.030200
     31 H16A       12.3600   -0.1060   -3.3620 h1        1 QBB      0.030200
     32 HN17       12.0570    2.1670   -4.1220 hn        1 QBB      0.364800
     33 H20         9.9310    1.2950   -4.1770 h1        1 QBB      0.039700
     34 H20A        9.8580    2.8280   -3.1960 h1        1 QBB      0.039700
     35 H22         7.7070    1.4960   -2.6770 ha        1 QBB      0.128000
@<TRIPOS>BOND
     1    1    2 1   
     2    2    3 ar  
     3    2    7 ar  
     4    3    4 ar  
     5    3   21 1   
     6    4    5 ar  
     7    4   22 1   
     8    5    6 ar  
     9    5    8 1   
    10    6    7 ar  
    11    6   23 1   
    12    7   24 1   
    13    8    9 2   
    14    8   10 1   
    15   10   11 1   
    16   10   25 1   
    17   11   12 ar  
    18   11   20 ar  
    19   12   13 ar  
    20   12   26 1   
    21   13   14 ar  
    22   13   27 1   
    23   14   15 1   
    24   14   19 ar  
    25   15   16 1   
    26   15   28 1   
    27   15   29 1   
    28   16   17 1   
    29   16   30 1   
    30   16   31 1   
    31   17   18 1   
    32   17   32 1   
    33   18   19 1   
    34   18   33 1   
    35   18   34 1   
    36   19   20 ar  
    37   20   35 1   
@<TRIPOS>SUBSTRUCTURE
     1 QBB         1 TEMP              0 ****  ****    0 ROOT
