@<TRIPOS>MOLECULE
QBH
   79    82     1     0     0
SMALL
bcc


@<TRIPOS>ATOM
      1 S1          0.0650    0.2870    0.1980 s6        1 QBH      1.345000
      2 C2          1.8020    0.0550    0.1760 c3        1 QBH     -0.328600
      3 C5          2.4000    0.1260    1.5630 c3        1 QBH      0.159500
      4 C7          1.8860   -1.0770    2.4110 c3        1 QBH      0.122100
      5 C9          0.3610   -0.9710    2.5770 c3        1 QBH     -0.052700
      6 C11        -0.3100   -1.0070    1.2180 c3        1 QBH     -0.355600
      7 C14        -0.1530   -2.1020    3.4670 c3        1 QBH     -0.020100
      8 C17        -1.6270   -2.0440    3.6670 ca        1 QBH     -0.154300
      9 C18        -2.4680   -2.8780    2.9210 ca        1 QBH     -0.085000
     10 C20        -3.8510   -2.8720    3.1110 ca        1 QBH     -0.099300
     11 C21        -4.3880   -2.0010    4.0830 ca        1 QBH      0.144100
     12 C22        -3.5540   -1.1580    4.8330 ca        1 QBH     -0.206000
     13 C24        -2.1790   -1.1850    4.6230 ca        1 QBH     -0.080000
     14 O26        -5.7500   -2.0230    4.2530 oh        1 QBH     -0.490100
     15 C28        -4.7290   -3.7400    2.2840 c3        1 QBH     -0.027100
     16 C31        -4.8690   -5.1630    2.8400 c3        1 QBH      0.041700
     17 N33        -3.5970   -5.8980    2.8880 n         1 QBH     -0.436800
     18 C34        -3.7270   -7.0550    2.0710 c         1 QBH      0.792600
     19 O35        -4.9630   -7.1060    1.4400 os        1 QBH     -0.395900
     20 C36        -5.7740   -6.0000    1.8880 c3        1 QBH      0.106400
     21 O39        -2.9170   -7.9370    1.7960 o         1 QBH     -0.577500
     22 C40        -2.9180   -6.0400    4.1540 c3        1 QBH      0.074000
     23 C43        -3.6270   -6.8560    5.2360 c3        1 QBH     -0.116400
     24 C46        -2.7680   -6.9390    6.4710 c3        1 QBH     -0.091100
     25 O50         2.5740   -0.9730    3.6480 oh        1 QBH     -0.626800
     26 N52         3.9030    0.1640    1.5390 n4        1 QBH     -0.761000
     27 C54         4.4470    1.5340    1.2500 c3        1 QBH      0.177100
     28 C57         5.9350    1.5040    1.2000 ca        1 QBH     -0.190300
     29 C58         6.5890    1.3800   -0.0310 ca        1 QBH     -0.103000
     30 C60         7.9870    1.3900   -0.0910 ca        1 QBH     -0.054300
     31 C61         8.7190    1.5220    1.0970 ca        1 QBH     -0.078000
     32 C63         8.0660    1.6460    2.3230 ca        1 QBH     -0.117000
     33 C65         6.6740    1.6380    2.3800 ca        1 QBH     -0.108000
     34 C67         8.6820    1.2670   -1.4120 c3        1 QBH     -0.031400
     35 C69         9.5040    2.5090   -1.7060 c3        1 QBH     -0.093100
     36 C73         9.5570    0.0280   -1.4520 c3        1 QBH     -0.093100
     37 O77        -0.4010    0.0590   -1.0880 o         1 QBH     -0.616800
     38 O78        -0.1610    1.5100    0.8240 o         1 QBH     -0.616800
     39 H2          2.0480   -0.9230   -0.3160 h1        1 QBH      0.125200
     40 H2A         2.2410    0.8490   -0.4870 h1        1 QBH      0.125200
     41 H5          2.0630    1.0830    2.0770 hx        1 QBH      0.135700
     42 H7          2.1530   -2.0500    1.9110 h1        1 QBH      0.062700
     43 H9          0.1200    0.0090    3.0830 hc        1 QBH      0.095700
     44 H11        -1.4270   -1.0400    1.4070 h1        1 QBH      0.148700
     45 H11A       -0.0980   -2.0000    0.7320 h1        1 QBH      0.148700
     46 H14         0.3430   -2.0310    4.4730 hc        1 QBH      0.055200
     47 H14A        0.1330   -3.0870    3.0110 hc        1 QBH      0.055200
     48 H18        -2.0380   -3.5680    2.1760 ha        1 QBH      0.148000
     49 H22        -3.9860   -0.4830    5.5860 ha        1 QBH      0.148000
     50 H24        -1.5260   -0.5270    5.2160 ha        1 QBH      0.135000
     51 HO26       -5.9850   -1.3610    4.9220 ho        1 QBH      0.432000
     52 H28        -5.7630   -3.3000    2.2410 hc        1 QBH      0.070700
     53 H28A       -4.3280   -3.7830    1.2350 hc        1 QBH      0.070700
     54 H31        -5.3330   -5.0990    3.8650 h1        1 QBH      0.075700
     55 H36        -6.6590   -6.4310    2.4170 h1        1 QBH      0.076200
     56 H36A       -6.0870   -5.4350    0.9770 h1        1 QBH      0.076200
     57 H40        -2.7330   -4.9960    4.5390 h1        1 QBH      0.065200
     58 H40A       -1.9230   -6.5250    3.9330 h1        1 QBH      0.065200
     59 H43        -3.8370   -7.8900    4.8520 hc        1 QBH      0.052200
     60 H43A       -4.6120   -6.3870    5.4940 hc        1 QBH      0.052200
     61 H46        -2.5570   -5.9190    6.8760 hc        1 QBH      0.039367
     62 H46A       -3.2900   -7.5310    7.2610 hc        1 QBH      0.039367
     63 H46B       -1.7940   -7.4370    6.2440 hc        1 QBH      0.039367
     64 HO50        2.2660   -1.6860    4.2240 ho        1 QBH      0.452000
     65 HN52        4.2510   -0.4920    0.8330 hn        1 QBH      0.457800
     66 H54         4.0150    1.8810    0.2680 hx        1 QBH      0.107200
     67 H54A        4.0870    2.2240    2.0680 hx        1 QBH      0.107200
     68 H58         6.0050    1.2920   -0.9610 ha        1 QBH      0.137000
     69 H61         9.8210    1.5340    1.0580 ha        1 QBH      0.160000
     70 H63         8.6530    1.7580    3.2490 ha        1 QBH      0.158000
     71 H65         6.1630    1.7550    3.3480 ha        1 QBH      0.138000
     72 H67         7.9020    1.1690   -2.2220 hc        1 QBH      0.055700
     73 H69         9.9820    2.4150   -2.7110 hc        1 QBH      0.045867
     74 H69A        8.8570    3.4180   -1.7030 hc        1 QBH      0.045867
     75 H69B       10.3080    2.6410   -0.9430 hc        1 QBH      0.045867
     76 H73        10.3620    0.0850   -0.6810 hc        1 QBH      0.045867
     77 H73A        8.9480   -0.8890   -1.2650 hc        1 QBH      0.045867
     78 H73B       10.0370   -0.0620   -2.4570 hc        1 QBH      0.045867
     79 H522        4.2500   -0.1410    2.4610 hn        1 QBH      0.457800
@<TRIPOS>BOND
     1    1    2 1   
     2    1    6 1   
     3    1   37 2   
     4    1   38 2   
     5    2    3 1   
     6    2   39 1   
     7    2   40 1   
     8    3    4 1   
     9    3   26 1   
    10    3   41 1   
    11    4    5 1   
    12    4   25 1   
    13    4   42 1   
    14    5    6 1   
    15    5    7 1   
    16    5   43 1   
    17    6   44 1   
    18    6   45 1   
    19    7    8 1   
    20    7   46 1   
    21    7   47 1   
    22    8    9 ar  
    23    8   13 ar  
    24    9   10 ar  
    25    9   48 1   
    26   10   11 ar  
    27   10   15 1   
    28   11   12 ar  
    29   11   14 1   
    30   12   13 ar  
    31   12   49 1   
    32   13   50 1   
    33   14   51 1   
    34   15   16 1   
    35   15   52 1   
    36   15   53 1   
    37   16   17 1   
    38   16   20 1   
    39   16   54 1   
    40   17   18 1   
    41   17   22 1   
    42   18   19 1   
    43   18   21 2   
    44   19   20 1   
    45   20   55 1   
    46   20   56 1   
    47   22   23 1   
    48   22   57 1   
    49   22   58 1   
    50   23   24 1   
    51   23   59 1   
    52   23   60 1   
    53   24   61 1   
    54   24   62 1   
    55   24   63 1   
    56   25   64 1   
    57   26   27 1   
    58   26   65 1   
    59   26   79 1   
    60   27   28 1   
    61   27   66 1   
    62   27   67 1   
    63   28   29 ar  
    64   28   33 ar  
    65   29   30 ar  
    66   29   68 1   
    67   30   31 ar  
    68   30   34 1   
    69   31   32 ar  
    70   31   69 1   
    71   32   33 ar  
    72   32   70 1   
    73   33   71 1   
    74   34   35 1   
    75   34   36 1   
    76   34   72 1   
    77   35   73 1   
    78   35   74 1   
    79   35   75 1   
    80   36   76 1   
    81   36   77 1   
    82   36   78 1   
@<TRIPOS>SUBSTRUCTURE
     1 QBH         1 TEMP              0 ****  ****    0 ROOT
