@<TRIPOS>MOLECULE
QBH
   79    82     1     0     0
SMALL
bcc


@<TRIPOS>ATOM
      1 S1          0.0610    0.2830    0.1940 s6        1 QBH      1.345000
      2 C2          1.7980    0.0530    0.1710 c3        1 QBH     -0.328600
      3 C5          2.3970    0.1270    1.5580 c3        1 QBH      0.159500
      4 C7          1.8850   -1.0750    2.4080 c3        1 QBH      0.122100
      5 C9          0.3600   -0.9700    2.5740 c3        1 QBH     -0.052700
      6 C11        -0.3120   -1.0100    1.2160 c3        1 QBH     -0.355600
      7 C14        -0.1520   -2.1000    3.4660 c3        1 QBH     -0.020100
      8 C17        -1.6250   -2.0440    3.6670 ca        1 QBH     -0.154300
      9 C18        -2.4660   -2.8810    2.9250 ca        1 QBH     -0.085000
     10 C20        -3.8490   -2.8770    3.1150 ca        1 QBH     -0.099300
     11 C21        -4.3870   -2.0030    4.0850 ca        1 QBH      0.144100
     12 C22        -3.5530   -1.1570    4.8320 ca        1 QBH     -0.206000
     13 C24        -2.1790   -1.1820    4.6210 ca        1 QBH     -0.080000
     14 O26        -5.7490   -2.0260    4.2560 oh        1 QBH     -0.490100
     15 C28        -4.7260   -3.7480    2.2920 c3        1 QBH     -0.027100
     16 C31        -4.8640   -5.1690    2.8530 c3        1 QBH      0.041700
     17 N33        -3.5920   -5.9030    2.9010 n         1 QBH     -0.436800
     18 C34        -3.7210   -7.0630    2.0890 c         1 QBH      0.792600
     19 O35        -4.9580   -7.1170    1.4590 os        1 QBH     -0.395900
     20 C36        -5.7700   -6.0110    1.9050 c3        1 QBH      0.106400
     21 O39        -2.9100   -7.9450    1.8150 o         1 QBH     -0.577500
     22 C40        -2.9110   -6.0400    4.1680 c3        1 QBH      0.074000
     23 C43        -3.6160   -6.8540    5.2520 c3        1 QBH     -0.116400
     24 C46        -2.7560   -6.9300    6.4870 c3        1 QBH     -0.091100
     25 O50         2.5730   -0.9680    3.6440 oh        1 QBH     -0.626800
     26 N52         3.9000    0.1680    1.5320 ny        1 QBH     -0.761000
     27 C54         4.4420    1.5380    1.2410 c3        1 QBH      0.177100
     28 C57         5.9300    1.5100    1.1900 ca        1 QBH     -0.190300
     29 C58         6.5830    1.3800   -0.0410 ca        1 QBH     -0.103000
     30 C60         7.9810    1.3910   -0.1020 ca        1 QBH     -0.054300
     31 C61         8.7140    1.5310    1.0850 ca        1 QBH     -0.078000
     32 C63         8.0620    1.6610    2.3110 ca        1 QBH     -0.117000
     33 C65         6.6700    1.6510    2.3690 ca        1 QBH     -0.108000
     34 C67         8.6760    1.2630   -1.4230 c3        1 QBH     -0.031400
     35 C69         9.4960    2.5040   -1.7230 c3        1 QBH     -0.093100
     36 C73         9.5510    0.0250   -1.4580 c3        1 QBH     -0.093100
     37 O77        -0.4050    0.0530   -1.0920 o         1 QBH     -0.616800
     38 O78        -0.1670    1.5070    0.8180 o         1 QBH     -0.616800
     39 H2          2.2360    0.8470   -0.4940 h1        1 QBH      0.125200
     40 H2A         2.0450   -0.9250   -0.3200 h1        1 QBH      0.125200
     41 H5          2.0590    1.0850    2.0700 hx        1 QBH      0.135700
     42 H7          2.1530   -2.0480    1.9080 h1        1 QBH      0.062700
     43 H9          0.1180    0.0100    3.0790 hc        1 QBH      0.095700
     44 H11        -0.0980   -2.0030    0.7320 h1        1 QBH      0.148700
     45 H11A       -1.4290   -1.0440    1.4050 h1        1 QBH      0.148700
     46 H14         0.3450   -2.0270    4.4720 hc        1 QBH      0.055200
     47 H14A        0.1350   -3.0860    3.0120 hc        1 QBH      0.055200
     48 H18        -2.0360   -3.5730    2.1820 ha        1 QBH      0.148000
     49 H22        -3.9860   -0.4790    5.5840 ha        1 QBH      0.148000
     50 H24        -1.5260   -0.5220    5.2120 ha        1 QBH      0.135000
     51 HO26       -5.9840   -1.3620    4.9230 ho        1 QBH      0.432000
     52 H28        -4.3260   -3.7940    1.2430 hc        1 QBH      0.070700
     53 H28A       -5.7610   -3.3090    2.2490 hc        1 QBH      0.070700
     54 H31        -5.3270   -5.1030    3.8780 h1        1 QBH      0.075700
     55 H36        -6.6540   -6.4410    2.4360 h1        1 QBH      0.076200
     56 H36A       -6.0840   -5.4490    0.9920 h1        1 QBH      0.076200
     57 H40        -1.9150   -6.5240    3.9460 h1        1 QBH      0.065200
     58 H40A       -2.7260   -4.9940    4.5480 h1        1 QBH      0.065200
     59 H43        -3.8260   -7.8890    4.8730 hc        1 QBH      0.052200
     60 H43A       -4.6020   -6.3850    5.5100 hc        1 QBH      0.052200
     61 H46        -2.5460   -5.9100    6.8880 hc        1 QBH      0.039367
     62 H46A       -1.7820   -7.4280    6.2600 hc        1 QBH      0.039367
     63 H46B       -3.2760   -7.5210    7.2790 hc        1 QBH      0.039367
     64 HO50        2.2680   -1.6810    4.2210 ho        1 QBH      0.452000
     65 HN52        4.2490   -0.4890    0.8280 hn        1 QBH      0.457800
     66 H54         4.0810    2.2290    2.0580 hx        1 QBH      0.107200
     67 H54A        4.0090    1.8820    0.2580 hx        1 QBH      0.107200
     68 H58         5.9990    1.2870   -0.9700 ha        1 QBH      0.137000
     69 H61         9.8160    1.5450    1.0450 ha        1 QBH      0.160000
     70 H63         8.6490    1.7780    3.2360 ha        1 QBH      0.158000
     71 H65         6.1590    1.7720    3.3370 ha        1 QBH      0.139000
     72 H67         7.8950    1.1600   -2.2320 hc        1 QBH      0.055700
     73 H69        10.3010    2.6410   -0.9620 hc        1 QBH      0.045867
     74 H69A        8.8480    3.4130   -1.7240 hc        1 QBH      0.045867
     75 H69B        9.9740    2.4060   -2.7280 hc        1 QBH      0.045867
     76 H73        10.0310   -0.0700   -2.4620 hc        1 QBH      0.045867
     77 H73A        8.9440   -0.8920   -1.2660 hc        1 QBH      0.045867
     78 H73B       10.3570    0.0860   -0.6870 hc        1 QBH      0.045867
     79 H522        4.2480   -0.1350    2.4550 hn        1 QBH      0.457800
@<TRIPOS>BOND
     1    1    2 1   
     2    1    6 1   
     3    1   37 2   
     4    1   38 2   
     5    2    3 1   
     6    2   39 1   
     7    2   40 1   
     8    3    4 1   
     9    3   26 1   
    10    3   41 1   
    11    4    5 1   
    12    4   25 1   
    13    4   42 1   
    14    5    6 1   
    15    5    7 1   
    16    5   43 1   
    17    6   44 1   
    18    6   45 1   
    19    7    8 1   
    20    7   46 1   
    21    7   47 1   
    22    8    9 ar  
    23    8   13 ar  
    24    9   10 ar  
    25    9   48 1   
    26   10   11 ar  
    27   10   15 1   
    28   11   12 ar  
    29   11   14 1   
    30   12   13 ar  
    31   12   49 1   
    32   13   50 1   
    33   14   51 1   
    34   15   16 1   
    35   15   52 1   
    36   15   53 1   
    37   16   17 1   
    38   16   20 1   
    39   16   54 1   
    40   17   18 1   
    41   17   22 1   
    42   18   19 1   
    43   18   21 2   
    44   19   20 1   
    45   20   55 1   
    46   20   56 1   
    47   22   23 1   
    48   22   57 1   
    49   22   58 1   
    50   23   24 1   
    51   23   59 1   
    52   23   60 1   
    53   24   61 1   
    54   24   62 1   
    55   24   63 1   
    56   25   64 1   
    57   26   27 1   
    58   26   65 1   
    59   26   79 1   
    60   27   28 1   
    61   27   66 1   
    62   27   67 1   
    63   28   29 ar  
    64   28   33 ar  
    65   29   30 ar  
    66   29   68 1   
    67   30   31 ar  
    68   30   34 1   
    69   31   32 ar  
    70   31   69 1   
    71   32   33 ar  
    72   32   70 1   
    73   33   71 1   
    74   34   35 1   
    75   34   36 1   
    76   34   72 1   
    77   35   73 1   
    78   35   74 1   
    79   35   75 1   
    80   36   76 1   
    81   36   77 1   
    82   36   78 1   
@<TRIPOS>SUBSTRUCTURE
     1 QBH         1 TEMP              0 ****  ****    0 ROOT
