@<TRIPOS>MOLECULE
QBH
   79    82     1     0     0
SMALL
bcc


@<TRIPOS>ATOM
      1 S1          0.0630    0.2830    0.1900 s6        1 QBH      1.345000
      2 C2          1.8010    0.0540    0.1710 c3        1 QBH     -0.328600
      3 C5          2.3960    0.1310    1.5600 c3        1 QBH      0.159500
      4 C7          1.8840   -1.0700    2.4100 c3        1 QBH      0.122100
      5 C9          0.3580   -0.9670    2.5730 c3        1 QBH     -0.052700
      6 C11        -0.3100   -1.0100    1.2120 c3        1 QBH     -0.355600
      7 C14        -0.1550   -2.0960    3.4650 c3        1 QBH     -0.020100
      8 C17        -1.6290   -2.0420    3.6620 ca        1 QBH     -0.154300
      9 C18        -2.4660   -2.8810    2.9170 ca        1 QBH     -0.085000
     10 C20        -3.8490   -2.8780    3.1040 ca        1 QBH     -0.099300
     11 C21        -4.3910   -2.0060    4.0720 ca        1 QBH      0.144100
     12 C22        -3.5610   -1.1580    4.8220 ca        1 QBH     -0.206000
     13 C24        -2.1860   -1.1810    4.6140 ca        1 QBH     -0.080000
     14 O26        -5.7530   -2.0310    4.2400 oh        1 QBH     -0.490100
     15 C28        -4.7230   -3.7520    2.2780 c3        1 QBH     -0.027100
     16 C31        -4.8600   -5.1730    2.8370 c3        1 QBH      0.041700
     17 N33        -3.5870   -5.9040    2.8890 n         1 QBH     -0.436800
     18 C34        -3.7120   -7.0640    2.0750 c         1 QBH      0.792600
     19 O35        -4.9470   -7.1200    1.4430 os        1 QBH     -0.395900
     20 C36        -5.7620   -6.0160    1.8870 c3        1 QBH      0.106400
     21 O39        -2.8990   -7.9450    1.8030 o         1 QBH     -0.577500
     22 C40        -2.9080   -6.0410    4.1570 c3        1 QBH      0.074000
     23 C43        -3.6160   -6.8560    5.2400 c3        1 QBH     -0.116400
     24 C46        -2.7580   -6.9330    6.4760 c3        1 QBH     -0.091100
     25 O50         2.5690   -0.9600    3.6480 oh        1 QBH     -0.626800
     26 N52         3.8990    0.1730    1.5380 n4        1 QBH     -0.761000
     27 C54         4.4400    1.5440    1.2450 c3        1 QBH      0.177100
     28 C57         5.9290    1.5160    1.1960 ca        1 QBH     -0.190300
     29 C58         6.5840    1.3790   -0.0330 ca        1 QBH     -0.103000
     30 C60         7.9820    1.3910   -0.0910 ca        1 QBH     -0.054300
     31 C61         8.7130    1.5400    1.0960 ca        1 QBH     -0.078000
     32 C63         8.0590    1.6780    2.3200 ca        1 QBH     -0.117000
     33 C65         6.6660    1.6670    2.3760 ca        1 QBH     -0.107000
     34 C67         8.6790    1.2540   -1.4100 c3        1 QBH     -0.031400
     35 C69         9.4980    2.4930   -1.7190 c3        1 QBH     -0.093100
     36 C73         9.5560    0.0160   -1.4340 c3        1 QBH     -0.093100
     37 O77        -0.3990    0.0500   -1.0960 o         1 QBH     -0.616800
     38 O78        -0.1670    1.5070    0.8120 o         1 QBH     -0.616800
     39 H2          2.0500   -0.9240   -0.3170 h1        1 QBH      0.125200
     40 H2A         2.2390    0.8480   -0.4930 h1        1 QBH      0.125200
     41 H5          2.0560    1.0890    2.0700 hx        1 QBH      0.135700
     42 H7          2.1540   -2.0440    1.9130 h1        1 QBH      0.062700
     43 H9          0.1130    0.0140    3.0750 hc        1 QBH      0.095700
     44 H11        -0.0950   -2.0030    0.7310 h1        1 QBH      0.148700
     45 H11A       -1.4280   -1.0450    1.4000 h1        1 QBH      0.148700
     46 H14         0.3390   -2.0210    4.4720 hc        1 QBH      0.055200
     47 H14A        0.1350   -3.0830    3.0140 hc        1 QBH      0.055200
     48 H18        -2.0330   -3.5720    2.1750 ha        1 QBH      0.148000
     49 H22        -3.9970   -0.4820    5.5720 ha        1 QBH      0.148000
     50 H24        -1.5360   -0.5210    5.2070 ha        1 QBH      0.135000
     51 HO26       -5.9920   -1.3680    4.9060 ho        1 QBH      0.432000
     52 H28        -4.3200   -3.7960    1.2300 hc        1 QBH      0.070700
     53 H28A       -5.7580   -3.3140    2.2320 hc        1 QBH      0.070700
     54 H31        -5.3250   -5.1080    3.8620 h1        1 QBH      0.075700
     55 H36        -6.0750   -5.4540    0.9740 h1        1 QBH      0.076200
     56 H36A       -6.6460   -6.4470    2.4160 h1        1 QBH      0.076200
     57 H40        -2.7270   -4.9950    4.5380 h1        1 QBH      0.065200
     58 H40A       -1.9110   -6.5240    3.9380 h1        1 QBH      0.065200
     59 H43        -4.6030   -6.3890    5.4950 hc        1 QBH      0.052200
     60 H43A       -3.8220   -7.8910    4.8590 hc        1 QBH      0.052200
     61 H46        -1.7830   -7.4290    6.2510 hc        1 QBH      0.039367
     62 H46A       -3.2790   -7.5240    7.2670 hc        1 QBH      0.039367
     63 H46B       -2.5500   -5.9120    6.8780 hc        1 QBH      0.039367
     64 HO50        2.2620   -1.6730    4.2260 ho        1 QBH      0.452000
     65 HN52        4.2450   -0.1270    2.4620 hn        1 QBH      0.457800
     66 H54         4.0090    1.8850    0.2610 hx        1 QBH      0.107200
     67 H54A        4.0770    2.2360    2.0590 hx        1 QBH      0.107200
     68 H58         6.0010    1.2780   -0.9610 ha        1 QBH      0.137000
     69 H61         9.8150    1.5550    1.0580 ha        1 QBH      0.160000
     70 H63         8.6440    1.8030    3.2450 ha        1 QBH      0.158000
     71 H65         6.1540    1.7950    3.3420 ha        1 QBH      0.139000
     72 H67         7.9000    1.1430   -2.2200 hc        1 QBH      0.055700
     73 H69        10.3020    2.6370   -0.9570 hc        1 QBH      0.045867
     74 H69A        8.8490    3.4010   -1.7270 hc        1 QBH      0.045867
     75 H69B        9.9780    2.3880   -2.7220 hc        1 QBH      0.045867
     76 H73         8.9500   -0.9000   -1.2360 hc        1 QBH      0.045867
     77 H73A       10.0370   -0.0850   -2.4370 hc        1 QBH      0.045867
     78 H73B       10.3600    0.0850   -0.6630 hc        1 QBH      0.045867
     79 H522        4.2500   -0.4850    0.8360 hn        1 QBH      0.457800
@<TRIPOS>BOND
     1    1    2 1   
     2    1    6 1   
     3    1   37 2   
     4    1   38 2   
     5    2    3 1   
     6    2   39 1   
     7    2   40 1   
     8    3    4 1   
     9    3   26 1   
    10    3   41 1   
    11    4    5 1   
    12    4   25 1   
    13    4   42 1   
    14    5    6 1   
    15    5    7 1   
    16    5   43 1   
    17    6   44 1   
    18    6   45 1   
    19    7    8 1   
    20    7   46 1   
    21    7   47 1   
    22    8    9 ar  
    23    8   13 ar  
    24    9   10 ar  
    25    9   48 1   
    26   10   11 ar  
    27   10   15 1   
    28   11   12 ar  
    29   11   14 1   
    30   12   13 ar  
    31   12   49 1   
    32   13   50 1   
    33   14   51 1   
    34   15   16 1   
    35   15   52 1   
    36   15   53 1   
    37   16   17 1   
    38   16   20 1   
    39   16   54 1   
    40   17   18 1   
    41   17   22 1   
    42   18   19 1   
    43   18   21 2   
    44   19   20 1   
    45   20   55 1   
    46   20   56 1   
    47   22   23 1   
    48   22   57 1   
    49   22   58 1   
    50   23   24 1   
    51   23   59 1   
    52   23   60 1   
    53   24   61 1   
    54   24   62 1   
    55   24   63 1   
    56   25   64 1   
    57   26   27 1   
    58   26   65 1   
    59   26   79 1   
    60   27   28 1   
    61   27   66 1   
    62   27   67 1   
    63   28   29 ar  
    64   28   33 ar  
    65   29   30 ar  
    66   29   68 1   
    67   30   31 ar  
    68   30   34 1   
    69   31   32 ar  
    70   31   69 1   
    71   32   33 ar  
    72   32   70 1   
    73   33   71 1   
    74   34   35 1   
    75   34   36 1   
    76   34   72 1   
    77   35   73 1   
    78   35   74 1   
    79   35   75 1   
    80   36   76 1   
    81   36   77 1   
    82   36   78 1   
@<TRIPOS>SUBSTRUCTURE
     1 QBH         1 TEMP              0 ****  ****    0 ROOT
