@<TRIPOS>MOLECULE
QBH
   78    81     1     0     0
SMALL
bcc


@<TRIPOS>ATOM
      1 S1         -1.0590    3.0650   -0.1390 s6        1 QBH      1.332000
      2 C2         -2.5150    2.3060    0.3060 c3        1 QBH     -0.329600
      3 C5         -2.7910    0.9970   -0.4430 c3        1 QBH      0.194500
      4 C7         -1.6720   -0.0320   -0.1080 c3        1 QBH      0.117100
      5 C9         -0.2940    0.5100   -0.5150 c3        1 QBH     -0.059700
      6 C11         0.0150    1.7940    0.2250 c3        1 QBH     -0.322600
      7 C14         0.7750   -0.5450   -0.2450 c3        1 QBH     -0.028100
      8 C17         2.0720   -0.2090   -0.8940 ca        1 QBH     -0.118300
      9 C18         3.1420    0.2720   -0.1310 ca        1 QBH     -0.090000
     10 C20         4.3710    0.5820   -0.7190 ca        1 QBH     -0.105300
     11 C21         4.5130    0.3950   -2.1090 ca        1 QBH      0.122100
     12 C22         3.4480   -0.0850   -2.8850 ca        1 QBH     -0.204000
     13 C24         2.2350   -0.3850   -2.2730 ca        1 QBH     -0.086000
     14 O26         5.7400    0.6970   -2.6570 oh        1 QBH     -0.503100
     15 C28         5.4910    1.1240    0.0930 c3        1 QBH     -0.022100
     16 C31         6.5740    0.0760    0.3690 c3        1 QBH      0.049700
     17 N33         6.1870   -0.9280    1.3670 n         1 QBH     -0.440800
     18 C34         7.1720   -0.9580    2.3810 c         1 QBH      0.799600
     19 O35         8.1160    0.0480    2.2040 os        1 QBH     -0.403900
     20 C36         7.8320    0.7570    0.9810 c3        1 QBH      0.109400
     21 O39         7.2850   -1.6610    3.3850 o         1 QBH     -0.588500
     22 C40         5.5660   -2.1590    0.9480 c3        1 QBH      0.083000
     23 C43         6.4400   -3.1350    0.1580 c3        1 QBH     -0.115400
     24 C46         5.6550   -4.3760   -0.1780 c3        1 QBH     -0.090100
     25 O50        -1.9400   -1.2640   -0.7540 oh        1 QBH     -0.585800
     26 N52        -4.1090    0.4670   -0.1230 n3        1 QBH     -0.825200
     27 C54        -5.1780    1.0290   -0.9290 c3        1 QBH      0.213100
     28 C57        -6.4500    0.2370   -0.8660 ca        1 QBH     -0.099300
     29 C58        -7.0080   -0.1090    0.3690 ca        1 QBH     -0.108000
     30 C60        -8.2120   -0.8200    0.4300 ca        1 QBH     -0.074300
     31 C61        -8.8560   -1.1780   -0.7600 ca        1 QBH     -0.120000
     32 C63        -8.3020   -0.8320   -1.9910 ca        1 QBH     -0.130000
     33 C65        -7.1000   -0.1280   -2.0480 ca        1 QBH     -0.126000
     34 C67        -8.7960   -1.1860    1.7590 c3        1 QBH     -0.024400
     35 C69       -10.1570   -0.5430    1.9500 c3        1 QBH     -0.088100
     36 C73        -8.8930   -2.6920    1.9140 c3        1 QBH     -0.088100
     37 O77        -0.8130    4.1370    0.7280 o         1 QBH     -0.650300
     38 O78        -1.0500    3.3310   -1.5140 o         1 QBH     -0.650300
     39 H2         -2.5550    2.1010    1.4100 h1        1 QBH      0.128200
     40 H2A        -3.3790    3.0040    0.1190 h1        1 QBH      0.128200
     41 H5         -2.7050    1.2310   -1.5530 h1        1 QBH      0.038700
     42 H7         -1.6870   -0.2880    0.9880 h1        1 QBH      0.096700
     43 H9         -0.3050    0.7270   -1.6230 hc        1 QBH      0.070700
     44 H11         1.0720    2.0870   -0.0310 h1        1 QBH      0.124700
     45 H11A        0.0360    1.5830    1.3290 h1        1 QBH      0.124700
     46 H14         0.9130   -0.6540    0.8640 hc        1 QBH      0.063200
     47 H14A        0.4080   -1.5350   -0.6340 hc        1 QBH      0.063200
     48 H18         3.0200    0.4080    0.9560 ha        1 QBH      0.144000
     49 H22         3.5720   -0.2210   -3.9680 ha        1 QBH      0.138000
     50 H24         1.3980   -0.7620   -2.8790 ha        1 QBH      0.135000
     51 HO26        5.6670    0.6060   -3.6190 ho        1 QBH      0.424000
     52 H28         5.9820    1.9590   -0.4810 hc        1 QBH      0.067200
     53 H28A        5.1040    1.5460    1.0570 hc        1 QBH      0.067200
     54 H31         6.8390   -0.4170   -0.6110 h1        1 QBH      0.073700
     55 H36         8.7300    0.6560    0.3250 h1        1 QBH      0.070200
     56 H36A        7.6530    1.8260    1.2550 h1        1 QBH      0.070200
     57 H40         5.2040   -2.6760    1.8840 h1        1 QBH      0.070700
     58 H40A        4.6710   -1.8730    0.3230 h1        1 QBH      0.070700
     59 H43         6.8040   -2.6520   -0.7860 hc        1 QBH      0.048200
     60 H43A        7.3420   -3.4110    0.7650 hc        1 QBH      0.048200
     61 H46         4.7580   -4.1230   -0.7940 hc        1 QBH      0.037700
     62 H46A        6.2920   -5.0880   -0.7580 hc        1 QBH      0.037700
     63 H46B        5.3100   -4.8900    0.7520 hc        1 QBH      0.037700
     64 HO50       -1.8980   -1.1100   -1.7070 ho        1 QBH      0.402000
     65 HN52       -4.1040   -0.5370   -0.1710 hn        1 QBH      0.388800
     66 H54        -5.3820    2.0670   -0.5300 h1        1 QBH      0.038700
     67 H54A       -4.8730    1.1480   -2.0130 h1        1 QBH      0.038700
     68 H58        -6.4940    0.1830    1.2980 ha        1 QBH      0.145000
     69 H61        -9.8040   -1.7360   -0.7220 ha        1 QBH      0.133000
     70 H63        -8.8150   -1.1160   -2.9220 ha        1 QBH      0.132000
     71 H65        -6.6680    0.1420   -3.0230 ha        1 QBH      0.130000
     72 H67        -8.1140   -0.7970    2.5700 hc        1 QBH      0.052700
     73 H69       -10.5600   -0.7980    2.9600 hc        1 QBH      0.036700
     74 H69A      -10.0790    0.5670    1.8660 hc        1 QBH      0.036700
     75 H69B      -10.8770   -0.9070    1.1780 hc        1 QBH      0.036700
     76 H73        -7.8860   -3.1600    1.8040 hc        1 QBH      0.036700
     77 H73A       -9.2980   -2.9450    2.9240 hc        1 QBH      0.036700
     78 H73B       -9.5720   -3.1250    1.1410 hc        1 QBH      0.036700
@<TRIPOS>BOND
     1    1    2 1   
     2    1    6 1   
     3    1   37 2   
     4    1   38 2   
     5    2    3 1   
     6    2   39 1   
     7    2   40 1   
     8    3    4 1   
     9    3   26 1   
    10    3   41 1   
    11    4    5 1   
    12    4   25 1   
    13    4   42 1   
    14    5    6 1   
    15    5    7 1   
    16    5   43 1   
    17    6   44 1   
    18    6   45 1   
    19    7    8 1   
    20    7   46 1   
    21    7   47 1   
    22    8    9 ar  
    23    8   13 ar  
    24    9   10 ar  
    25    9   48 1   
    26   10   11 ar  
    27   10   15 1   
    28   11   12 ar  
    29   11   14 1   
    30   12   13 ar  
    31   12   49 1   
    32   13   50 1   
    33   14   51 1   
    34   15   16 1   
    35   15   52 1   
    36   15   53 1   
    37   16   17 1   
    38   16   20 1   
    39   16   54 1   
    40   17   18 1   
    41   17   22 1   
    42   18   19 1   
    43   18   21 2   
    44   19   20 1   
    45   20   55 1   
    46   20   56 1   
    47   22   23 1   
    48   22   57 1   
    49   22   58 1   
    50   23   24 1   
    51   23   59 1   
    52   23   60 1   
    53   24   61 1   
    54   24   62 1   
    55   24   63 1   
    56   25   64 1   
    57   26   27 1   
    58   26   65 1   
    59   27   28 1   
    60   27   66 1   
    61   27   67 1   
    62   28   29 ar  
    63   28   33 ar  
    64   29   30 ar  
    65   29   68 1   
    66   30   31 ar  
    67   30   34 1   
    68   31   32 ar  
    69   31   69 1   
    70   32   33 ar  
    71   32   70 1   
    72   33   71 1   
    73   34   35 1   
    74   34   36 1   
    75   34   72 1   
    76   35   73 1   
    77   35   74 1   
    78   35   75 1   
    79   36   76 1   
    80   36   77 1   
    81   36   78 1   
@<TRIPOS>SUBSTRUCTURE
     1 QBH         1 TEMP              0 ****  ****    0 ROOT
