@<TRIPOS>MOLECULE
QBT
   36    36     1     0     0
SMALL
bcc


@<TRIPOS>ATOM
      1 P           1.4910    2.6400    4.6810 p4        1 QBT      1.703200
      2 O1P         0.7610    3.8730    4.2030 os        1 QBT     -1.271000
      3 O2P         2.9640    2.7780    4.3790 o         1 QBT     -0.916500
      4 O5'         0.9170    1.3640    3.9350 os        1 QBT     -0.569200
      5 C5'         1.2430    1.1760    2.5730 c3        1 QBT      0.217400
      6 C4'         0.6030   -0.1210    2.0690 c3        1 QBT      0.066100
      7 O4'        -0.1940    0.1250    1.0920 os        1 QBT     -0.446600
      8 C3'         1.7030   -1.0770    1.4710 c3        1 QBT      0.110100
      9 O3'         1.8790   -2.1520    2.2760 oh        1 QBT     -0.657800
     10 C2'         1.1760   -1.5100    0.1310 c3        1 QBT     -0.114400
     11 C1'        -0.0970   -1.1250    0.1190 c3        1 QBT      0.310500
     12 N1         -0.4780   -0.7530   -1.1870 n         1 QBT     -0.455800
     13 C2          0.0740   -1.4350   -2.3100 c         1 QBT      0.813500
     14 O2          0.5850   -2.5280   -2.1660 o         1 QBT     -0.719500
     15 N3          0.0500   -0.8290   -3.5910 n         1 QBT     -0.607500
     16 C4         -0.9600    0.1040   -3.9100 c         1 QBT      0.704500
     17 O4         -1.0540    0.5350   -5.0420 o         1 QBT     -0.679500
     18 C5         -1.9270    0.5910   -2.8210 c3        1 QBT     -0.115700
     19 C6         -1.4950    0.2330   -1.3800 c3        1 QBT      0.049000
     20 C5M        -3.3820    0.0720   -3.1260 c3        1 QBT     -0.126100
     21 O3P         1.2940    2.4830    6.1700 o         1 QBT     -0.965300
     22 H5'1        0.9060    1.9310    2.0490 h1        1 QBT     -0.000800
     23 H5'2        2.2170    1.1200    2.4750 h1        1 QBT     -0.000800
     24 H4'         0.1230   -0.5680    2.7950 h1        1 QBT      0.043700
     25 H3'         2.5470   -0.5940    1.3620 h1        1 QBT      0.147700
     26 H1'        -0.6710   -1.8490    0.4430 h2        1 QBT      0.072700
     27 HA          2.7490   -2.2920    2.3990 ho        1 QBT      0.479000
     28 H2'1        1.6730   -1.0680   -0.5900 hc        1 QBT      0.047200
     29 H2'2        1.2380   -2.4840    0.0390 hc        1 QBT      0.047200
     30 H61C       -2.2940   -0.0710   -0.9010 h1        1 QBT      0.107200
     31 H62C       -1.1880    1.0590   -0.9530 h1        1 QBT      0.107200
     32 H3          0.6600   -1.0730   -4.2240 hn        1 QBT      0.317500
     33 H52        -3.4170   -0.8990   -2.9920 hc        1 QBT      0.072033
     34 H53        -3.6160    0.2820   -4.0550 hc        1 QBT      0.072033
     35 H54        -4.0180    0.5090   -2.5210 hc        1 QBT      0.072033
     36 H5M        -2.0600    1.5550   -2.8920 hc        1 QBT      0.086700
@<TRIPOS>BOND
     1    1    3 1   
     2    1    4 1   
     3    1   21 2   
     4    4    5 1   
     5    5    6 1   
     6    5   22 1   
     7    5   23 1   
     8    6    7 1   
     9    6    8 1   
    10    6   24 1   
    11    7   11 1   
    12    8    9 1   
    13    8   10 1   
    14    8   25 1   
    15    9   27 1   
    16   10   11 1   
    17   10   28 1   
    18   10   29 1   
    19   11   12 1   
    20   11   26 1   
    21   12   13 1   
    22   12   19 1   
    23   13   14 2   
    24   13   15 1   
    25   15   16 1   
    26   15   32 1   
    27   16   17 2   
    28   16   18 1   
    29   18   19 1   
    30   18   20 1   
    31   18   36 1   
    32   19   30 1   
    33   19   31 1   
    34   20   33 1   
    35   20   34 1   
    36   20   35 1   
@<TRIPOS>SUBSTRUCTURE
     1 QBT         1 TEMP              0 ****  ****    0 ROOT
