@<TRIPOS>MOLECULE
QBT
   36    37     1     0     0
SMALL
bcc


@<TRIPOS>ATOM
      1 P          -2.0420    1.2220   -0.2840 p5        1 QBT      1.334900
      2 O1P        -2.5790    0.1330    0.6150 o         1 QBT     -0.925833
      3 O2P        -0.6090    1.5820    0.0470 o         1 QBT     -0.925833
      4 O5'        -1.8550    0.2560   -1.7210 os        1 QBT     -0.564200
      5 C5'        -0.5920   -0.1780   -2.0130 c3        1 QBT      0.208400
      6 C4'        -0.3460   -1.6330   -1.5530 c3        1 QBT      0.061100
      7 O4'         1.0240   -2.0050   -1.8650 os        1 QBT     -0.443600
      8 C3'        -0.5460   -1.8380   -0.0370 c3        1 QBT      0.123100
      9 O3'        -1.7260   -2.5560    0.2360 oh        1 QBT     -0.659800
     10 C2'         0.6720   -2.6460    0.4110 c3        1 QBT     -0.130400
     11 C1'         1.7280   -2.3910   -0.6860 c3        1 QBT      0.306500
     12 N1          2.7760   -1.4110   -0.3340 n         1 QBT     -0.447800
     13 C2          3.3770   -1.6000    0.9270 c         1 QBT      0.803500
     14 O2          3.6950   -2.7350    1.3660 o         1 QBT     -0.700500
     15 N3          3.7390   -0.4760    1.7030 n         1 QBT     -0.621500
     16 C4          3.2750    0.8230    1.4390 c         1 QBT      0.717500
     17 O4          3.6600    1.7280    2.2040 o         1 QBT     -0.661500
     18 C5          2.3420    0.9930    0.2620 c3        1 QBT     -0.182700
     19 C6          2.6920   -0.0460   -0.8100 c3        1 QBT      0.069000
     20 C5M         2.3710    2.3900   -0.3120 c3        1 QBT     -0.081100
     21 O3P        -2.9440    2.3340   -0.7100 o         1 QBT     -0.925833
     22 H5'1       -0.4430   -0.1680   -3.1340 h1        1 QBT      0.000200
     23 H5'2        0.1750    0.4980   -1.5380 h1        1 QBT      0.000200
     24 H4'        -0.9880   -2.3440   -2.1360 h1        1 QBT      0.047700
     25 H3'        -0.6010   -0.8160    0.4620 h1        1 QBT      0.137700
     26 H1'         2.2920   -3.3330   -0.9540 h2        1 QBT      0.057700
     27 HA         -2.4100   -1.8680    0.3950 ho        1 QBT      0.486000
     28 H2'1        1.0160   -2.3390    1.4260 hc        1 QBT      0.051200
     29 H2'2        0.4290   -3.7360    0.4410 hc        1 QBT      0.051200
     30 H61C        3.7060    0.2050   -1.2420 h1        1 QBT      0.066700
     31 H62C        1.9400    0.0130   -1.6470 h1        1 QBT      0.066700
     32 H3          4.2640   -0.6500    2.5280 hn        1 QBT      0.315500
     33 H52         3.1780    2.5070   -1.0740 hc        1 QBT      0.050700
     34 H53         1.3630    2.5820   -0.7740 hc        1 QBT      0.050700
     35 H54         2.5330    3.1370    0.5020 hc        1 QBT      0.050700
     36 H5M         1.2580    0.8400    0.6200 hc        1 QBT      0.216700
@<TRIPOS>BOND
     1    1    2 1   
     2    1    3 1   
     3    1    4 1   
     4    1   21 1   
     5    4    5 1   
     6    5    6 1   
     7    5   22 1   
     8    5   23 1   
     9    6    7 1   
    10    6    8 1   
    11    6   24 1   
    12    7   11 1   
    13    8    9 1   
    14    8   10 1   
    15    8   25 1   
    16    9   27 1   
    17   10   11 1   
    18   10   28 1   
    19   10   29 1   
    20   11   12 1   
    21   11   26 1   
    22   12   13 1   
    23   12   19 1   
    24   13   14 2   
    25   13   15 1   
    26   15   16 1   
    27   15   32 1   
    28   16   17 2   
    29   16   18 1   
    30   18   19 1   
    31   18   20 1   
    32   18   36 1   
    33   19   30 1   
    34   19   31 1   
    35   20   33 1   
    36   20   34 1   
    37   20   35 1   
@<TRIPOS>SUBSTRUCTURE
     1 QBT         1 TEMP              0 ****  ****    0 ROOT
