@<TRIPOS>MOLECULE
QC0
   58    62     1     0     0
SMALL
bcc


@<TRIPOS>ATOM
      1 C1          9.1710    1.5920   -1.7530 c3        1 QC0      0.157100
      2 N2          8.1020    0.9860   -0.9910 n3        1 QC0     -0.732600
      3 C3          7.5740    1.8760    0.0320 c3        1 QC0      0.164800
      4 C4          6.4240    1.2440    0.8430 c3        1 QC0      0.184800
      5 N5          5.3800    0.7020   -0.0090 nh        1 QC0     -0.634000
      6 C6          5.8980   -0.1900   -1.0370 c3        1 QC0      0.184800
      7 C7          7.0520    0.4430   -1.8400 c3        1 QC0      0.164800
      8 C8          4.2000    0.2620    0.6400 ca        1 QC0      0.121600
      9 C9          4.0780    0.2170    2.0530 ca        1 QC0     -0.147000
     10 C10         2.8860   -0.1230    2.6680 ca        1 QC0     -0.094000
     11 C11         1.7480   -0.4550    1.9000 ca        1 QC0      0.143400
     12 N12         0.5380   -0.7980    2.5210 nc        1 QC0     -0.607100
     13 C13        -0.4750   -1.0990    1.7510 cd        1 QC0      0.490800
     14 N14        -0.4750   -1.1400    0.3470 n         1 QC0     -0.322500
     15 C15        -1.6970   -1.4500   -0.3200 ca        1 QC0      0.052600
     16 C16        -2.8040   -0.6030   -0.1160 ca        1 QC0     -0.150000
     17 C17        -4.0380   -0.8800   -0.7310 ca        1 QC0      0.068600
     18 N18        -5.1630   -0.0520   -0.5700 n         1 QC0     -0.473100
     19 C19        -5.4030    0.8080    0.4980 c         1 QC0      0.712700
     20 O20        -4.5980    0.9490    1.4380 o         1 QC0     -0.583100
     21 C21        -6.6700    1.5520    0.4550 cc        1 QC0     -0.288900
     22 C22        -7.2210    2.2580    1.5980 cc        1 QC0     -0.209300
     23 C23        -8.3930    2.8380    1.1680 cd        1 QC0      0.232600
     24 O24        -8.6100    2.5410   -0.1830 os        1 QC0     -0.352800
     25 C25        -7.5460    1.7550   -0.5990 cd        1 QC0      0.284600
     26 C26        -4.1410   -2.0140   -1.5710 ca        1 QC0     -0.170000
     27 C27        -3.0430   -2.8370   -1.7670 ca        1 QC0     -0.104000
     28 C28        -1.8130   -2.5900   -1.1470 ca        1 QC0     -0.067300
     29 C29        -0.6780   -3.5110   -1.3800 c3        1 QC0     -0.061800
     30 C30         0.6960   -0.7670   -0.3550 c         1 QC0      0.712100
     31 C32         1.8680   -0.4250    0.4870 ca        1 QC0     -0.161600
     32 C31         3.0670   -0.0660   -0.1310 ca        1 QC0     -0.098000
     33 O31         0.7190   -0.7440   -1.5980 o         1 QC0     -0.613500
     34 H11C        9.9820    1.9100   -1.0470 h1        1 QC0      0.033367
     35 H12C        9.5860    0.8280   -2.4610 h1        1 QC0      0.033367
     36 H13C        8.8430    2.4890   -2.3480 h1        1 QC0      0.033367
     37 H31C        8.4090    2.1080    0.7510 h1        1 QC0      0.040450
     38 H32C        7.2130    2.8520   -0.4070 h1        1 QC0      0.040450
     39 H71C        6.6240    1.2280   -2.5300 h1        1 QC0      0.040450
     40 H72C        7.5070   -0.3660   -2.4760 h1        1 QC0      0.040450
     41 H41C        6.8580    0.4550    1.5240 h1        1 QC0      0.045450
     42 H42C        5.9730    2.0550    1.4820 h1        1 QC0      0.045450
     43 H61C        6.2610   -1.1600   -0.5860 h1        1 QC0      0.045450
     44 H62C        5.0720   -0.4300   -1.7610 h1        1 QC0      0.045450
     45 H9          4.9410    0.4570    2.6940 ha        1 QC0      0.138000
     46 H10         2.8230   -0.1400    3.7680 ha        1 QC0      0.152000
     47 H13        -1.4430   -1.3570    2.2360 h5        1 QC0      0.065800
     48 H16        -2.7020    0.2830    0.5360 ha        1 QC0      0.177000
     49 H18        -5.9040   -0.2040   -1.2160 hn        1 QC0      0.315500
     50 H26        -5.0890   -2.2530   -2.0770 ha        1 QC0      0.132000
     51 H22        -6.7570    2.2980    2.5810 ha        1 QC0      0.186000
     52 H25        -7.5810    1.4620   -1.6450 h4        1 QC0      0.058100
     53 H23        -9.1650    3.4560    1.6170 h4        1 QC0      0.062100
     54 H27        -3.1420   -3.7160   -2.4250 ha        1 QC0      0.139000
     55 H291       -0.2720   -3.8910   -0.4100 hc        1 QC0      0.054033
     56 H292       -0.9920   -4.3900   -1.9960 hc        1 QC0      0.054033
     57 H293        0.1440   -2.9750   -1.9220 hc        1 QC0      0.054033
     58 H31         3.0930   -0.0340   -1.2330 ha        1 QC0      0.163000
@<TRIPOS>BOND
     1    1    2 1   
     2    1   34 1   
     3    1   35 1   
     4    1   36 1   
     5    2    3 1   
     6    2    7 1   
     7    3    4 1   
     8    3   37 1   
     9    3   38 1   
    10    4    5 1   
    11    4   41 1   
    12    4   42 1   
    13    5    6 1   
    14    5    8 1   
    15    6    7 1   
    16    6   43 1   
    17    6   44 1   
    18    7   39 1   
    19    7   40 1   
    20    8    9 ar  
    21    8   32 ar  
    22    9   10 ar  
    23    9   45 1   
    24   10   11 ar  
    25   10   46 1   
    26   11   12 1   
    27   11   31 ar  
    28   12   13 2   
    29   13   14 1   
    30   13   47 1   
    31   14   15 1   
    32   14   30 1   
    33   15   16 ar  
    34   15   28 ar  
    35   16   17 ar  
    36   16   48 1   
    37   17   18 1   
    38   17   26 ar  
    39   18   19 1   
    40   18   49 1   
    41   19   20 2   
    42   19   21 1   
    43   21   22 1   
    44   21   25 2   
    45   22   23 2   
    46   22   51 1   
    47   23   24 1   
    48   23   53 1   
    49   24   25 1   
    50   25   52 1   
    51   26   27 ar  
    52   26   50 1   
    53   27   28 ar  
    54   27   54 1   
    55   28   29 1   
    56   29   55 1   
    57   29   56 1   
    58   29   57 1   
    59   30   31 1   
    60   30   33 2   
    61   31   32 ar  
    62   32   58 1   
@<TRIPOS>SUBSTRUCTURE
     1 QC0         1 TEMP              0 ****  ****    0 ROOT
