@<TRIPOS>MOLECULE
QC0
   59    63     1     0     0
SMALL
bcc


@<TRIPOS>ATOM
      1 C1         -0.0150   -0.6330   -0.5730 c3        1 QC0      0.155100
      2 N2          1.4300   -0.6050   -0.5960 n3        1 QC0     -0.732600
      3 C3          1.9860    0.3980    0.2980 c3        1 QC0      0.163800
      4 C4          3.5260    0.4490    0.2510 c3        1 QC0      0.188800
      5 N5          4.1430   -0.8590    0.4180 nh        1 QC0     -0.638000
      6 C6          3.5610   -1.8920   -0.4230 c3        1 QC0      0.188800
      7 C7          2.0210   -1.9150   -0.3680 c3        1 QC0      0.163800
      8 C8          5.5390   -0.8840    0.5860 ca        1 QC0      0.164600
      9 C9          6.1640    0.0000    1.5100 ca        1 QC0     -0.134000
     10 C10         7.5190   -0.0580    1.7710 ca        1 QC0     -0.072000
     11 C11         8.3380   -1.0090    1.1220 ca        1 QC0      0.112400
     12 N12         9.7150   -1.0700    1.3860 nc        1 QC0     -0.556100
     13 C13        10.4240   -1.9600    0.7530 cd        1 QC0      0.454800
     14 N14         9.9370   -2.8850   -0.1990 n         1 QC0     -0.349500
     15 C15        10.8290   -3.8310   -0.7610 ca        1 QC0      0.075600
     16 C16        11.4500   -4.7700    0.0870 ca        1 QC0     -0.106000
     17 C17        12.3180   -5.7300   -0.4520 ca        1 QC0     -0.068400
     18 N18        12.9590   -6.6990    0.4390 n4        1 QC0     -0.548200
     19 C19        11.9480   -7.4760    1.2870 c         1 QC0      0.620700
     20 O20        11.9340   -7.1430    2.4640 o         1 QC0     -0.425100
     21 C21        11.2000   -8.4960    0.6130 cc        1 QC0     -0.356900
     22 C22        10.4680   -9.5370    1.3240 cc        1 QC0     -0.198300
     23 C23         9.8570  -10.3030    0.3580 cd        1 QC0      0.274600
     24 O24        10.1590   -9.7970   -0.9170 os        1 QC0     -0.308800
     25 C25        10.9700   -8.7040   -0.7480 cd        1 QC0      0.358600
     26 C26        12.5870   -5.7660   -1.8310 ca        1 QC0     -0.117000
     27 C27        11.9800   -4.8290   -2.6570 ca        1 QC0     -0.110000
     28 C28        11.1050   -3.8560   -2.1540 ca        1 QC0      0.016700
     29 C29        10.4830   -2.8880   -3.0850 c3        1 QC0     -0.088800
     30 C30         8.5470   -2.9070   -0.4960 c         1 QC0      0.718100
     31 C32         7.7250   -1.8940    0.2000 ca        1 QC0     -0.140600
     32 C31         6.3570   -1.8290   -0.0700 ca        1 QC0     -0.141000
     33 O31         8.1030   -3.7500   -1.2940 o         1 QC0     -0.616500
     34 H11C       -0.3730   -1.3650   -1.3450 h1        1 QC0      0.038700
     35 H12C       -0.3990    0.3870   -0.8380 h1        1 QC0      0.038700
     36 H13C       -0.4400   -0.9290    0.4260 h1        1 QC0      0.038700
     37 H31C        1.6610    0.2330    1.3670 h1        1 QC0      0.045200
     38 H32C        1.6050    1.4050   -0.0300 h1        1 QC0      0.045200
     39 H71C        1.7000   -2.3530    0.6220 h1        1 QC0      0.045200
     40 H72C        1.6640   -2.6040   -1.1840 h1        1 QC0      0.045200
     41 H41C        3.8610    1.1260    1.0850 h1        1 QC0      0.048200
     42 H42C        3.8450    0.9130   -0.7280 h1        1 QC0      0.048200
     43 H61C        3.8840   -1.7680   -1.4980 h1        1 QC0      0.048200
     44 H62C        3.9240   -2.8930   -0.0550 h1        1 QC0      0.048200
     45 H9          5.5620    0.7460    2.0550 ha        1 QC0      0.153000
     46 H10         7.9680    0.6430    2.4960 ha        1 QC0      0.162000
     47 H13        11.5150   -2.0060    0.9520 h5        1 QC0      0.053800
     48 H16        11.2390   -4.7510    1.1720 ha        1 QC0      0.170000
     49 H18        13.5100   -7.3610   -0.1170 hn        1 QC0      0.460800
     50 H26        13.2750   -6.5080   -2.2670 ha        1 QC0      0.151000
     51 H22        10.4310   -9.6510    2.4070 ha        1 QC0      0.201000
     52 H25        11.2610   -8.1900   -1.6660 h4        1 QC0      0.077100
     53 H23         9.2110  -11.1810    0.3450 h4        1 QC0      0.094100
     54 H27        12.1940   -4.8490   -3.7400 ha        1 QC0      0.172000
     55 H291       10.6620   -1.8380   -2.7400 hc        1 QC0      0.080367
     56 H292       10.8930   -2.9950   -4.1190 hc        1 QC0      0.080367
     57 H293        9.3740   -3.0600   -3.1210 hc        1 QC0      0.080367
     58 H31         5.9450   -2.5360   -0.8100 ha        1 QC0      0.163000
     59 H182       13.5900   -6.1880    1.0740 hn        1 QC0      0.460800
@<TRIPOS>BOND
     1    1    2 1   
     2    1   34 1   
     3    1   35 1   
     4    1   36 1   
     5    2    3 1   
     6    2    7 1   
     7    3    4 1   
     8    3   37 1   
     9    3   38 1   
    10    4    5 1   
    11    4   41 1   
    12    4   42 1   
    13    5    6 1   
    14    5    8 1   
    15    6    7 1   
    16    6   43 1   
    17    6   44 1   
    18    7   39 1   
    19    7   40 1   
    20    8    9 ar  
    21    8   32 ar  
    22    9   10 ar  
    23    9   45 1   
    24   10   11 ar  
    25   10   46 1   
    26   11   12 1   
    27   11   31 ar  
    28   12   13 2   
    29   13   14 1   
    30   13   47 1   
    31   14   15 1   
    32   14   30 1   
    33   15   16 ar  
    34   15   28 ar  
    35   16   17 ar  
    36   16   48 1   
    37   17   18 1   
    38   17   26 ar  
    39   18   19 1   
    40   18   49 1   
    41   18   59 1   
    42   19   20 2   
    43   19   21 1   
    44   21   22 1   
    45   21   25 2   
    46   22   23 2   
    47   22   51 1   
    48   23   24 1   
    49   23   53 1   
    50   24   25 1   
    51   25   52 1   
    52   26   27 ar  
    53   26   50 1   
    54   27   28 ar  
    55   27   54 1   
    56   28   29 1   
    57   29   55 1   
    58   29   56 1   
    59   29   57 1   
    60   30   31 1   
    61   30   33 2   
    62   31   32 ar  
    63   32   58 1   
@<TRIPOS>SUBSTRUCTURE
     1 QC0         1 TEMP              0 ****  ****    0 ROOT
