@<TRIPOS>MOLECULE
QC0
   58    62     1     0     0
SMALL
bcc


@<TRIPOS>ATOM
      1 C1         -0.1510    0.5280   -0.5220 c3        1 QC0      0.157100
      2 N2          1.2750    0.5280   -0.2900 n3        1 QC0     -0.732600
      3 C3          1.6200    0.1190    1.0640 c3        1 QC0      0.164800
      4 C4          3.1410    0.1020    1.3190 c3        1 QC0      0.184800
      5 N5          3.8610   -0.6580    0.3120 nh        1 QC0     -0.634000
      6 C6          3.5240   -0.2570   -1.0470 c3        1 QC0      0.184800
      7 C7          2.0030   -0.2350   -1.2940 c3        1 QC0      0.164800
      8 C8          5.2390   -0.8820    0.5560 ca        1 QC0      0.121600
      9 C9          5.9270   -0.2900    1.6460 ca        1 QC0     -0.147000
     10 C10         7.2470   -0.5960    1.9240 ca        1 QC0     -0.094000
     11 C11         7.9620   -1.5050    1.1130 ca        1 QC0      0.143400
     12 N12         9.3000   -1.8190    1.3930 nc        1 QC0     -0.607100
     13 C13         9.9050   -2.6640    0.6000 cd        1 QC0      0.490800
     14 N14         9.3560   -3.2830   -0.5360 n         1 QC0     -0.322500
     15 C15        10.1640   -4.2140   -1.2540 ca        1 QC0      0.052600
     16 C16        10.6330   -5.3560   -0.5750 ca        1 QC0     -0.150000
     17 C17        11.4530   -6.2910   -1.2320 ca        1 QC0      0.068600
     18 N18        11.9280   -7.4520   -0.5980 ns        1 QC0     -0.473100
     19 C19        12.0920   -7.6310    0.7730 c         1 QC0      0.712700
     20 O20        11.7960   -6.7510    1.6030 o         1 QC0     -0.583100
     21 C21        12.6340   -8.9310    1.1930 cc        1 QC0     -0.288900
     22 C22        13.1420   -9.1900    2.5280 cc        1 QC0     -0.209300
     23 C23        13.5430  -10.5070    2.5430 cd        1 QC0      0.232600
     24 O24        13.3120  -11.0950    1.2930 os        1 QC0     -0.352800
     25 C25        12.7570  -10.1150    0.4840 cd        1 QC0      0.284600
     26 C26        11.7830   -6.0720   -2.5910 ca        1 QC0     -0.170000
     27 C27        11.3110   -4.9470   -3.2480 ca        1 QC0     -0.104000
     28 C28        10.5110   -3.9950   -2.6060 ca        1 QC0     -0.067300
     29 C29        10.0490   -2.8040   -3.3540 c3        1 QC0     -0.061800
     30 C30         7.9990   -3.0500   -0.8630 c         1 QC0      0.712100
     31 C32         7.2840   -2.0910    0.0140 ca        1 QC0     -0.161600
     32 C31         5.9470   -1.7920   -0.2550 ca        1 QC0     -0.098000
     33 O31         7.4650   -3.6180   -1.8310 o         1 QC0     -0.613500
     34 H11C       -0.6380    1.2010    0.2320 h1        1 QC0      0.033367
     35 H12C       -0.3490    0.9330   -1.5490 h1        1 QC0      0.033367
     36 H13C       -0.6170   -0.4930   -0.4440 h1        1 QC0      0.033367
     37 H31C        1.1650    0.8640    1.7750 h1        1 QC0      0.040450
     38 H32C        1.2000   -0.9000    1.3130 h1        1 QC0      0.040450
     39 H71C        1.6320   -1.3000   -1.3600 h1        1 QC0      0.040450
     40 H72C        1.8280    0.2550   -2.2920 h1        1 QC0      0.040450
     41 H41C        3.5070    1.1690    1.3740 h1        1 QC0      0.045450
     42 H42C        3.3120   -0.3850    2.3190 h1        1 QC0      0.045450
     43 H61C        3.9750   -0.9940   -1.7670 h1        1 QC0      0.045450
     44 H62C        3.9440    0.7640   -1.2820 h1        1 QC0      0.045450
     45 H9          5.4150    0.4330    2.3000 ha        1 QC0      0.138000
     46 H10         7.7490   -0.1240    2.7840 ha        1 QC0      0.152000
     47 H13        10.9620   -2.9310    0.8250 h5        1 QC0      0.065800
     48 H16        10.3570   -5.5140    0.4820 ha        1 QC0      0.177000
     49 H18        12.3010   -8.1490   -1.2020 hn        1 QC0      0.315500
     50 H26        12.4130   -6.7900   -3.1380 ha        1 QC0      0.132000
     51 H22        13.1730   -8.4550    3.3300 ha        1 QC0      0.186000
     52 H25        12.5110  -10.4440   -0.5230 h4        1 QC0      0.058100
     53 H23        13.9810  -11.1780    3.2760 h4        1 QC0      0.062100
     54 H27        11.5780   -4.7930   -4.3060 ha        1 QC0      0.139000
     55 H291        8.9320   -2.8250   -3.4540 hc        1 QC0      0.054033
     56 H292       10.4950   -2.7730   -4.3780 hc        1 QC0      0.054033
     57 H293       10.3360   -1.8650   -2.8180 hc        1 QC0      0.054033
     58 H31         5.4630   -2.2980   -1.1080 ha        1 QC0      0.163000
@<TRIPOS>BOND
     1    1    2 1   
     2    1   34 1   
     3    1   35 1   
     4    1   36 1   
     5    2    3 1   
     6    2    7 1   
     7    3    4 1   
     8    3   37 1   
     9    3   38 1   
    10    4    5 1   
    11    4   41 1   
    12    4   42 1   
    13    5    6 1   
    14    5    8 1   
    15    6    7 1   
    16    6   43 1   
    17    6   44 1   
    18    7   39 1   
    19    7   40 1   
    20    8    9 ar  
    21    8   32 ar  
    22    9   10 ar  
    23    9   45 1   
    24   10   11 ar  
    25   10   46 1   
    26   11   12 1   
    27   11   31 ar  
    28   12   13 2   
    29   13   14 1   
    30   13   47 1   
    31   14   15 1   
    32   14   30 1   
    33   15   16 ar  
    34   15   28 ar  
    35   16   17 ar  
    36   16   48 1   
    37   17   18 1   
    38   17   26 ar  
    39   18   19 1   
    40   18   49 1   
    41   19   20 2   
    42   19   21 1   
    43   21   22 1   
    44   21   25 2   
    45   22   23 2   
    46   22   51 1   
    47   23   24 1   
    48   23   53 1   
    49   24   25 1   
    50   25   52 1   
    51   26   27 ar  
    52   26   50 1   
    53   27   28 ar  
    54   27   54 1   
    55   28   29 1   
    56   29   55 1   
    57   29   56 1   
    58   29   57 1   
    59   30   31 1   
    60   30   33 2   
    61   31   32 ar  
    62   32   58 1   
@<TRIPOS>SUBSTRUCTURE
     1 QC0         1 TEMP              0 ****  ****    0 ROOT
