@<TRIPOS>MOLECULE
QC5
   41    43     1     0     0
SMALL
bcc


@<TRIPOS>ATOM
      1 C1          0.0890    0.9780    0.3200 cc        1 QC5      0.419800
      2 C2         -0.4080   -0.3970    0.2540 cc        1 QC5     -0.213300
      3 C3          0.7390   -1.1870    0.4570 cd        1 QC5     -0.119300
      4 N1          1.8110   -0.3190    0.6560 na        1 QC5      0.101400
      5 C4          3.1840   -0.7480    0.8630 c3        1 QC5      0.053300
      6 C5          4.1020   -0.4320   -0.3430 c3        1 QC5      0.151800
      7 N2          5.4330   -0.9850   -0.1360 n3        1 QC5     -0.748600
      8 C6          6.0620   -1.4210   -1.3620 c3        1 QC5      0.158100
      9 C7          6.2840   -0.1300    0.6620 c3        1 QC5      0.158100
     10 N3          1.4510    0.9690    0.5570 nd        1 QC5     -0.527800
     11 C8         -2.1760    3.6310   -0.6300 cc        1 QC5     -0.196000
     12 C9         -1.2250    4.3430    0.1820 cc        1 QC5     -0.196000
     13 C10        -0.2930    3.4130    0.6470 cd        1 QC5     -0.140800
     14 N4         -0.6580    2.1450    0.1660 na        1 QC5     -0.090900
     15 C11        -1.8010    2.2870   -0.6370 cd        1 QC5     -0.140800
     16 C12        -4.3320   -1.9180   -0.2900 ca        1 QC5      0.123900
     17 C13        -3.2470   -2.5020   -0.9700 ca        1 QC5     -0.166000
     18 C14        -1.9700   -1.9860   -0.7900 ca        1 QC5     -0.097500
     19 C15        -1.7480   -0.8890    0.0580 ca        1 QC5     -0.018000
     20 C16        -2.8380   -0.3160    0.7310 ca        1 QC5     -0.097500
     21 C17        -4.1220   -0.8200    0.5630 ca        1 QC5     -0.166000
     22 H3          0.8450   -2.2710    0.4940 h4        1 QC5      0.183000
     23 H41C        3.5820   -0.2350    1.7850 h1        1 QC5      0.073200
     24 H42C        3.1600   -1.8580    1.0490 h1        1 QC5      0.073200
     25 H51C        3.6500   -0.8890   -1.2680 h1        1 QC5      0.052200
     26 H52C        4.1300    0.6860   -0.4950 h1        1 QC5      0.052200
     27 H61C        6.2400   -0.5850   -2.0920 h1        1 QC5      0.034700
     28 H62C        7.0490   -1.8920   -1.1110 h1        1 QC5      0.034700
     29 H63C        5.4120   -2.1930   -1.8530 h1        1 QC5      0.034700
     30 H71C        5.7640    0.1100    1.6250 h1        1 QC5      0.034700
     31 H72C        7.2330   -0.6820    0.8920 h1        1 QC5      0.034700
     32 H73C        6.5470    0.8360    0.1490 h1        1 QC5      0.034700
     33 H8         -3.0310    4.0620   -1.1420 ha        1 QC5      0.153500
     34 H9         -1.2350    5.4070    0.3940 ha        1 QC5      0.153500
     35 H11        -2.2490    1.4240   -1.1310 h4        1 QC5      0.176500
     36 H10         0.5840    3.5450    1.2810 h4        1 QC5      0.176500
     37 H13        -3.4200   -3.3590   -1.6370 ha        1 QC5      0.150500
     38 H17        -4.9750   -0.3700    1.0920 ha        1 QC5      0.150500
     39 H14        -1.1200   -2.4400   -1.3220 ha        1 QC5      0.145000
     40 H16        -2.6750    0.5440    1.4010 ha        1 QC5      0.145000
     41 F          -5.5810   -2.4150   -0.4590 f         1 QC5     -0.140900
@<TRIPOS>BOND
     1    1    2 1   
     2    1   10 2   
     3    1   14 1   
     4    2    3 2   
     5    2   19 1   
     6    3    4 1   
     7    3   22 1   
     8    4    5 1   
     9    4   10 1   
    10    5    6 1   
    11    5   23 1   
    12    5   24 1   
    13    6    7 1   
    14    6   25 1   
    15    6   26 1   
    16    7    8 1   
    17    7    9 1   
    18    8   27 1   
    19    8   28 1   
    20    8   29 1   
    21    9   30 1   
    22    9   31 1   
    23    9   32 1   
    24   11   12 1   
    25   11   15 2   
    26   11   33 1   
    27   12   13 2   
    28   12   34 1   
    29   13   14 1   
    30   13   36 1   
    31   14   15 1   
    32   15   35 1   
    33   16   17 ar  
    34   16   21 ar  
    35   16   41 1   
    36   17   18 ar  
    37   17   37 1   
    38   18   19 ar  
    39   18   39 1   
    40   19   20 ar  
    41   20   21 ar  
    42   20   40 1   
    43   21   38 1   
@<TRIPOS>SUBSTRUCTURE
     1 QC5         1 TEMP              0 ****  ****    0 ROOT
