@<TRIPOS>MOLECULE
QC5
   42    44     1     0     0
SMALL
bcc


@<TRIPOS>ATOM
      1 C1          0.3290   -0.1090    0.4680 cc        1 QC5      0.493800
      2 C2          1.7050    0.2650    0.0830 cc        1 QC5     -0.169300
      3 C3          2.3250    0.6000    1.2890 cd        1 QC5     -0.090300
      4 N1          1.3630    0.4750    2.3090 na        1 QC5      0.038400
      5 C4          1.6930    0.3770    3.7110 c3        1 QC5      0.039300
      6 C5          0.8060    1.2570    4.6160 c3        1 QC5      0.092800
      7 N2         -0.6560    0.9200    4.5560 n4        1 QC5     -0.674400
      8 C6         -1.1980    0.6390    5.9120 c3        1 QC5      0.083600
      9 C7         -1.4360    2.0090    3.9060 c3        1 QC5      0.083600
     10 N3          0.1860    0.0050    1.8320 nd        1 QC5     -0.641800
     11 C8         -2.0670   -0.5540   -2.1920 cc        1 QC5     -0.168000
     12 C9         -2.7060   -1.2600   -1.1050 cc        1 QC5     -0.168000
     13 C10        -1.8550   -1.1990   -0.0070 cd        1 QC5     -0.142800
     14 N4         -0.6890   -0.4990   -0.3880 na        1 QC5     -0.117900
     15 C11        -0.8420   -0.0870   -1.7290 cd        1 QC5     -0.142800
     16 C12         3.5680    0.2910   -3.7280 ca        1 QC5      0.152900
     17 C13         3.6880    1.4060   -2.8760 ca        1 QC5     -0.165000
     18 C14         3.0640    1.3900   -1.6350 ca        1 QC5     -0.085500
     19 C15         2.3120    0.2780   -1.2240 ca        1 QC5     -0.066000
     20 C16         2.1970   -0.8280   -2.0800 ca        1 QC5     -0.085500
     21 C17         2.8180   -0.8300   -3.3230 ca        1 QC5     -0.165000
     22 H3          3.3460    0.9340    1.4870 h4        1 QC5      0.196000
     23 H41C        1.6340   -0.6960    4.0610 h1        1 QC5      0.094200
     24 H42C        2.7540    0.7370    3.8490 h1        1 QC5      0.094200
     25 H51C        0.9340    2.3420    4.3390 hx        1 QC5      0.110200
     26 H52C        1.1700    1.1180    5.6750 hx        1 QC5      0.110200
     27 H61C       -0.6460   -0.2290    6.3620 hx        1 QC5      0.105367
     28 H62C       -2.2890    0.3850    5.8270 hx        1 QC5      0.105367
     29 H63C       -1.0770    1.5440    6.5640 hx        1 QC5      0.105367
     30 H71C       -1.0190    2.2110    2.8820 hx        1 QC5      0.105367
     31 H72C       -2.5070    1.6840    3.8110 hx        1 QC5      0.105367
     32 H73C       -1.3780    2.9390    4.5310 hx        1 QC5      0.105367
     33 H8         -2.4740   -0.4220   -3.1910 ha        1 QC5      0.170000
     34 H9         -3.6730   -1.7550   -1.1500 ha        1 QC5      0.170000
     35 H11        -0.0590    0.4840   -2.2310 h4        1 QC5      0.177000
     36 H10        -1.9570   -1.6210    0.9920 h4        1 QC5      0.177000
     37 H13         4.2750    2.2790   -3.2010 ha        1 QC5      0.162500
     38 H17         2.7310   -1.6980   -3.9940 ha        1 QC5      0.162500
     39 H14         3.1580    2.2620   -0.9700 ha        1 QC5      0.143500
     40 H16         1.6110   -1.7070   -1.7650 ha        1 QC5      0.143500
     41 H21        -0.7790    0.0650    3.9880 hn        1 QC5      0.477800
     42 F           4.1740    0.2970   -4.9350 f         1 QC5     -0.122900
@<TRIPOS>BOND
     1    1    2 1   
     2    1   10 2   
     3    1   14 1   
     4    2    3 2   
     5    2   19 1   
     6    3    4 1   
     7    3   22 1   
     8    4    5 1   
     9    4   10 1   
    10    5    6 1   
    11    5   23 1   
    12    5   24 1   
    13    6    7 1   
    14    6   25 1   
    15    6   26 1   
    16    7    8 1   
    17    7    9 1   
    18    7   41 1   
    19    8   27 1   
    20    8   28 1   
    21    8   29 1   
    22    9   30 1   
    23    9   31 1   
    24    9   32 1   
    25   11   12 1   
    26   11   15 2   
    27   11   33 1   
    28   12   13 2   
    29   12   34 1   
    30   13   14 1   
    31   13   36 1   
    32   14   15 1   
    33   15   35 1   
    34   16   17 ar  
    35   16   21 ar  
    36   16   42 1   
    37   17   18 ar  
    38   17   37 1   
    39   18   19 ar  
    40   18   39 1   
    41   19   20 ar  
    42   20   21 ar  
    43   20   40 1   
    44   21   38 1   
@<TRIPOS>SUBSTRUCTURE
     1 QC5         1 TEMP              0 ****  ****    0 ROOT
