@<TRIPOS>MOLECULE
QCH
   74    69     1     0     0
SMALL
bcc


@<TRIPOS>ATOM
      1 C1         -0.7020    0.4900    0.1630 c2        1 QCH     -0.340000
      2 C2          4.3750    0.3310    0.6630 c1        1 QCH      0.146000
      3 C3          0.3380   -0.2270    0.6100 c2        1 QCH     -0.033000
      4 C4          3.1080    0.4470    0.9940 c2        1 QCH     -0.413000
      5 C5          3.7050   -2.6730    7.3300 c3        1 QCH     -0.225000
      6 C6          3.1920   -3.0560    8.6190 c1        1 QCH      0.017000
      7 C7          0.9140   -0.2020    1.9310 c2        1 QCH     -0.349000
      8 C8          1.4090   -3.3260    6.4810 c2        1 QCH     -0.209000
      9 C9          2.3650   -0.2960    2.0030 c2        1 QCH      0.032000
     10 C10         2.8140   -2.9640    6.1090 c3        1 QCH     -0.074000
     11 C11         2.1570   -4.0640    8.7090 c2        1 QCH      0.238000
     12 C12         1.0670   -3.7510    7.7260 c2        1 QCH      0.006000
     13 C13        -7.3210   -1.8700    3.3820 c1        1 QCH     -0.075000
     14 C14        -8.4410   -1.0050    3.6540 c3        1 QCH     -0.302500
     15 C15         0.1900   -0.0730    3.1180 c2        1 QCH      0.305000
     16 C19        -5.1320   -0.2580    7.2890 c1        1 QCH     -0.221500
     17 C20        -4.2020   -1.0340    2.9740 c2        1 QCH     -0.127000
     18 C21         1.2080   -7.4170    9.9600 c1        1 QCH     -0.075000
     19 C22        -3.4680   -0.7520    4.0560 c2        1 QCH     -0.240000
     20 C24         3.0570   -1.0470    2.9050 c2        1 QCH     -0.108000
     21 C25         2.8880   -1.7070    5.2100 c3        1 QCH     -0.068000
     22 C26         1.2990   -5.0020    4.1480 c3        1 QCH     -0.081000
     23 C28        -2.0430   -0.4690    4.0690 c2        1 QCH      0.128000
     24 C29         1.3110   -8.8830    6.5180 c1        1 QCH      0.142000
     25 N30        -1.2800   -0.3180    3.0200 n         1 QCH     -0.154000
     26 N31         2.5200   -1.9600    3.8280 n3        1 QCH     -0.260000
     27 O32        -0.6670   -2.5090    5.5700 o         1 QCH     -0.365000
     28 O33         3.4530   -6.4800    6.3970 o         1 QCH     -0.269000
     29 O34         0.5690    0.1460    4.2940 o         1 QCH     -0.436000
     30 O35         0.3050   -3.9930    4.3420 os        1 QCH     -0.239000
     31 O36         1.6950   -7.8530    5.7250 os        1 QCH     -0.257000
     32 O37        -0.1900   -4.0360    8.1730 oh        1 QCH     -0.243000
     33 O38         2.1110   -5.0300    9.4770 o         1 QCH     -0.279000
     34 C18        -5.5690    0.8550    7.3270 c1        1 QCH     -0.221500
     35 C23        -0.1520   -6.9700   10.0280 c3        1 QCH     -0.302500
     36 H1         -1.0630    0.3920   -0.8680 ha        1 QCH      0.102500
     37 H2          2.5060    1.2080    0.4480 ha        1 QCH      0.198000
     38 H3          0.8660   -0.8980   -0.0960 ha        1 QCH      0.117000
     39 H4         -1.2220    1.2490    0.7580 ha        1 QCH      0.102500
     40 H5          3.9380   -1.5660    7.3890 hc        1 QCH      0.167500
     41 H6          4.7070   -3.1850    7.2010 hc        1 QCH      0.167500
     42 H241        4.1630   -1.0160    2.9170 h4        1 QCH      0.133000
     43 H242        2.1850   -4.5530    3.6380 h1        1 QCH      0.105333
     44 H251        3.9570   -1.3470    5.2210 h1        1 QCH      0.098500
     45 H252        2.2450   -0.9010    5.6710 h1        1 QCH      0.098500
     46 H131       -6.5930   -2.2170    5.5140 ha        1 QCH      0.006500
     47 H132       -6.1020   -1.7990    5.2930 ha        1 QCH      0.006500
     48 H141       -5.2910   -1.2580    3.0520 ha        1 QCH      0.155000
     49 H142       -8.7330   -0.5590    2.6600 hc        1 QCH      0.121833
     50 H181       -7.5080   -2.9540    3.3970 ha        1 QCH      0.063500
     51 H182       -5.9530    1.8430    7.3610 ha        1 QCH      0.221500
     52 H201       -8.1190   -0.1540    4.3110 hc        1 QCH      0.121833
     53 H202       -9.3480   -1.4800    4.1050 hc        1 QCH      0.121833
     54 H30        -1.6530   -0.4240    2.0920 hn        1 QCH      0.248000
     55 H271        1.8420   -8.1200    8.6020 hc        1 QCH      0.211500
     56 H272        3.1040   -9.2840    7.8750 hc        1 QCH      0.211500
     57 H191       -3.9310   -0.7350    5.0620 ha        1 QCH      0.159000
     58 H192       -4.7390   -1.2450    7.2710 ha        1 QCH      0.221500
     59 H22        -3.7940   -1.0770    1.9540 ha        1 QCH      0.155000
     60 H211        1.8760   -7.1880   10.8000 ha        1 QCH      0.063500
     61 H212       -0.8430   -3.6630    7.5510 ho        1 QCH      0.246000
     62 H23        -0.5610   -6.7880   11.0540 hc        1 QCH      0.121833
     63 H281       -2.6220   -2.4810    7.1740 ha        1 QCH      0.006500
     64 H282       -2.6840   -2.0260    6.6750 ha        1 QCH      0.006500
     65 H261        1.5930   -5.4850    5.1120 h1        1 QCH      0.105333
     66 H262        1.5210   -2.0360    3.7340 hn        1 QCH      0.175000
     67 H263        0.7900   -5.7440    3.4800 h1        1 QCH      0.105333
     68 H291       -0.1460   -5.9750    9.4770 hc        1 QCH      0.121833
     69 H292       -0.8420   -7.6560    9.4720 hc        1 QCH      0.121833
     70 C27         2.3360   -8.5390    7.6020 c3        1 QCH     -0.432000
     71 H302       -1.5480   -0.3840    5.0710 h4        1 QCH      0.220000
     72 H311        3.2450   -3.8500    5.5530 hc        1 QCH      0.136000
     73 C16         0.3400   -3.2260    5.4660 c2        1 QCH      0.357000
     74 C17         2.7500   -7.4310    6.6490 c2        1 QCH      0.284000
@<TRIPOS>BOND
     1    1    3 1   
     2    1   36 1   
     3    1   39 1   
     4    2    4 1   
     5    3    7 1   
     6    3   38 1   
     7    4    9 1   
     8    4   37 1   
     9    5    6 1   
    10    5   10 1   
    11    5   40 1   
    12    5   41 1   
    13    6   11 1   
    14    7    9 1   
    15    7   15 1   
    16    8   10 1   
    17    8   12 1   
    18    8   73 1   
    19    9   20 1   
    20   10   21 1   
    21   10   72 1   
    22   11   12 1   
    23   11   33 1   
    24   12   32 1   
    25   13   14 1   
    26   13   50 1   
    27   14   49 1   
    28   14   52 1   
    29   14   53 1   
    30   15   25 1   
    31   15   29 1   
    32   16   34 1   
    33   16   58 1   
    34   17   19 1   
    35   17   48 1   
    36   17   59 1   
    37   18   35 1   
    38   18   60 1   
    39   19   23 1   
    40   19   57 1   
    41   20   26 1   
    42   20   42 1   
    43   21   26 1   
    44   21   44 1   
    45   21   45 1   
    46   22   30 1   
    47   22   43 1   
    48   22   65 1   
    49   22   67 1   
    50   23   25 1   
    51   23   71 1   
    52   24   31 1   
    53   24   70 1   
    54   25   54 1   
    55   26   66 1   
    56   27   73 1   
    57   28   74 1   
    58   30   73 1   
    59   31   74 1   
    60   32   61 1   
    61   34   51 1   
    62   35   62 1   
    63   35   68 1   
    64   35   69 1   
    65   46   47 1   
    66   55   70 1   
    67   56   70 1   
    68   63   64 1   
    69   70   74 1   
@<TRIPOS>SUBSTRUCTURE
     1 QCH         1 TEMP              0 ****  ****    0 ROOT
