@<TRIPOS>MOLECULE
QCH
   72    75     1     0     0
SMALL
bcc


@<TRIPOS>ATOM
      1 C1         -5.6500   -3.2510    2.3500 ca        1 QCH     -0.150000
      2 C2         -4.8120   -4.3340    2.0830 ca        1 QCH     -0.136000
      3 C3         -5.5710   -2.1070    1.5620 ca        1 QCH     -0.097000
      4 C4         -3.8930   -4.2590    1.0400 ca        1 QCH     -0.137000
      5 C5          1.7840   -2.6300   -1.1830 ca        1 QCH     -0.147000
      6 C6          3.0840   -2.2490   -0.8740 ca        1 QCH     -0.164000
      7 C7         -4.6460   -2.0270    0.5120 ca        1 QCH     -0.093600
      8 C8          0.9660   -0.3680   -0.7890 ca        1 QCH     -0.059600
      9 C9         -3.7920   -3.1030    0.2520 ca        1 QCH     -0.036300
     10 C10         0.7330   -1.7060   -1.1390 ca        1 QCH     -0.100300
     11 C11         3.3330   -0.9180   -0.5130 ca        1 QCH      0.060100
     12 C12         2.2800    0.0180   -0.4770 ca        1 QCH      0.068100
     13 C13        -3.5210    5.1810    0.7430 c3        1 QCH     -0.074400
     14 C14        -3.5260    3.9810    1.6660 c3        1 QCH     -0.068900
     15 C15        -4.7020   -0.7870   -0.3340 c         1 QCH      0.646700
     16 C17         8.1870    2.4170    1.2100 c         1 QCH      0.908600
     17 C19        -4.0990    3.7050   -1.1840 c3        1 QCH     -0.082400
     18 C20        -3.1910    2.7030    0.9260 c3        1 QCH     -0.082400
     19 C21         3.8850    1.7180   -0.2160 c3        1 QCH      0.094400
     20 C22        -4.0990    2.4850   -0.2730 c3        1 QCH     -0.068700
     21 C24        -2.7790   -3.0720   -0.8620 c3        1 QCH      0.213100
     22 C25        -0.6480   -2.1520   -1.5260 c3        1 QCH      0.225100
     23 C26        -0.8030   -3.5990    0.4350 c3        1 QCH      0.158100
     24 C28        -3.6240    1.2760   -1.0990 c3        1 QCH      0.066000
     25 C29         6.2810    1.0520    0.2880 c3        1 QCH     -0.062400
     26 N30        -3.6110    0.0250   -0.3880 n         1 QCH     -0.515900
     27 N31        -1.4620   -2.6430   -0.4170 n3        1 QCH     -0.723600
     28 O32        -0.8360    0.8100    0.2780 o         1 QCH     -0.836300
     29 O33         8.5400    2.8620    0.0790 o         1 QCH     -0.856300
     30 O34        -5.7680   -0.5340   -0.9540 o         1 QCH     -0.674100
     31 O35        -0.5160    1.1440   -1.8950 o         1 QCH     -0.836300
     32 O36         8.9650    2.3460    2.2050 o         1 QCH     -0.856300
     33 O37         2.5120    1.3320   -0.0990 os        1 QCH     -0.298900
     34 O38         4.6490   -0.5890   -0.2420 os        1 QCH     -0.333900
     35 C18        -4.4590    4.9660   -0.4270 c3        1 QCH     -0.068900
     36 C23         4.8080    0.6850    0.4200 c3        1 QCH      0.103100
     37 H1         -6.3720   -3.3020    3.1770 ha        1 QCH      0.117000
     38 H2         -4.8730   -5.2430    2.6970 ha        1 QCH      0.114000
     39 H3         -6.2430   -1.2550    1.7480 ha        1 QCH      0.140000
     40 H4         -3.2300   -5.1120    0.8300 ha        1 QCH      0.126000
     41 H5          1.5780   -3.6730   -1.4640 ha        1 QCH      0.105000
     42 H6          3.9160   -2.9640   -0.9090 ha        1 QCH      0.126000
     43 H241       -2.7460   -4.1040   -1.3290 h1        1 QCH      0.036200
     44 H242       -3.1380   -2.3590   -1.6590 h1        1 QCH      0.036200
     45 H251       -1.1970   -1.2660   -1.9670 h1        1 QCH      0.043200
     46 H252       -0.5540   -2.9430   -2.3310 h1        1 QCH      0.043200
     47 H131       -3.8260    6.0990    1.3090 hc        1 QCH      0.029700
     48 H132       -2.4800    5.3490    0.3590 hc        1 QCH      0.029700
     49 H141       -2.7800    4.1390    2.4880 hc        1 QCH      0.020450
     50 H142       -4.5370    3.8870    2.1430 hc        1 QCH      0.020450
     51 H181       -5.5130    4.8920   -0.0520 hc        1 QCH      0.020450
     52 H182       -4.4080    5.8470   -1.1180 hc        1 QCH      0.020450
     53 H201       -2.1180    2.7080    0.5820 hc        1 QCH      0.060450
     54 H202       -3.2870    1.8370    1.6330 hc        1 QCH      0.060450
     55 H30        -2.7600   -0.1930    0.1020 hn        1 QCH      0.378500
     56 H271        6.6370    1.4430    2.3920 hc        1 QCH      0.023200
     57 H272        6.0850    2.8780    1.4350 hc        1 QCH      0.023200
     58 H191       -3.0800    3.8200   -1.6410 hc        1 QCH      0.060450
     59 H192       -4.8300    3.5480   -2.0190 hc        1 QCH      0.060450
     60 H22        -5.1490    2.3050    0.0870 hc        1 QCH      0.029700
     61 H211        4.1360    1.8580   -1.2990 h1        1 QCH      0.065200
     62 H212        3.9410    2.6950    0.3300 h1        1 QCH      0.065200
     63 H23         4.5240    0.5370    1.4990 h1        1 QCH      0.053700
     64 H281       -4.2960    1.1800   -1.9980 h1        1 QCH      0.089700
     65 H282       -2.5550    1.4700   -1.4380 h1        1 QCH      0.089700
     66 H261       -0.6240   -4.5940   -0.0650 h1        1 QCH      0.026700
     67 H262        0.1850   -3.1790    0.7600 h1        1 QCH      0.026700
     68 H263       -1.4350   -3.7720    1.3460 h1        1 QCH      0.026700
     69 H291        6.4690    1.5530   -0.6970 hc        1 QCH      0.058200
     70 H292        6.8880    0.1090    0.3030 hc        1 QCH      0.058200
     71 C27         6.7300    1.9620    1.4050 c3        1 QCH     -0.193400
     72 C16        -0.1930    0.6110   -0.7920 c         1 QCH      0.926200
@<TRIPOS>BOND
     1    1    2 ar  
     2    1    3 ar  
     3    1   37 1   
     4    2    4 ar  
     5    2   38 1   
     6    3    7 ar  
     7    3   39 1   
     8    4    9 ar  
     9    4   40 1   
    10    5    6 ar  
    11    5   10 ar  
    12    5   41 1   
    13    6   11 ar  
    14    6   42 1   
    15    7    9 ar  
    16    7   15 1   
    17    8   10 ar  
    18    8   12 ar  
    19    8   72 1   
    20    9   21 1   
    21   10   22 1   
    22   11   12 ar  
    23   11   34 1   
    24   12   33 1   
    25   13   14 1   
    26   13   35 1   
    27   13   47 1   
    28   13   48 1   
    29   14   18 1   
    30   14   49 1   
    31   14   50 1   
    32   15   26 1   
    33   15   30 2   
    34   16   29 1   
    35   16   32 1   
    36   16   71 1   
    37   17   20 1   
    38   17   35 1   
    39   17   58 1   
    40   17   59 1   
    41   18   20 1   
    42   18   53 1   
    43   18   54 1   
    44   19   33 1   
    45   19   36 1   
    46   19   61 1   
    47   19   62 1   
    48   20   24 1   
    49   20   60 1   
    50   21   27 1   
    51   21   43 1   
    52   21   44 1   
    53   22   27 1   
    54   22   45 1   
    55   22   46 1   
    56   23   27 1   
    57   23   66 1   
    58   23   67 1   
    59   23   68 1   
    60   24   26 1   
    61   24   64 1   
    62   24   65 1   
    63   25   36 1   
    64   25   69 1   
    65   25   70 1   
    66   25   71 1   
    67   26   55 1   
    68   28   72 1   
    69   31   72 1   
    70   34   36 1   
    71   35   51 1   
    72   35   52 1   
    73   36   63 1   
    74   56   71 1   
    75   57   71 1   
@<TRIPOS>SUBSTRUCTURE
     1 QCH         1 TEMP              0 ****  ****    0 ROOT
