@<TRIPOS>MOLECULE
QCS
   17    16     1     0     0
SMALL
bcc


@<TRIPOS>ATOM
      1 N          -0.4050    1.3790    0.6070 n3        1 QCS     -0.904800
      2 CA         -0.9980    0.4110   -0.3050 c3        1 QCS      0.011500
      3 CB         -0.2420   -0.9010   -0.3630 c3        1 QCS      0.048700
      4 SG          1.3970   -0.7600   -1.0630 ss        1 QCS     -0.329700
      5 CD          2.3570   -0.1650    0.2770 c         1 QCS      0.687700
      6 NE2         3.5610    0.4120   -0.0940 n         1 QCS     -0.653000
      7 OE1         2.0720   -0.2910    1.4840 o         1 QCS     -0.605100
      8 C          -2.5110    0.0770   -0.0300 c         1 QCS      0.896600
      9 O          -3.1230    0.7820    0.8170 o         1 QCS     -0.833300
     10 OXT        -3.0200   -0.8630   -0.7000 o         1 QCS     -0.833300
     11 H          -1.1290    2.0320    0.8630 hn        1 QCS      0.344300
     12 H2         -0.1200    0.9120    1.4500 hn        1 QCS      0.344300
     13 H4         -0.9760    0.8880   -1.3290 h1        1 QCS      0.053700
     14 H5         -0.1700   -1.3730    0.6450 h1        1 QCS      0.094700
     15 H6         -0.7820   -1.5930   -1.0610 h1        1 QCS      0.094700
     16 H7          3.6410    0.7600   -1.0180 hn        1 QCS      0.291000
     17 H8          4.0660    0.8990    0.6070 hn        1 QCS      0.291000
@<TRIPOS>BOND
     1    1    2 1   
     2    1   11 1   
     3    1   12 1   
     4    2    3 1   
     5    2    8 1   
     6    2   13 1   
     7    3    4 1   
     8    3   14 1   
     9    3   15 1   
    10    4    5 1   
    11    5    6 1   
    12    5    7 2   
    13    6   16 1   
    14    6   17 1   
    15    8    9 1   
    16    8   10 1   
@<TRIPOS>SUBSTRUCTURE
     1 QCS         1 TEMP              0 ****  ****    0 ROOT
