@<TRIPOS>MOLECULE
QCT
   52    55     1     0     0
SMALL
bcc


@<TRIPOS>ATOM
      1 O10        -0.2260    0.1230    0.7840 oh        1 QCT     -0.597800
      2 C23         1.1320    0.0340    0.4060 c3        1 QCT      0.112100
      3 C22         2.0680    0.1080    1.6180 c3        1 QCT      0.096100
      4 O9          1.5730   -0.8110    2.5790 oh        1 QCT     -0.603800
      5 C24         1.3800   -1.2620   -0.3810 c3        1 QCT      0.085100
      6 O11         0.5940   -1.2960   -1.5600 oh        1 QCT     -0.595800
      7 C25         2.8560   -1.3240   -0.8030 c3        1 QCT      0.146100
      8 C26         3.1700   -2.6040   -1.5500 c3        1 QCT     -0.087100
      9 O8          3.6890   -1.3310    0.3640 os        1 QCT     -0.418600
     10 C21         3.5210   -0.2570    1.2500 c3        1 QCT      0.303900
     11 O7          4.0620    0.8890    0.5770 os        1 QCT     -0.348900
     12 C3          5.4030    1.1400    0.8100 cc        1 QCT     -0.067100
     13 C4          5.8350    1.3700    2.2040 c         1 QCT      0.595900
     14 O2          5.0580    1.2560    3.1620 o         1 QCT     -0.541100
     15 C2          6.2460    1.2760   -0.2520 cd        1 QCT      0.172900
     16 C11         5.9280    1.1190   -1.6710 ca        1 QCT     -0.062800
     17 C12         4.6700    1.5060   -2.1500 ca        1 QCT     -0.092000
     18 C13         4.3760    1.3590   -3.5100 ca        1 QCT      0.101100
     19 O5          3.1330    1.7660   -3.9310 oh        1 QCT     -0.489100
     20 C14         5.3450    0.8220   -4.3860 ca        1 QCT      0.061100
     21 O6          4.9750    0.7090   -5.7080 oh        1 QCT     -0.511100
     22 C15         6.5990    0.4390   -3.9000 ca        1 QCT     -0.181000
     23 C16         6.8890    0.5920   -2.5470 ca        1 QCT     -0.088000
     24 O1          7.5810    1.6340   -0.0940 os        1 QCT     -0.213200
     25 C9          8.0540    1.8470    1.1850 ca        1 QCT      0.214100
     26 C8          9.4120    2.1920    1.2460 ca        1 QCT     -0.232000
     27 C7          9.9700    2.4320    2.5070 ca        1 QCT      0.222100
     28 O4         11.2990    2.7670    2.5270 oh        1 QCT     -0.483100
     29 C6          9.2060    2.3330    3.6810 ca        1 QCT     -0.350000
     30 C5          7.8540    1.9850    3.5840 ca        1 QCT      0.251100
     31 C10         7.2450    1.7330    2.3310 ca        1 QCT     -0.280600
     32 O3          7.0610    1.8700    4.6900 oh        1 QCT     -0.450100
     33 H101       -0.3780   -0.5290    1.4810 ho        1 QCT      0.421000
     34 H23         1.3090    0.9280   -0.2560 h1        1 QCT      0.100700
     35 H22         2.0590    1.1520    2.0410 h1        1 QCT      0.078700
     36 HO91        2.0650   -0.6580    3.3950 ho        1 QCT      0.421000
     37 H24         1.1240   -2.1490    0.2640 h1        1 QCT      0.059700
     38 HO11       -0.2790   -0.9580   -1.3170 ho        1 QCT      0.418000
     39 H25         3.1090   -0.4200   -1.4270 h1        1 QCT      0.065700
     40 H262        2.4860   -2.6790   -2.4300 hc        1 QCT      0.050033
     41 H263        4.2300   -2.5980   -1.8950 hc        1 QCT      0.050033
     42 H261        3.0150   -3.4890   -0.8870 hc        1 QCT      0.050033
     43 H21         4.1090   -0.5460    2.1670 h2        1 QCT      0.106700
     44 H12         3.9070    1.9230   -1.4720 ha        1 QCT      0.176000
     45 HO51        3.0450    1.5390   -4.8700 ho        1 QCT      0.439000
     46 HO61        5.7070    0.2970   -6.1890 ho        1 QCT      0.432000
     47 H15         7.3510    0.0200   -4.5840 ha        1 QCT      0.140000
     48 H16         7.8770    0.3000   -2.1610 ha        1 QCT      0.149000
     49 H8         10.0170    2.2750    0.3330 ha        1 QCT      0.176000
     50 HO4        11.5630    2.9110    3.4490 ho        1 QCT      0.428000
     51 H6          9.6630    2.5260    4.6610 ha        1 QCT      0.145000
     52 HO3         7.5960    2.0760    5.4730 ho        1 QCT      0.424000
@<TRIPOS>BOND
     1    1    2 1   
     2    1   33 1   
     3    2    3 1   
     4    2    5 1   
     5    2   34 1   
     6    3    4 1   
     7    3   10 1   
     8    3   35 1   
     9    4   36 1   
    10    5    6 1   
    11    5    7 1   
    12    5   37 1   
    13    6   38 1   
    14    7    8 1   
    15    7    9 1   
    16    7   39 1   
    17    8   40 1   
    18    8   41 1   
    19    8   42 1   
    20    9   10 1   
    21   10   11 1   
    22   10   43 1   
    23   11   12 1   
    24   12   13 1   
    25   12   15 2   
    26   13   14 2   
    27   13   31 1   
    28   15   16 1   
    29   15   24 1   
    30   16   17 ar  
    31   16   23 ar  
    32   17   18 ar  
    33   17   44 1   
    34   18   19 1   
    35   18   20 ar  
    36   19   45 1   
    37   20   21 1   
    38   20   22 ar  
    39   21   46 1   
    40   22   23 ar  
    41   22   47 1   
    42   23   48 1   
    43   24   25 1   
    44   25   26 ar  
    45   25   31 ar  
    46   26   27 ar  
    47   26   49 1   
    48   27   28 1   
    49   27   29 ar  
    50   28   50 1   
    51   29   30 ar  
    52   29   51 1   
    53   30   31 ar  
    54   30   32 1   
    55   32   52 1   
@<TRIPOS>SUBSTRUCTURE
     1 QCT         1 TEMP              0 ****  ****    0 ROOT
