@<TRIPOS>MOLECULE
QCT
   52    55     1     0     0
SMALL
bcc


@<TRIPOS>ATOM
      1 O10         3.9660    2.8100    1.5670 oh        1 QCT     -0.577800
      2 C23         3.0090    2.0300    0.8880 c3        1 QCT      0.160100
      3 C22         1.7390    2.8460    0.6110 c3        1 QCT      0.090100
      4 O9          2.1400    4.0150   -0.0810 oh        1 QCT     -0.597800
      5 C24         3.5800    1.4560   -0.4200 c3        1 QCT      0.083100
      6 O11         4.5340    0.4760   -0.0210 oh        1 QCT     -0.604800
      7 C25         2.5110    0.7650   -1.2850 c3        1 QCT      0.110100
      8 C26         3.0140    0.5470   -2.7010 c3        1 QCT     -0.096100
      9 O8          1.3060    1.5200   -1.4230 os        1 QCT     -0.414600
     10 C21         0.7480    2.0300   -0.2410 c3        1 QCT      0.300900
     11 O7          0.3800    0.9140    0.5740 os        1 QCT     -0.350900
     12 C3         -0.8450    0.3180    0.3270 cc        1 QCT     -0.079100
     13 C4         -2.0580    1.1440    0.3720 c         1 QCT      0.605900
     14 O2         -2.0110    2.3820    0.5180 o         1 QCT     -0.607100
     15 C2         -0.8910   -1.0420    0.1920 cd        1 QCT      0.198900
     16 C11         0.2310   -1.9780    0.1640 ca        1 QCT     -0.088800
     17 C12         1.4260   -1.6690    0.8270 ca        1 QCT     -0.110000
     18 C13         2.5220   -2.5250    0.7080 ca        1 QCT      0.022100
     19 O5          3.7430   -2.2630    1.2960 oh        1 QCT     -0.524100
     20 C14         2.4080   -3.7380   -0.0050 ca        1 QCT      0.138100
     21 O6          3.4450   -4.6260   -0.1230 oh        1 QCT     -0.489100
     22 C15         1.1920   -4.0690   -0.6220 ca        1 QCT     -0.154000
     23 C16         0.1200   -3.1870   -0.5440 ca        1 QCT     -0.076000
     24 O1         -2.0940   -1.7220    0.0740 os        1 QCT     -0.212200
     25 C9         -3.2700   -0.9960    0.0800 ca        1 QCT      0.215100
     26 C8         -4.4200   -1.7780   -0.0680 ca        1 QCT     -0.234000
     27 C7         -5.6600   -1.1210   -0.0620 ca        1 QCT      0.221100
     28 O4         -6.7650   -1.9160   -0.2110 oh        1 QCT     -0.483100
     29 C6         -5.7550    0.2680    0.0890 ca        1 QCT     -0.299000
     30 C5         -4.5830    1.0250    0.2370 ca        1 QCT      0.270100
     31 C10        -3.3070    0.4060    0.2300 ca        1 QCT     -0.334600
     32 O3         -4.7880    2.3640    0.3770 oh        1 QCT     -0.494100
     33 H101        4.1540    3.5820    1.0150 ho        1 QCT      0.415000
     34 H23         2.7630    1.1880    1.5970 h1        1 QCT      0.096700
     35 H22         1.2480    3.1220    1.5860 h1        1 QCT      0.078700
     36 HO91        1.3460    4.5450   -0.2270 ho        1 QCT      0.418000
     37 H24         4.0770    2.2810   -1.0000 h1        1 QCT      0.062700
     38 HO11        5.0660    0.2720   -0.7990 ho        1 QCT      0.408000
     39 H25         2.2530   -0.2230   -0.8050 h1        1 QCT      0.061700
     40 H262        3.9190   -0.1050   -2.6760 hc        1 QCT      0.049033
     41 H263        2.2230    0.0530   -3.3130 hc        1 QCT      0.049033
     42 H261        3.2720    1.5220   -3.1800 hc        1 QCT      0.049033
     43 H21        -0.1330    2.6450   -0.5790 h2        1 QCT      0.115700
     44 H12         1.5180   -0.7490    1.4280 ha        1 QCT      0.167000
     45 HO51        3.8930   -1.3020    1.2420 ho        1 QCT      0.450000
     46 HO61        4.2110   -4.2550    0.3470 ho        1 QCT      0.443000
     47 H15         1.1070   -5.0190   -1.1700 ha        1 QCT      0.159000
     48 H16        -0.8280   -3.4380   -1.0450 ha        1 QCT      0.151000
     49 H8         -4.3580   -2.8680   -0.1810 ha        1 QCT      0.176000
     50 HO4        -7.5530   -1.3510   -0.1860 ho        1 QCT      0.432000
     51 H6         -6.7290    0.7770    0.0960 ha        1 QCT      0.162000
     52 HO3        -3.9420    2.8300    0.4970 ho        1 QCT      0.467000
@<TRIPOS>BOND
     1    1    2 1   
     2    1   33 1   
     3    2    3 1   
     4    2    5 1   
     5    2   34 1   
     6    3    4 1   
     7    3   10 1   
     8    3   35 1   
     9    4   36 1   
    10    5    6 1   
    11    5    7 1   
    12    5   37 1   
    13    6   38 1   
    14    7    8 1   
    15    7    9 1   
    16    7   39 1   
    17    8   40 1   
    18    8   41 1   
    19    8   42 1   
    20    9   10 1   
    21   10   11 1   
    22   10   43 1   
    23   11   12 1   
    24   12   13 1   
    25   12   15 2   
    26   13   14 2   
    27   13   31 1   
    28   15   16 1   
    29   15   24 1   
    30   16   17 ar  
    31   16   23 ar  
    32   17   18 ar  
    33   17   44 1   
    34   18   19 1   
    35   18   20 ar  
    36   19   45 1   
    37   20   21 1   
    38   20   22 ar  
    39   21   46 1   
    40   22   23 ar  
    41   22   47 1   
    42   23   48 1   
    43   24   25 1   
    44   25   26 ar  
    45   25   31 ar  
    46   26   27 ar  
    47   26   49 1   
    48   27   28 1   
    49   27   29 ar  
    50   28   50 1   
    51   29   30 ar  
    52   29   51 1   
    53   30   31 ar  
    54   30   32 1   
    55   32   52 1   
@<TRIPOS>SUBSTRUCTURE
     1 QCT         1 TEMP              0 ****  ****    0 ROOT
