@<TRIPOS>MOLECULE
QCT
   52    55     1     0     0
SMALL
bcc


@<TRIPOS>ATOM
      1 O10        -0.2280    0.1060    0.7800 oh        1 QCT     -0.597800
      2 C23         1.1320    0.0260    0.4050 c3        1 QCT      0.112100
      3 C22         2.0660    0.1340    1.6160 c3        1 QCT      0.096100
      4 O9          1.5810   -0.7740    2.5920 oh        1 QCT     -0.603800
      5 C24         1.3970   -1.2800   -0.3590 c3        1 QCT      0.085100
      6 O11         0.6120   -1.3450   -1.5380 oh        1 QCT     -0.595800
      7 C25         2.8730   -1.3310   -0.7790 c3        1 QCT      0.146100
      8 C26         3.2030   -2.6210   -1.5020 c3        1 QCT     -0.087100
      9 O8          3.7050   -1.3070    0.3890 os        1 QCT     -0.418600
     10 C21         3.5230   -0.2200    1.2550 c3        1 QCT      0.303900
     11 O7          4.0510    0.9200    0.5620 os        1 QCT     -0.348900
     12 C3          5.3880    1.1940    0.7940 cc        1 QCT     -0.067100
     13 C4          5.8130    1.4550    2.1840 c         1 QCT      0.595900
     14 O2          5.0350    1.3480    3.1420 o         1 QCT     -0.541100
     15 C2          6.2320    1.3200   -0.2690 cd        1 QCT      0.172900
     16 C11         5.9200    1.1330   -1.6850 ca        1 QCT     -0.062800
     17 C12         4.6580    1.4950   -2.1740 ca        1 QCT     -0.092000
     18 C13         4.3700    1.3170   -3.5330 ca        1 QCT      0.101100
     19 O5          3.1230    1.7010   -3.9630 oh        1 QCT     -0.489100
     20 C14         5.3480    0.7770   -4.3950 ca        1 QCT      0.061100
     21 O6          4.9830    0.6350   -5.7170 oh        1 QCT     -0.511100
     22 C15         6.6060    0.4200   -3.8990 ca        1 QCT     -0.181000
     23 C16         6.8890    0.6030   -2.5500 ca        1 QCT     -0.088000
     24 O1          7.5610    1.7000   -0.1140 os        1 QCT     -0.213200
     25 C9          8.0280    1.9420    1.1620 ca        1 QCT      0.214100
     26 C8          9.3810    2.3080    1.2190 ca        1 QCT     -0.232000
     27 C7          9.9330    2.5790    2.4770 ca        1 QCT      0.222100
     28 O4         11.2570    2.9320    2.4940 oh        1 QCT     -0.483100
     29 C6          9.1670    2.4910    3.6510 ca        1 QCT     -0.350000
     30 C5          7.8200    2.1240    3.5580 ca        1 QCT      0.251100
     31 C10         7.2180    1.8390    2.3070 ca        1 QCT     -0.280600
     32 O3          7.0250    2.0180    4.6630 oh        1 QCT     -0.450100
     33 H101       -0.3720   -0.5360    1.4890 ho        1 QCT      0.421000
     34 H23         1.2990    0.9110   -0.2730 h1        1 QCT      0.100700
     35 H22         2.0430    1.1850    2.0200 h1        1 QCT      0.078700
     36 HO91        2.0700   -0.6000    3.4060 ho        1 QCT      0.421000
     37 H24         1.1510   -2.1590    0.3010 h1        1 QCT      0.059700
     38 HO11       -0.2660   -1.0130   -1.3020 ho        1 QCT      0.418000
     39 H25         3.1160   -0.4360   -1.4190 h1        1 QCT      0.065700
     40 H262        3.0590   -3.4960   -0.8240 hc        1 QCT      0.050033
     41 H263        2.5220   -2.7200   -2.3810 hc        1 QCT      0.050033
     42 H261        4.2640   -2.6070   -1.8470 hc        1 QCT      0.050033
     43 H21         4.1140   -0.4850    2.1770 h2        1 QCT      0.106700
     44 H12         3.8880    1.9130   -1.5060 ha        1 QCT      0.176000
     45 HO51        3.0390    1.4540   -4.8980 ho        1 QCT      0.439000
     46 HO61        5.7220    0.2240   -6.1870 ho        1 QCT      0.432000
     47 H15         7.3650   -0.0010   -4.5740 ha        1 QCT      0.140000
     48 H16         7.8810    0.3310   -2.1550 ha        1 QCT      0.149000
     49 H8          9.9870    2.3820    0.3060 ha        1 QCT      0.176000
     50 HO4        11.5160    3.0970    3.4140 ho        1 QCT      0.428000
     51 H6          9.6190    2.7080    4.6280 ha        1 QCT      0.145000
     52 HO3         7.5560    2.2460    5.4440 ho        1 QCT      0.424000
@<TRIPOS>BOND
     1    1    2 1   
     2    1   33 1   
     3    2    3 1   
     4    2    5 1   
     5    2   34 1   
     6    3    4 1   
     7    3   10 1   
     8    3   35 1   
     9    4   36 1   
    10    5    6 1   
    11    5    7 1   
    12    5   37 1   
    13    6   38 1   
    14    7    8 1   
    15    7    9 1   
    16    7   39 1   
    17    8   40 1   
    18    8   41 1   
    19    8   42 1   
    20    9   10 1   
    21   10   11 1   
    22   10   43 1   
    23   11   12 1   
    24   12   13 1   
    25   12   15 2   
    26   13   14 2   
    27   13   31 1   
    28   15   16 1   
    29   15   24 1   
    30   16   17 ar  
    31   16   23 ar  
    32   17   18 ar  
    33   17   44 1   
    34   18   19 1   
    35   18   20 ar  
    36   19   45 1   
    37   20   21 1   
    38   20   22 ar  
    39   21   46 1   
    40   22   23 ar  
    41   22   47 1   
    42   23   48 1   
    43   24   25 1   
    44   25   26 ar  
    45   25   31 ar  
    46   26   27 ar  
    47   26   49 1   
    48   27   28 1   
    49   27   29 ar  
    50   28   50 1   
    51   29   30 ar  
    52   29   51 1   
    53   30   31 ar  
    54   30   32 1   
    55   32   52 1   
@<TRIPOS>SUBSTRUCTURE
     1 QCT         1 TEMP              0 ****  ****    0 ROOT
