@<TRIPOS>MOLECULE
QD0
   36    37     1     0     0
SMALL
bcc


@<TRIPOS>ATOM
      1 C01         5.5030    1.3020   -0.0880 c3        1 QD0     -0.133400
      2 C02         4.4210    0.3730    0.2820 cc        1 QD0      0.316600
      3 N03         4.4920   -0.6420    1.1690 nd        1 QD0     -0.356300
      4 O04         3.3250   -1.2470    1.2330 os        1 QD0     -0.130100
      5 C05         2.4050   -0.6210    0.3460 cd        1 QD0      0.244000
      6 C06         1.0690   -1.2250    0.3120 c3        1 QD0     -0.178700
      7 C07         0.0050   -0.2800   -0.2180 c         1 QD0      0.673100
      8 N08        -1.3150   -0.5580    0.1000 n         1 QD0     -0.454800
      9 C09        -2.4190    0.1540   -0.5380 c3        1 QD0      0.030700
     10 C10        -2.8090    1.4340    0.2430 c         1 QD0      0.652100
     11 N11        -1.8660    2.4280    0.3060 n         1 QD0     -0.563900
     12 C12        -2.0910    3.6680    0.9770 c3        1 QD0      0.077300
     13 O13        -3.9380    1.5560    0.7600 o         1 QD0     -0.619100
     14 C14        -3.6090   -0.8220   -0.6210 c3        1 QD0     -0.088400
     15 C15        -3.2120   -2.0640    0.1860 c3        1 QD0      0.132100
     16 C17        -1.7430   -1.8360    0.6330 c3        1 QD0      0.048000
     17 O18         0.2830    0.7330   -0.8950 o         1 QD0     -0.619100
     18 C19         3.0660    0.4140   -0.2780 cc        1 QD0     -0.317600
     19 O16        -3.3050   -3.1830   -0.6750 oh        1 QD0     -0.590800
     20 H011        5.6980    1.2280   -1.1870 hc        1 QD0      0.058700
     21 H012        5.1900    2.3500    0.1490 hc        1 QD0      0.058700
     22 H013        6.4520    1.0800    0.4600 hc        1 QD0      0.058700
     23 H19         2.6810    1.1190   -1.0110 ha        1 QD0      0.195000
     24 H061        1.0930   -2.1280   -0.3640 hc        1 QD0      0.094700
     25 H062        0.8040   -1.5800    1.3470 hc        1 QD0      0.094700
     26 H09        -2.1090    0.4780   -1.5760 h1        1 QD0      0.088700
     27 H171       -1.0950   -2.6740    0.2550 h1        1 QD0      0.055700
     28 H172       -1.6760   -1.8040    1.7560 h1        1 QD0      0.055700
     29 H141       -4.5380   -0.3620   -0.2000 hc        1 QD0      0.092200
     30 H142       -3.8000   -1.1030   -1.6880 hc        1 QD0      0.092200
     31 H11        -0.9830    2.2930   -0.1360 hn        1 QD0      0.337500
     32 H121       -3.1170    3.6870    1.4320 h1        1 QD0      0.044033
     33 H122       -1.3280    3.8090    1.7890 h1        1 QD0      0.044033
     34 H123       -2.0000    4.5200    0.2490 h1        1 QD0      0.044033
     35 H15        -3.8730   -2.2020    1.0820 h1        1 QD0      0.060700
     36 H16        -3.2300   -3.9720   -0.1250 ho        1 QD0      0.404000
@<TRIPOS>BOND
     1    1    2 1   
     2    1   20 1   
     3    1   21 1   
     4    1   22 1   
     5    2    3 2   
     6    2   18 1   
     7    3    4 1   
     8    4    5 1   
     9    5    6 1   
    10    5   18 2   
    11    6    7 1   
    12    6   24 1   
    13    6   25 1   
    14    7    8 1   
    15    7   17 2   
    16    8    9 1   
    17    8   16 1   
    18    9   10 1   
    19    9   14 1   
    20    9   26 1   
    21   10   11 1   
    22   10   13 2   
    23   11   12 1   
    24   11   31 1   
    25   12   32 1   
    26   12   33 1   
    27   12   34 1   
    28   14   15 1   
    29   14   29 1   
    30   14   30 1   
    31   15   16 1   
    32   15   19 1   
    33   15   35 1   
    34   16   27 1   
    35   16   28 1   
    36   18   23 1   
    37   19   36 1   
@<TRIPOS>SUBSTRUCTURE
     1 QD0         1 TEMP              0 ****  ****    0 ROOT
