@<TRIPOS>MOLECULE
QD0
   37    38     1     0     0
SMALL
bcc


@<TRIPOS>ATOM
      1 C01         0.2020    0.2050    0.5410 c3        1 QD0     -0.140400
      2 C02         1.6360    0.4040    0.2670 cc        1 QD0      0.325600
      3 N03         2.5630    0.8960    1.1170 nd        1 QD0     -0.329300
      4 O04         3.7370    0.9080    0.5260 os        1 QD0     -0.103100
      5 C05         3.6180    0.4060   -0.7950 cd        1 QD0      0.215000
      6 C06         4.8500    0.3120   -1.5820 c3        1 QD0     -0.164700
      7 C07         5.3800    1.6720   -1.9870 c         1 QD0      0.675100
      8 N08         6.3520    1.7540   -2.9950 n         1 QD0     -0.474800
      9 C09         7.2090    2.9280   -3.0710 c3        1 QD0      0.040700
     10 C10         6.6170    4.0390   -3.9540 c         1 QD0      0.528100
     11 N11         5.2400    4.5150   -3.5540 ny        1 QD0     -0.671800
     12 C12         4.8670    5.8220   -4.1310 c3        1 QD0      0.081100
     13 O13         7.1490    4.6030   -4.8940 o         1 QD0     -0.404100
     14 C14         8.5820    2.4930   -3.6300 c3        1 QD0     -0.098400
     15 C15         8.5030    0.9720   -3.8330 c3        1 QD0      0.137100
     16 C17         7.0400    0.5750   -3.5030 c3        1 QD0      0.035000
     17 O18         4.9550    2.7440   -1.5080 o         1 QD0     -0.626100
     18 C19         2.2960    0.0730   -1.0020 cc        1 QD0     -0.320600
     19 O16         9.3810    0.3780   -2.9000 oh        1 QD0     -0.583800
     20 H011        0.0040   -0.8830    0.7170 hc        1 QD0      0.067700
     21 H012       -0.4000    0.5410   -0.3390 hc        1 QD0      0.067700
     22 H013       -0.1320    0.7740    1.4450 hc        1 QD0      0.067700
     23 H19         1.8140   -0.3500   -1.8760 ha        1 QD0      0.179000
     24 H061        5.6490   -0.1910   -0.9620 hc        1 QD0      0.108200
     25 H062        4.6570   -0.3180   -2.4940 hc        1 QD0      0.108200
     26 H09         7.3340    3.3960   -2.0440 h1        1 QD0      0.116700
     27 H171        6.5060    0.2290   -4.4300 h1        1 QD0      0.078700
     28 H172        7.0410   -0.2580   -2.7470 h1        1 QD0      0.078700
     29 H141        8.8220    3.0050   -4.5930 hc        1 QD0      0.105700
     30 H142        9.3840    2.7390   -2.8850 hc        1 QD0      0.105700
     31 H11         4.5640    3.7970   -3.8440 hn        1 QD0      0.479300
     32 H121        5.5860    6.6070   -3.7730 hx        1 QD0      0.110700
     33 H122        3.8250    6.0830   -3.8040 hx        1 QD0      0.110700
     34 H123        4.9150    5.7690   -5.2520 hx        1 QD0      0.110700
     35 H15         8.7630    0.6830   -4.8850 h1        1 QD0      0.077700
     36 H16         9.6830   -0.4610   -3.2700 ho        1 QD0      0.427000
     37 H112        5.2000    4.5530   -2.5180 hn        1 QD0      0.479300
@<TRIPOS>BOND
     1    1    2 1   
     2    1   20 1   
     3    1   21 1   
     4    1   22 1   
     5    2    3 2   
     6    2   18 1   
     7    3    4 1   
     8    4    5 1   
     9    5    6 1   
    10    5   18 2   
    11    6    7 1   
    12    6   24 1   
    13    6   25 1   
    14    7    8 1   
    15    7   17 2   
    16    8    9 1   
    17    8   16 1   
    18    9   10 1   
    19    9   14 1   
    20    9   26 1   
    21   10   11 1   
    22   10   13 2   
    23   11   12 1   
    24   11   31 1   
    25   11   37 1   
    26   12   32 1   
    27   12   33 1   
    28   12   34 1   
    29   14   15 1   
    30   14   29 1   
    31   14   30 1   
    32   15   16 1   
    33   15   19 1   
    34   15   35 1   
    35   16   27 1   
    36   16   28 1   
    37   18   23 1   
    38   19   36 1   
@<TRIPOS>SUBSTRUCTURE
     1 QD0         1 TEMP              0 ****  ****    0 ROOT
