@<TRIPOS>MOLECULE
QD0
   37    38     1     0     0
SMALL
bcc


@<TRIPOS>ATOM
      1 C01         0.3000    0.1220    0.6530 c3        1 QD0     -0.140400
      2 C02         1.7240    0.3280    0.3350 cc        1 QD0      0.325600
      3 N03         2.6820    0.7880    1.1680 nd        1 QD0     -0.329300
      4 O04         3.8350    0.8170    0.5380 os        1 QD0     -0.103100
      5 C05         3.6680    0.3600   -0.7950 cd        1 QD0      0.215000
      6 C06         4.8720    0.2910   -1.6280 c3        1 QD0     -0.164700
      7 C07         5.3920    1.6620   -2.0040 c         1 QD0      0.675100
      8 N08         6.3290    1.7760   -3.0420 n         1 QD0     -0.474800
      9 C09         7.1860    2.9490   -3.1090 c3        1 QD0      0.040700
     10 C10         6.5680    4.0910   -3.9320 c         1 QD0      0.528100
     11 N11         5.2080    4.5570   -3.4680 n4        1 QD0     -0.671800
     12 C12         4.8190    5.8840   -3.9870 c3        1 QD0      0.081100
     13 O13         7.0690    4.6860   -4.8710 o         1 QD0     -0.404100
     14 C14         8.5370    2.5300   -3.7290 c3        1 QD0     -0.098400
     15 C15         8.4460    1.0180   -3.9810 c3        1 QD0      0.137100
     16 C17         6.9930    0.6130   -3.6140 c3        1 QD0      0.035000
     17 O18         4.9870    2.7180   -1.4750 o         1 QD0     -0.626100
     18 C19         2.3390    0.0380   -0.9660 cc        1 QD0     -0.320600
     19 O16         9.3540    0.3900   -3.1000 oh        1 QD0     -0.583800
     20 H011       -0.0000    0.6630    1.5850 hc        1 QD0      0.067700
     21 H012       -0.3310    0.4880   -0.1950 hc        1 QD0      0.067700
     22 H013        0.1050   -0.9700    0.8000 hc        1 QD0      0.067700
     23 H19         1.8240   -0.3540   -1.8370 ha        1 QD0      0.179000
     24 H061        5.6900   -0.2350   -1.0530 hc        1 QD0      0.108200
     25 H062        4.6450   -0.3080   -2.5520 hc        1 QD0      0.108200
     26 H09         7.3490    3.3820   -2.0710 h1        1 QD0      0.116700
     27 H171        7.0180   -0.2450   -2.8870 h1        1 QD0      0.078700
     28 H172        6.4260    0.3000   -4.5330 h1        1 QD0      0.078700
     29 H141        8.7460    3.0740   -4.6830 hc        1 QD0      0.105700
     30 H142        9.3660    2.7490   -3.0060 hc        1 QD0      0.105700
     31 H11         5.2040    4.5600   -2.4300 hn        1 QD0      0.479300
     32 H121        4.8280    5.8690   -5.1110 hx        1 QD0      0.110700
     33 H122        3.7890    6.1360   -3.6150 hx        1 QD0      0.110700
     34 H123        5.5530    6.6550   -3.6280 hx        1 QD0      0.110700
     35 H15         8.6680    0.7640   -5.0500 h1        1 QD0      0.077700
     36 H16         9.6390   -0.4370   -3.5080 ho        1 QD0      0.427000
     37 H112        4.5190    3.8500   -3.7590 hn        1 QD0      0.479300
@<TRIPOS>BOND
     1    1    2 1   
     2    1   20 1   
     3    1   21 1   
     4    1   22 1   
     5    2    3 2   
     6    2   18 1   
     7    3    4 1   
     8    4    5 1   
     9    5    6 1   
    10    5   18 2   
    11    6    7 1   
    12    6   24 1   
    13    6   25 1   
    14    7    8 1   
    15    7   17 2   
    16    8    9 1   
    17    8   16 1   
    18    9   10 1   
    19    9   14 1   
    20    9   26 1   
    21   10   11 1   
    22   10   13 2   
    23   11   12 1   
    24   11   31 1   
    25   11   37 1   
    26   12   32 1   
    27   12   33 1   
    28   12   34 1   
    29   14   15 1   
    30   14   29 1   
    31   14   30 1   
    32   15   16 1   
    33   15   19 1   
    34   15   35 1   
    35   16   27 1   
    36   16   28 1   
    37   18   23 1   
    38   19   36 1   
@<TRIPOS>SUBSTRUCTURE
     1 QD0         1 TEMP              0 ****  ****    0 ROOT
