@<TRIPOS>MOLECULE
QDK
   20    19     1     0     0
SMALL
bcc


@<TRIPOS>ATOM
      1 C1         -2.0690   -0.8580   -0.6930 c3        1 QDK      0.038400
      2 O1         -3.4250   -0.9820   -0.3270 oh        1 QDK     -0.587800
      3 C2         -1.3620    0.2480    0.0420 c         1 QDK      0.519100
      4 O2         -1.8480    0.8060    1.0310 o         1 QDK     -0.534100
      5 C3          0.0090    0.6420   -0.4770 c3        1 QDK      0.047100
      6 O3          0.2940    1.9980   -0.1960 oh        1 QDK     -0.585800
      7 C4          1.0930   -0.2590    0.1490 c3        1 QDK      0.119100
      8 O4          0.7840   -1.5970   -0.2070 oh        1 QDK     -0.612800
      9 C5          2.4710    0.1460   -0.3840 c3        1 QDK      0.095400
     10 O5          3.4040   -0.7100    0.2580 oh        1 QDK     -0.615800
     11 H1         -1.5180   -1.8210   -0.4950 h1        1 QDK      0.085700
     12 H1A        -2.0800   -0.6530   -1.7980 h1        1 QDK      0.085700
     13 HO1        -3.4850   -0.8620    0.6310 ho        1 QDK      0.417000
     14 H3          0.0430    0.5610   -1.6000 h1        1 QDK      0.101700
     15 HO3         0.0130    2.1750    0.7150 ho        1 QDK      0.423000
     16 H4          1.0780   -0.1560    1.2700 h1        1 QDK      0.059700
     17 HO4         1.5480   -2.1330    0.0500 ho        1 QDK      0.433000
     18 H5          2.5180   -0.0010   -1.4950 h1        1 QDK      0.048200
     19 H5A         2.6740    1.2200   -0.1330 h1        1 QDK      0.048200
     20 HO5         4.2800   -0.4430   -0.0430 ho        1 QDK      0.414000
@<TRIPOS>BOND
     1    1    2 1   
     2    1    3 1   
     3    1   11 1   
     4    1   12 1   
     5    2   13 1   
     6    3    4 2   
     7    3    5 1   
     8    5    6 1   
     9    5    7 1   
    10    5   14 1   
    11    6   15 1   
    12    7    8 1   
    13    7    9 1   
    14    7   16 1   
    15    8   17 1   
    16    9   10 1   
    17    9   18 1   
    18    9   19 1   
    19   10   20 1   
@<TRIPOS>SUBSTRUCTURE
     1 QDK         1 TEMP              0 ****  ****    0 ROOT
