@<TRIPOS>MOLECULE
QDK
   20    19     1     0     0
SMALL
bcc


@<TRIPOS>ATOM
      1 C1          1.8630   -0.3880   -1.7770 c3        1 QDK      0.038400
      2 O1          3.2730   -0.3520   -1.7930 oh        1 QDK     -0.587800
      3 C2          1.3730   -0.3440   -0.3460 c         1 QDK      0.519100
      4 O2          2.1540   -0.1190    0.5560 o         1 QDK     -0.534100
      5 C3         -0.0890   -0.5810   -0.0400 c3        1 QDK      0.047100
      6 O3         -0.2460   -1.8520    0.5430 oh        1 QDK     -0.585800
      7 C4         -0.5790    0.4780    0.9210 c3        1 QDK      0.119100
      8 O4         -0.1780    1.7480    0.4650 oh        1 QDK     -0.612800
      9 C5         -2.0880    0.4250    1.0020 c3        1 QDK      0.095400
     10 O5         -2.5370    1.3160    1.9980 oh        1 QDK     -0.615800
     11 H1          1.5520   -1.2140   -2.2030 h1        1 QDK      0.085700
     12 H1A         1.5110    0.3840   -2.2660 h1        1 QDK      0.085700
     13 HO1         3.5630   -0.4750   -2.6240 ho        1 QDK      0.417000
     14 H3         -0.6070   -0.5350   -0.8680 h1        1 QDK      0.101700
     15 HO3        -0.5240   -2.4290   -0.0750 ho        1 QDK      0.423000
     16 H4         -0.2000    0.3150    1.8070 h1        1 QDK      0.059700
     17 HO4        -0.0060    2.2730    1.1620 ho        1 QDK      0.433000
     18 H5         -2.3710   -0.4860    1.2260 h1        1 QDK      0.048200
     19 H5A        -2.4710    0.6820    0.1370 h1        1 QDK      0.048200
     20 HO5        -3.3930    1.1540    2.1770 ho        1 QDK      0.414000
@<TRIPOS>BOND
     1    1    2 1   
     2    1    3 1   
     3    1   11 1   
     4    1   12 1   
     5    2   13 1   
     6    3    4 2   
     7    3    5 1   
     8    5    6 1   
     9    5    7 1   
    10    5   14 1   
    11    6   15 1   
    12    7    8 1   
    13    7    9 1   
    14    7   16 1   
    15    8   17 1   
    16    9   10 1   
    17    9   18 1   
    18    9   19 1   
    19   10   20 1   
@<TRIPOS>SUBSTRUCTURE
     1 QDK         1 TEMP              0 ****  ****    0 ROOT
