@<TRIPOS>MOLECULE
QDO
   24    24     1     0     0
SMALL
bcc


@<TRIPOS>ATOM
      1 O3          0.8000    0.3170   -0.8820 o         1 QDO     -0.541700
      2 N3          1.9540    0.1150   -0.5340 na        1 QDO      0.523700
      3 C2          2.2670    0.0520    0.8680 c2        1 QDO     -0.195000
      4 C1          1.1550    0.2570    1.8290 c3        1 QDO     -0.173000
      5 C11         3.5750   -0.1970    1.3050 c2        1 QDO      0.128000
      6 C12         3.9320   -0.2590    2.7510 c3        1 QDO     -0.215000
      7 C4          2.9580   -0.0610   -1.4450 c2        1 QDO     -0.224000
      8 C5          0.6460    0.4050   -3.3490 c1        1 QDO      0.132000
      9 C6         -0.6270    0.6840   -3.3420 c2        1 QDO     -0.521000
     10 C7          6.5060   -0.6850   -0.6550 c1        1 QDO      0.034000
     11 C8          5.5240   -0.5000   -1.6900 c2        1 QDO     -0.350000
     12 C9          4.2940   -0.3060   -1.0290 c2        1 QDO      0.110000
     13 N10         4.5520   -0.3830    0.3620 na        1 QDO     -0.133000
     14 O10         5.9110   -0.6050    0.5410 os        1 QDO     -0.011000
     15 H2          1.2770   -0.4050    2.7210 h1        1 QDO      0.149000
     16 H3          0.1610    0.0450    1.3560 h1        1 QDO      0.149000
     17 H5          5.0150   -0.0240    2.9120 h1        1 QDO      0.157000
     18 H6          3.3170    0.4690    3.3370 h1        1 QDO      0.157000
     19 H8          2.6760   -0.0000   -2.5190 h4        1 QDO      0.253000
     20 H9         -1.1870    0.7920   -2.3950 ha        1 QDO      0.190500
     21 H10        -1.2440    0.8330   -4.2390 ha        1 QDO      0.190500
     22 H11         5.7020   -0.5130   -2.7590 ha        1 QDO      0.194000
     23 BR1         3.6340   -2.0070    3.4980 br        1 QDO      0.019000
     24 BR2         1.0580    2.0720    2.4820 br        1 QDO     -0.021000
@<TRIPOS>BOND
     1    1    2 2   
     2    2    3 1   
     3    2    7 1   
     4    3    4 1   
     5    3    5 1   
     6    4   15 1   
     7    4   16 1   
     8    4   24 1   
     9    5    6 1   
    10    5   13 1   
    11    6   17 1   
    12    6   18 1   
    13    6   23 1   
    14    7   12 1   
    15    7   19 1   
    16    8    9 1   
    17    9   20 1   
    18    9   21 1   
    19   10   11 1   
    20   10   14 1   
    21   11   12 1   
    22   11   22 1   
    23   12   13 1   
    24   13   14 1   
@<TRIPOS>SUBSTRUCTURE
     1 QDO         1 TEMP              0 ****  ****    0 ROOT
