@<TRIPOS>MOLECULE
QDO
   24    23     1     0     0
SMALL
bcc


@<TRIPOS>ATOM
      1 O3          0.6710    0.4260   -0.6180 o         1 QDO     -0.562700
      2 N3          1.8110    0.1760   -0.2560 na        1 QDO      0.521700
      3 C2          2.1540    0.1280    1.1090 c2        1 QDO     -0.204000
      4 C1          1.0940    0.3980    2.1100 c3        1 QDO     -0.169000
      5 C11         3.4930   -0.1810    1.4730 c2        1 QDO      0.058000
      6 C12         3.8690   -0.2280    2.9210 c3        1 QDO     -0.191000
      7 C4          2.8150   -0.0850   -1.1740 c2        1 QDO     -0.252000
      8 C5          0.9260    0.3920   -3.7350 c1        1 QDO      0.124000
      9 C6         -0.3180    0.7470   -3.6030 c2        1 QDO     -0.527000
     10 C7          6.3830   -0.9430   -1.4940 c1        1 QDO      0.342000
     11 C8          5.1210   -0.6420   -1.7660 c2        1 QDO     -0.350000
     12 C9          4.1300   -0.3840   -0.7430 c2        1 QDO      0.138000
     13 N10         4.4690   -0.4340    0.5730 n2        1 QDO     -0.185000
     14 O10         7.5180   -1.2140   -1.2960 o         1 QDO     -0.110000
     15 H2          1.2310   -0.2420    3.0140 h1        1 QDO      0.145000
     16 H3          0.0720    0.2150    1.6880 h1        1 QDO      0.145000
     17 H5          4.9590   -0.0240    3.0660 h1        1 QDO      0.143500
     18 H6          3.2830    0.5180    3.5090 h1        1 QDO      0.143500
     19 H8          2.5280   -0.0420   -2.2450 h4        1 QDO      0.223000
     20 H9         -0.7500    0.8650   -2.5870 ha        1 QDO      0.203500
     21 H10        -1.0320    0.9570   -4.4100 ha        1 QDO      0.203500
     22 H11         4.7990   -0.5830   -2.8180 ha        1 QDO      0.202000
     23 Br1         3.5380   -1.9630    3.6940 br        1 QDO     -0.010000
     24 Br2         1.0920    2.2350    2.7150 br        1 QDO     -0.032000
@<TRIPOS>BOND
     1    1    2 2   
     2    2    3 1   
     3    2    7 1   
     4    3    4 1   
     5    3    5 1   
     6    4   15 1   
     7    4   16 1   
     8    4   24 1   
     9    5    6 1   
    10    5   13 1   
    11    6   17 1   
    12    6   18 1   
    13    6   23 1   
    14    7   12 1   
    15    7   19 1   
    16    8    9 1   
    17    9   20 1   
    18    9   21 1   
    19   10   11 1   
    20   10   14 1   
    21   11   12 1   
    22   11   22 1   
    23   12   13 1   
@<TRIPOS>SUBSTRUCTURE
     1 QDO         1 TEMP              0 ****  ****    0 ROOT
