@<TRIPOS>MOLECULE
QDO
   24    25     1     0     0
SMALL
bcc


@<TRIPOS>ATOM
      1 O3          1.1350   -2.1880    1.5220 o         1 QDO     -0.550700
      2 N3          1.1150   -1.1890    0.8160 na        1 QDO      0.522300
      3 C2         -0.0530   -0.5920    0.4080 ca        1 QDO     -0.149600
      4 C1         -1.3430   -1.2010    0.8320 c3        1 QDO      0.037300
      5 C11        -0.0490    0.5920   -0.4090 ca        1 QDO     -0.149600
      6 C12        -1.3350    1.2090   -0.8340 c3        1 QDO      0.037300
      7 C4          2.3460   -0.5900    0.4040 ca        1 QDO     -0.073300
      8 C5          3.5830   -1.1670    0.8010 ca        1 QDO     -0.087000
      9 C6          4.7710   -0.5930    0.4020 ca        1 QDO     -0.109000
     10 C7          4.7750    0.5650   -0.4000 ca        1 QDO     -0.109000
     11 C8          3.5910    1.1460   -0.8000 ca        1 QDO     -0.087000
     12 C9          2.3500    0.5770   -0.4040 ca        1 QDO     -0.073300
     13 N10         1.1220    1.1830   -0.8170 na        1 QDO      0.240600
     14 O10         1.1490    2.1820   -1.5220 o         1 QDO     -0.269000
     15 H2         -1.2150   -1.8190    1.7590 h1        1 QDO      0.111200
     16 H3         -2.1090   -0.4140    1.0280 h1        1 QDO      0.111200
     17 H5         -1.2040    1.8260   -1.7600 h1        1 QDO      0.111200
     18 H6         -2.1060    0.4260   -1.0300 h1        1 QDO      0.111200
     19 H8          3.5670   -2.0750    1.4290 ha        1 QDO      0.182000
     20 H9          5.7290   -1.0410    0.7100 ha        1 QDO      0.153000
     21 H10         5.7350    1.0070   -0.7080 ha        1 QDO      0.153000
     22 H11         3.5800    2.0540   -1.4280 ha        1 QDO      0.182000
     23 BR1        -2.0570    2.4050    0.5000 br        1 QDO     -0.148400
     24 BR2        -2.0710   -2.3930   -0.5020 br        1 QDO     -0.148400
@<TRIPOS>BOND
     1    1    2 2   
     2    2    3 1   
     3    2    7 2   
     4    3    4 1   
     5    3    5 ar  
     6    4   15 1   
     7    4   16 1   
     8    4   24 1   
     9    5    6 1   
    10    5   13 1   
    11    6   17 1   
    12    6   18 1   
    13    6   23 1   
    14    7    8 ar  
    15    7   12 ar  
    16    8    9 ar  
    17    8   19 1   
    18    9   10 ar  
    19    9   20 1   
    20   10   11 ar  
    21   10   21 1   
    22   11   12 ar  
    23   11   22 1   
    24   12   13 2   
    25   13   14 1   
@<TRIPOS>SUBSTRUCTURE
     1 QDO         1 TEMP              0 ****  ****    0 ROOT
