@<TRIPOS>MOLECULE
QDR
   32    38     1     0     0
SMALL
bcc


@<TRIPOS>ATOM
      1 CAA         0.0000    0.0000    0.0000 c3        1 QDR     -0.146000
      2 OAC         4.4510    0.0020   -4.1640 o         1 QDR     -0.324000
      3 CAD         3.7840    0.0000    0.0000 c3        1 QDR      0.433000
      4 CAE         2.4640    0.0000    0.4270 c2        1 QDR     -0.095000
      5 CAF         4.0860   -0.0000   -1.3440 c3        1 QDR      0.332000
      6 CAG        -0.1740    0.0050   -5.0160 c3        1 QDR     -0.240000
      7 NAH        -4.2250    0.0040   -5.3240 na        1 QDR     -0.187000
      8 NAI        -2.5750   -0.0030   -6.7140 n2        1 QDR     -0.291000
      9 NAJ         0.7210    0.0030   -2.7780 n2        1 QDR     -0.112000
     10 NAK        -4.7290    0.0050   -6.6360 n2        1 QDR     -0.100000
     11 NAL         2.2430    0.0040   -4.5530 ns        1 QDR     -0.115000
     12 SAM        -1.7320    0.0040   -4.0950 ss        1 QDR      0.263000
     13 CAN         1.4280    0.0010   -0.4810 c2        1 QDR     -0.148000
     14 CAO        -3.6960    0.0010   -7.4420 c2        1 QDR      0.088000
     15 CAP         0.9810    0.0040   -4.0500 c3        1 QDR      0.128000
     16 CAQ        -2.8790    0.0040   -5.4320 c2        1 QDR     -0.022000
     17 CAR         3.3150    0.0030   -3.7260 c2        1 QDR      0.362000
     18 CAS         3.0540    0.0020   -2.2790 c2        1 QDR     -0.291000
     19 CAT         1.7090    0.0020   -1.8490 c2        1 QDR     -0.017000
     20 HAA        -0.4780   -0.1640   -0.9580 hc        1 QDR      0.098667
     21 HAAA       -0.5040    0.8870   -0.3640 hc        1 QDR      0.098667
     22 HAAB       -0.0160   -0.0050    1.0830 hc        1 QDR      0.098667
     23 HNAB       -3.4000   -0.1010   -7.9070 hn        1 QDR      0.107500
     24 HNAA       -4.2870   -0.7750   -8.4820 hn        1 QDR      0.107500
     25 HAD         3.0930   -0.1950   -0.8110 DU        1 QDR      0.123000
     26 HAE         3.5360   -0.0000    0.5810 DU        1 QDR      0.226000
     27 HAF         3.4960   -0.0000   -0.4360 DU        1 QDR     -0.736000
     28 HAG         0.7420    0.0040   -4.4380 h1        1 QDR      0.030500
     29 HAGA       -0.1230   -0.8790   -5.6410 h1        1 QDR      0.030500
     30 HNAL        1.3830    0.3280   -4.9490 DU        1 QDR      0.256000
     31 HNAH       -3.2240    0.0040   -5.3580 hn        1 QDR      0.210000
     32 NAB        -3.7570   -0.0040   -8.8370 nv        1 QDR     -0.168000
@<TRIPOS>BOND
     1    1   13 1   
     2    1   20 1   
     3    1   21 1   
     4    1   22 1   
     5    2   17 1   
     6    3    4 1   
     7    3    5 1   
     8    3   25 1   
     9    3   26 1   
    10    4   13 1   
    11    4   26 1   
    12    5   18 1   
    13    5   25 1   
    14    5   27 1   
    15    6   12 1   
    16    6   15 1   
    17    6   28 1   
    18    6   29 1   
    19    7   10 1   
    20    7   16 1   
    21    7   31 1   
    22    8   14 1   
    23    8   16 1   
    24    9   15 1   
    25    9   19 1   
    26   10   14 1   
    27   11   15 1   
    28   11   17 1   
    29   11   30 1   
    30   12   16 1   
    31   13   19 1   
    32   14   32 1   
    33   15   30 1   
    34   17   18 1   
    35   18   19 1   
    36   23   32 1   
    37   24   32 1   
    38   25   27 1   
@<TRIPOS>SUBSTRUCTURE
     1 QDR         1 TEMP              0 ****  ****    0 ROOT
