@<TRIPOS>MOLECULE
QDR
   32    30     1     0     0
SMALL
bcc


@<TRIPOS>ATOM
      1 CAA        -0.7750   -0.4230    4.1900 c3        1 QDR     -0.174000
      2 NAB        -3.0580    0.2130   -6.5930 nh        1 QDR     -0.274000
      3 OAC         3.9890   -0.4050    0.2730 o         1 QDR     -0.343000
      4 CAD         2.9420   -0.3380    4.3520 c1        1 QDR     -0.105000
      5 CAE         1.5900   -0.3120    4.6710 c1        1 QDR     -0.101000
      6 CAF         3.3400   -0.3670    3.0220 c1        1 QDR     -0.105000
      7 CAG        -0.5860   -0.4330   -1.2290 c3        1 QDR     -0.255000
      8 NAH        -2.9380    1.8340   -3.4530 n2        1 QDR     -0.166000
      9 NAI        -1.7280    0.3630   -4.4950 n2        1 QDR     -0.204000
     10 NAJ         0.0410   -0.3490    1.2530 n1        1 QDR     -0.172000
     11 NAK        -3.5120    1.5910   -4.6440 n2        1 QDR     -0.129000
     12 NAL         1.8440   -0.4080   -0.4630 n         1 QDR     -0.334000
     13 SAM        -0.5050    1.0550   -2.1900 ss        1 QDR      0.304000
     14 CAN         0.6380   -0.3140    3.6620 c2        1 QDR     -0.049000
     15 CAO        -2.7650    0.6820   -5.2870 c2        1 QDR      0.005000
     16 CAP         0.4540   -0.3820   -0.1310 c2        1 QDR      0.117000
     17 CAQ        -1.8360    1.0750   -3.3620 c2        1 QDR     -0.194000
     18 CAR         2.8080   -0.4030    0.5550 c2        1 QDR      0.346000
     19 CAS         2.3770   -0.3690    1.9990 c1        1 QDR     -0.157000
     20 CAT         1.0410   -0.3430    2.3150 c1        1 QDR      0.031000
     21 HAA        -1.0990    0.4660    4.4450 hc        1 QDR      0.091000
     22 HAAA       -0.7860   -1.0120    4.9740 hc        1 QDR      0.091000
     23 HAAB       -1.3560   -0.7960    3.4940 hc        1 QDR      0.091000
     24 HNAB       -3.8750    0.3820   -6.9660 hn        1 QDR      0.197500
     25 HNAA       -2.4280   -0.2530   -7.0630 hn        1 QDR      0.197500
     26 HAD         3.6110   -0.3360    5.0620 ha        1 QDR      0.150500
     27 HAE         1.3100   -0.2910    5.6060 ha        1 QDR      0.139000
     28 HAF         4.2900   -0.3850    2.7980 ha        1 QDR      0.150500
     29 HAG        -1.4750   -0.5170   -0.8320 h1        1 QDR      0.155000
     30 HAGA       -0.4130   -1.2040   -1.8060 h1        1 QDR      0.155000
     31 HNAL        2.1040   -0.4340   -1.3370 hn        1 QDR      0.256000
     32 HNAH       -3.2430    2.4120   -2.8190 DU        1 QDR      0.286000
@<TRIPOS>BOND
     1    1   14 1   
     2    1   21 1   
     3    1   22 1   
     4    1   23 1   
     5    2   15 1   
     6    2   24 1   
     7    2   25 1   
     8    3   18 1   
     9    4    6 1   
    10    4   26 1   
    11    5   14 1   
    12    5   27 1   
    13    6   28 1   
    14    7   13 1   
    15    7   16 1   
    16    7   29 1   
    17    7   30 1   
    18    8   11 1   
    19    8   17 1   
    20    9   15 1   
    21    9   17 1   
    22   10   16 1   
    23   11   15 1   
    24   12   16 1   
    25   12   18 1   
    26   12   31 1   
    27   13   17 1   
    28   14   20 1   
    29   18   19 1   
    30   19   20 1   
@<TRIPOS>SUBSTRUCTURE
     1 QDR         1 TEMP              0 ****  ****    0 ROOT
