@<TRIPOS>MOLECULE
QDR
   32    31     1     0     0
SMALL
bcc


@<TRIPOS>ATOM
      1 CAA         1.7290    0.9780    0.6440 c3        1 QDR     -0.180000
      2 OAC         2.1530    0.8300   -5.2420 o         1 QDR     -0.359000
      3 CAD         4.4390    0.4820   -3.9620 c1        1 QDR      0.257000
      4 CAE         2.8090   -1.0880   -0.2030 c2        1 QDR     -0.206000
      5 CAF         3.6530    0.3590   -2.9030 c2        1 QDR     -0.447000
      6 CAG        -2.0520    0.6150   -3.0020 c3        1 QDR     -0.271000
      7 NAH        -4.5600    1.2410   -8.5370 n1        1 QDR      0.000000
      8 NAI        -2.1960   -0.5710   -5.8510 n2        1 QDR     -0.250000
      9 NAJ         0.0490    0.3280   -1.7740 n2        1 QDR     -0.187000
     10 NAK        -3.8290    0.8730   -9.2800 n1        1 QDR      0.000000
     11 NAL         0.1500    0.7620   -4.1350 n         1 QDR     -0.301000
     12 SAM        -2.7780   -0.9650   -3.2740 ss        1 QDR      0.259000
     13 CAN         2.0440   -0.0120   -0.4150 c2        1 QDR     -0.059000
     14 CAO        -2.2960   -0.5350   -7.1950 c1        1 QDR     -0.022000
     15 CAP        -0.5430    0.5640   -2.9420 c2        1 QDR      0.120000
     16 CAQ        -2.7140   -1.2960   -4.9390 c2        1 QDR     -0.191000
     17 CAR         1.5500    0.6800   -4.1600 c2        1 QDR      0.318000
     18 CAS         2.2150    0.4150   -2.8710 c2        1 QDR     -0.115000
     19 CAT         1.4370    0.2510   -1.7390 c2        1 QDR      0.066000
     20 HAA         0.6430    0.9190    0.9110 hc        1 QDR      0.090000
     21 HAAA        1.9460    2.0150    0.2860 hc        1 QDR      0.090000
     22 HAAB        2.3320    0.7860    1.5650 hc        1 QDR      0.090000
     23 HNAB       -0.5740   -1.4820   -7.8800 hn        1 QDR      0.216000
     24 HNAA       -1.5480   -0.6990   -9.0220 hn        1 QDR      0.216000
     25 HAD         4.1520    0.2000   -1.9210 ha        1 QDR      0.198000
     26 HAE         3.2630   -1.2940    0.7760 ha        1 QDR      0.123000
     27 HAF         3.0190   -1.8290   -0.9860 ha        1 QDR      0.123000
     28 HAG        -2.3890    1.3590   -3.7680 h1        1 QDR      0.152500
     29 HAGA       -2.4600    0.9430   -2.0070 h1        1 QDR      0.152500
     30 HNAL       -0.3410    0.9550   -4.9820 hn        1 QDR      0.266000
     31 HNAH       -3.2180   -2.2700   -5.1270 h5        1 QDR      0.142000
     32 NAB        -1.4100   -0.9730   -8.0760 n3        1 QDR     -0.288000
@<TRIPOS>BOND
     1    1   13 1   
     2    1   20 1   
     3    1   21 1   
     4    1   22 1   
     5    2   17 1   
     6    3    5 1   
     7    4   13 1   
     8    4   26 1   
     9    4   27 1   
    10    5   18 1   
    11    5   25 1   
    12    6   12 1   
    13    6   15 1   
    14    6   28 1   
    15    6   29 1   
    16    7   10 1   
    17    8   14 1   
    18    8   16 1   
    19    9   15 1   
    20    9   19 1   
    21   11   15 1   
    22   11   17 1   
    23   11   30 1   
    24   12   16 1   
    25   13   19 1   
    26   14   32 1   
    27   16   31 1   
    28   17   18 1   
    29   18   19 1   
    30   23   32 1   
    31   24   32 1   
@<TRIPOS>SUBSTRUCTURE
     1 QDR         1 TEMP              0 ****  ****    0 ROOT
