@<TRIPOS>MOLECULE
QDR
   32    34     1     0     0
SMALL
bcc


@<TRIPOS>ATOM
      1 CAA        -2.4700    3.0240   -0.1670 c3        1 QDR     -0.047800
      2 OAC        -3.2070   -3.0920    0.1650 o         1 QDR     -0.617500
      3 CAD        -5.3740    0.5980    0.0250 ca        1 QDR     -0.144000
      4 CAE        -4.6250    1.7770   -0.0530 ca        1 QDR     -0.099000
      5 CAF        -4.7320   -0.6310    0.0740 ca        1 QDR     -0.066000
      6 CAG         0.9420   -0.8080   -0.0560 c3        1 QDR     -0.087600
      7 NAH         4.3000    1.4150    0.2850 na        1 QDR     -0.138400
      8 NAI         3.8980   -0.7700   -0.0680 nc        1 QDR     -0.740000
      9 NAJ        -1.1590    0.4600   -0.0650 nc        1 QDR     -0.619100
     10 NAK         5.5190    0.8720    0.2660 nd        1 QDR     -0.564800
     11 NAL        -1.2410   -1.9440    0.0620 n         1 QDR     -0.494400
     12 SAM         1.6530    0.8140    0.0480 ss        1 QDR     -0.128400
     13 CAN        -3.2330    1.7580   -0.0840 ca        1 QDR     -0.058300
     14 CAO         5.2920   -0.4850    0.0610 cc        1 QDR      0.722900
     15 CAP        -0.5660   -0.7190   -0.0160 cd        1 QDR      0.500900
     16 CAQ         3.3040    0.4450    0.0850 cd        1 QDR      0.469800
     17 CAR        -2.6450   -1.9850    0.0960 c         1 QDR      0.710100
     18 CAS        -3.3340   -0.6820    0.0440 ca        1 QDR     -0.180600
     19 CAT        -2.5590    0.5060   -0.0350 ca        1 QDR      0.178400
     20 HAA        -1.7950    3.1300    0.7190 hc        1 QDR      0.051033
     21 HAAA       -1.8340    3.0350   -1.0880 hc        1 QDR      0.051033
     22 HAAB       -3.1540    3.9070   -0.1980 hc        1 QDR      0.051033
     23 HNAB        6.0100   -2.3080   -0.3980 hn        1 QDR      0.400300
     24 HNAA        7.1790   -1.1410   -0.1950 hn        1 QDR      0.400300
     25 HAD        -6.4720    0.6480    0.0480 ha        1 QDR      0.141000
     26 HAE        -5.1510    2.7450   -0.0910 ha        1 QDR      0.139000
     27 HAF        -5.3010   -1.5730    0.1360 ha        1 QDR      0.160000
     28 HAG         1.2540   -1.3050   -1.0110 h1        1 QDR      0.106700
     29 HAGA        1.3080   -1.4420    0.7930 h1        1 QDR      0.106700
     30 HNAL       -0.7270   -2.7950    0.0970 hn        1 QDR      0.339500
     31 HNAH        4.1830    2.3910    0.4260 hn        1 QDR      0.333700
     32 NAB         6.2820   -1.4780    0.0870 nh        1 QDR     -0.875500
@<TRIPOS>BOND
     1    1   13 1   
     2    1   20 1   
     3    1   21 1   
     4    1   22 1   
     5    2   17 2   
     6    3    4 ar  
     7    3    5 ar  
     8    3   25 1   
     9    4   13 ar  
    10    4   26 1   
    11    5   18 ar  
    12    5   27 1   
    13    6   12 1   
    14    6   15 1   
    15    6   28 1   
    16    6   29 1   
    17    7   10 1   
    18    7   16 1   
    19    7   31 1   
    20    8   14 1   
    21    8   16 2   
    22    9   15 2   
    23    9   19 1   
    24   10   14 2   
    25   11   15 1   
    26   11   17 1   
    27   11   30 1   
    28   12   16 1   
    29   13   19 ar  
    30   14   32 1   
    31   17   18 1   
    32   18   19 ar  
    33   23   32 1   
    34   24   32 1   
@<TRIPOS>SUBSTRUCTURE
     1 QDR         1 TEMP              0 ****  ****    0 ROOT
