@<TRIPOS>MOLECULE
QDR
   33    32     1     0     0
SMALL
bcc


@<TRIPOS>ATOM
      1 CAA         1.2800   -0.9670    0.4350 c3        1 QDR     -0.061900
      2 OAC         4.5720   -0.7450   -3.9470 o         1 QDR     -0.567500
      3 CAD         4.9120   -0.3330   -0.3480 c1        1 QDR     -0.059500
      4 CAE         0.7920    1.4180   -0.0620 c2        1 QDR     -0.174000
      5 CAF         4.0320   -0.3030   -1.1620 cg        1 QDR     -0.184300
      6 CAG         0.0270   -0.1110   -5.1700 c3        1 QDR     -0.184600
      7 NAH        -7.5150    0.9400   -5.0110 n1        1 QDR      0.000500
      8 NAI        -2.4220    0.0610   -6.8740 ne        1 QDR     -0.823000
      9 NAJ         0.7190    0.0430   -2.8360 nd        1 QDR     -0.651300
     10 NAK        -6.5160    0.7630   -5.4510 n1        1 QDR      0.000500
     11 NAL         2.3880   -0.4390   -4.4930 n         1 QDR     -0.474400
     12 SAM        -1.5280    0.1870   -4.3970 ss        1 QDR      0.383700
     13 CAN         1.2280    0.2180   -0.4550 cf        1 QDR     -0.082200
     14 CAO        -3.4690    0.1200   -7.7430 ce        1 QDR      0.600200
     15 CAP         1.0910   -0.1690   -4.0940 cc        1 QDR      0.480900
     16 CAQ        -2.6250    0.2230   -5.5620 c2        1 QDR      0.383100
     17 CAR         3.4320   -0.5010   -3.5310 c         1 QDR      0.698700
     18 CAS         3.0230   -0.2650   -2.1300 cc        1 QDR     -0.032900
     19 CAT         1.6930   -0.0110   -1.8420 cd        1 QDR      0.227600
     20 HAA         2.3220   -1.3750    0.4750 hc        1 QDR      0.055367
     21 HAAA        0.6010   -1.7690    0.0520 hc        1 QDR      0.055367
     22 HAAB        0.9630   -0.7000    1.4730 hc        1 QDR      0.055367
     23 HNAB       -2.4110   -0.2040   -9.4740 hn        1 QDR      0.322700
     24 HNAA       -4.0950    0.0130   -9.6660 hn        1 QDR      0.322700
     25 HAD         0.7520    2.2860   -0.7330 ha        1 QDR      0.125500
     26 HAE         0.4630    1.6060    0.9690 ha        1 QDR      0.125500
     27 HAF         5.6930   -0.3600    0.3710 ha        1 QDR      0.180500
     28 HAG         0.2770    0.7030   -5.9000 h1        1 QDR      0.125200
     29 HAGA        0.0150   -1.0770   -5.7400 h1        1 QDR      0.125200
     30 HNAL        2.6080   -0.5890   -5.4540 hn        1 QDR      0.342500
     31 HNAH       -3.6570    0.4100   -5.1600 h5        1 QDR      0.048800
     32 HAB3       -4.5240    0.3040   -7.4000 h5        1 QDR      0.048800
     33 NAB        -3.3050   -0.0360   -9.0580 nh        1 QDR     -0.409100
@<TRIPOS>BOND
     1    1   13 1   
     2    1   20 1   
     3    1   21 1   
     4    1   22 1   
     5    2   17 2   
     6    3    5 3   
     7    3   27 1   
     8    4   13 2   
     9    4   25 1   
    10    4   26 1   
    11    5   18 1   
    12    6   12 1   
    13    6   15 1   
    14    6   28 1   
    15    6   29 1   
    16    7   10 3   
    17    8   14 1   
    18    8   16 2   
    19    9   15 2   
    20    9   19 1   
    21   11   15 1   
    22   11   17 1   
    23   11   30 1   
    24   12   16 1   
    25   13   19 1   
    26   14   32 1   
    27   14   33 2   
    28   16   31 1   
    29   17   18 1   
    30   18   19 2   
    31   23   33 1   
    32   24   33 1   
@<TRIPOS>SUBSTRUCTURE
     1 QDR         1 TEMP              0 ****  ****    0 ROOT
