@<TRIPOS>MOLECULE
QDS
   29    30     1     0     0
SMALL
bcc


@<TRIPOS>ATOM
      1 N1          1.1750    0.5610   -0.0810 nb        1 QDS     -0.605000
      2 C2          0.6440   -0.5680   -0.5200 ca        1 QDS      0.280500
      3 C3          1.4650   -1.7380   -0.8100 ca        1 QDS      0.337900
      4 N4          2.7710   -1.7500   -0.6470 nb        1 QDS     -0.648000
      5 C5          4.7650   -0.5070    0.0250 ca        1 QDS     -0.164300
      6 C6          5.3380    0.6540    0.4820 ca        1 QDS     -0.130000
      7 C7          4.5480    1.7930    0.7580 ca        1 QDS     -0.139000
      8 C8          3.1880    1.7680    0.5740 ca        1 QDS     -0.147300
      9 C9          2.5510    0.5810    0.1000 ca        1 QDS      0.282300
     10 C10         3.3550   -0.5780   -0.1810 ca        1 QDS      0.287300
     11 C11        -0.8430   -0.7280   -0.7850 c         1 QDS      0.555600
     12 O12        -1.1870   -1.6140   -1.6030 o         1 QDS     -0.651100
     13 N          -1.7080    0.0410   -0.0780 n         1 QDS     -0.480900
     14 CA         -3.1430   -0.0220   -0.2530 c3        1 QDS     -0.086300
     15 C          -3.8710    0.5230    1.0320 c         1 QDS      0.914600
     16 O          -3.5130    1.6620    1.4480 o         1 QDS     -0.821300
     17 CB         -3.6500    0.7950   -1.4550 c3        1 QDS      0.133400
     18 OG         -3.2840    2.1590   -1.4060 oh        1 QDS     -0.643800
     19 OXT        -4.7700   -0.1990    1.5260 o         1 QDS     -0.821300
     20 H3          0.9690   -2.6510   -1.1930 h4        1 QDS      0.061100
     21 H5          5.3800   -1.3940   -0.1890 ha        1 QDS      0.144000
     22 H6          6.4250    0.7090    0.6410 ha        1 QDS      0.127000
     23 H7          5.0400    2.7060    1.1250 ha        1 QDS      0.130000
     24 H8          2.5700    2.6540    0.7900 ha        1 QDS      0.156000
     25 H          -1.3870    0.7970    0.4880 hn        1 QDS      0.345500
     26 HA         -3.4380   -1.0970   -0.4130 h1        1 QDS      0.075700
     27 HB2        -3.2190    0.4110   -2.4190 h1        1 QDS      0.032200
     28 HB3        -4.7690    0.7070   -1.4810 h1        1 QDS      0.032200
     29 HG         -3.3930    2.4540   -0.4860 ho        1 QDS      0.441000
@<TRIPOS>BOND
     1    1    2 ar  
     2    1    9 ar  
     3    2    3 ar  
     4    2   11 1   
     5    3    4 ar  
     6    3   20 1   
     7    4   10 ar  
     8    5    6 ar  
     9    5   10 ar  
    10    5   21 1   
    11    6    7 ar  
    12    6   22 1   
    13    7    8 ar  
    14    7   23 1   
    15    8    9 ar  
    16    8   24 1   
    17    9   10 ar  
    18   11   12 2   
    19   11   13 1   
    20   13   14 1   
    21   13   25 1   
    22   14   15 1   
    23   14   17 1   
    24   14   26 1   
    25   15   16 1   
    26   15   19 1   
    27   17   18 1   
    28   17   27 1   
    29   17   28 1   
    30   18   29 1   
@<TRIPOS>SUBSTRUCTURE
     1 QDS         1 TEMP              0 ****  ****    0 ROOT
