@<TRIPOS>MOLECULE
QED
   72    74     1     0     0
SMALL
bcc


@<TRIPOS>ATOM
      1 C1         -0.9220    0.4830    0.0750 ca        1 QED     -0.246600
      2 C2         -0.1360    1.6510   -0.1310 ca        1 QED      0.258100
      3 C3          0.7800    2.0760    0.8790 ca        1 QED      0.060100
      4 C4          0.9050    1.3650    2.0620 ca        1 QED     -0.060000
      5 C5          0.1150    0.2120    2.2640 ca        1 QED     -0.079000
      6 C6         -0.7720   -0.2200    1.3060 ca        1 QED     -0.123000
      7 O7         -0.2810    2.3140   -1.3010 oh        1 QED     -0.474100
      8 O8          1.4740    3.2100    0.5500 oh        1 QED     -0.496100
      9 C9         -1.8130    0.0970   -0.9710 c         1 QED      0.622700
     10 O10        -2.1380    0.6290   -2.0310 o         1 QED     -0.548100
     11 N11        -2.5370   -1.2730   -0.7820 n4        1 QED     -0.695800
     12 C12        -3.1820   -1.7770   -2.0220 c3        1 QED      0.096800
     13 C13        -4.4830   -1.0310   -2.4020 c3        1 QED      0.081800
     14 N14        -4.7550   -1.0160   -3.8870 n4        1 QED     -0.672400
     15 C15        -6.2390   -0.9400   -4.1500 c3        1 QED      0.076300
     16 C16        -6.9280   -2.3240   -4.1760 c3        1 QED      0.093800
     17 N17        -8.3770   -2.2730   -3.8560 n4        1 QED     -0.676800
     18 C18        -8.6830   -2.0700   -2.3650 c         1 QED      0.606800
     19 O19        -7.6820   -1.8290   -1.6900 o         1 QED     -0.547600
     20 C21        -4.0450    0.1410   -4.5460 c3        1 QED      0.076300
     21 C22        -3.7120   -0.1160   -6.0340 c3        1 QED      0.093800
     22 N23        -3.5520    1.1200   -6.8400 n4        1 QED     -0.676800
     23 C24        -4.8690    1.8350   -7.1600 c         1 QED      0.606800
     24 N25       -11.1230   -2.2680   -2.9110 n         1 QED     -0.187500
     25 C26       -12.4940   -2.2670   -2.3850 c         1 QED      0.627200
     26 C27       -12.6880   -2.5940   -0.9600 cc        1 QED     -0.053700
     27 C28       -11.6340   -2.6540   -0.1140 cd        1 QED     -0.136000
     28 C29       -10.3020   -2.4580   -0.6020 cd        1 QED      0.064000
     29 O30       -10.9250   -1.4040   -3.9220 oh        1 QED     -0.507600
     30 O31       -13.3890   -2.0370   -3.1980 o         1 QED     -0.468500
     31 O32        -5.8330    1.3670   -6.5470 o         1 QED     -0.547600
     32 C33        -4.8370    2.9550   -8.0860 cc        1 QED     -0.169600
     33 N34        -3.6270    3.3490   -8.7390 n         1 QED     -0.187500
     34 C35        -3.7350    4.4350   -9.7240 c         1 QED      0.627200
     35 C36        -4.9670    5.2440   -9.7430 cc        1 QED     -0.053700
     36 C37        -6.0460    4.8790   -9.0120 cd        1 QED     -0.136000
     37 C38        -5.9870    3.7300   -8.1620 cd        1 QED      0.064000
     38 O39        -2.9290    2.2900   -9.1870 oh        1 QED     -0.507600
     39 O40        -2.7500    4.6160  -10.4390 o         1 QED     -0.468500
     40 C41       -10.0690   -2.2070   -1.9460 cc        1 QED     -0.169600
     41 H4          1.6140    1.6900    2.8470 ha        1 QED      0.203000
     42 H5          0.2220   -0.3410    3.2160 ha        1 QED      0.197000
     43 H6         -1.3730   -1.1140    1.5250 ha        1 QED      0.127000
     44 HO7         0.3190    3.0910   -1.3170 ho        1 QED      0.500000
     45 HO8         2.0840    3.4410    1.2740 ho        1 QED      0.486000
     46 HN11       -1.8290   -1.9620   -0.4820 hn        1 QED      0.480300
     47 H12        -2.4100   -1.6940   -2.8450 hx        1 QED      0.124200
     48 H12A       -3.4200   -2.8720   -1.8650 hx        1 QED      0.124200
     49 H13        -4.4530    0.0460   -2.0530 hx        1 QED      0.145700
     50 H13A       -5.3610   -1.5430   -1.8970 hx        1 QED      0.145700
     51 H15        -6.3890   -0.4310   -5.1530 hx        1 QED      0.147950
     52 H15A       -6.6930   -0.2770   -3.3520 hx        1 QED      0.147950
     53 H16        -6.8240   -2.7700   -5.2120 hx        1 QED      0.124950
     54 H16A       -6.4490   -3.0300   -3.4340 hx        1 QED      0.124950
     55 HN17       -8.8160   -3.1660   -4.1430 hn        1 QED      0.500550
     56 H21        -3.0790    0.3240   -3.9790 hx        1 QED      0.147950
     57 H21A       -4.7000    1.0550   -4.4270 hx        1 QED      0.147950
     58 H22        -4.5210   -0.7280   -6.5320 hx        1 QED      0.124950
     59 H22A       -2.7370   -0.6900   -6.1000 hx        1 QED      0.124950
     60 HN23       -2.9270    1.7940   -6.3770 hn        1 QED      0.500550
     61 H27       -13.7430   -2.7190   -0.6400 ha        1 QED      0.232500
     62 H28       -11.7710   -2.8560    0.9670 ha        1 QED      0.212000
     63 H29        -9.4570   -2.5380    0.1070 ha        1 QED      0.185500
     64 HO30      -11.7510   -1.3970   -4.4670 ho        1 QED      0.506500
     65 H36        -4.9570    6.1100  -10.4360 ha        1 QED      0.232500
     66 H37        -6.9920    5.4540   -9.0510 ha        1 QED      0.212000
     67 H38        -6.8700    3.4780   -7.5460 ha        1 QED      0.185500
     68 HO39       -2.1790    2.6390   -9.7290 ho        1 QED      0.506500
     69 H112       -3.2240   -1.1760   -0.0260 hn        1 QED      0.480300
     70 H141       -4.3960   -1.8920   -4.2930 hn        1 QED      0.452800
     71 H172       -8.8530   -1.5230   -4.3880 hn        1 QED      0.500550
     72 H232       -3.1010    0.8590   -7.7440 hn        1 QED      0.500550
@<TRIPOS>BOND
     1    1    2 ar  
     2    1    6 ar  
     3    1    9 1   
     4    2    3 ar  
     5    2    7 1   
     6    3    4 ar  
     7    3    8 1   
     8    4    5 ar  
     9    4   41 1   
    10    5    6 ar  
    11    5   42 1   
    12    6   43 1   
    13    7   44 1   
    14    8   45 1   
    15    9   10 2   
    16    9   11 1   
    17   11   12 1   
    18   11   46 1   
    19   11   69 1   
    20   12   13 1   
    21   12   47 1   
    22   12   48 1   
    23   13   14 1   
    24   13   49 1   
    25   13   50 1   
    26   14   15 1   
    27   14   20 1   
    28   14   70 1   
    29   15   16 1   
    30   15   51 1   
    31   15   52 1   
    32   16   17 1   
    33   16   53 1   
    34   16   54 1   
    35   17   18 1   
    36   17   55 1   
    37   17   71 1   
    38   18   19 2   
    39   18   40 1   
    40   20   21 1   
    41   20   56 1   
    42   20   57 1   
    43   21   22 1   
    44   21   58 1   
    45   21   59 1   
    46   22   23 1   
    47   22   60 1   
    48   22   72 1   
    49   23   31 2   
    50   23   32 1   
    51   24   25 1   
    52   24   29 1   
    53   24   40 1   
    54   25   26 1   
    55   25   30 2   
    56   26   27 2   
    57   26   61 1   
    58   27   28 1   
    59   27   62 1   
    60   28   40 2   
    61   28   63 1   
    62   29   64 1   
    63   32   33 1   
    64   32   37 2   
    65   33   34 1   
    66   33   38 1   
    67   34   35 1   
    68   34   39 2   
    69   35   36 2   
    70   35   65 1   
    71   36   37 1   
    72   36   66 1   
    73   37   67 1   
    74   38   68 1   
@<TRIPOS>SUBSTRUCTURE
     1 QED         1 TEMP              0 ****  ****    0 ROOT
