@<TRIPOS>MOLECULE
QED
   68    65     1     0     0
SMALL
bcc


@<TRIPOS>ATOM
      1 C1          4.4250   -1.4020    4.0810 c1        1 QED     -0.123000
      2 C2          5.5820   -2.1530    4.2540 c1        1 QED      0.093000
      3 C3          6.1340   -2.2940    5.5150 c1        1 QED     -0.014000
      4 C4          5.5380   -1.6890    6.6010 c2        1 QED     -0.149000
      5 C5          4.3820   -0.9380    6.4290 c1        1 QED     -0.137000
      6 C6          3.8280   -0.7970    5.1660 c1        1 QED     -0.077000
      7 O7          6.1390   -2.8350    3.1700 oh        1 QED     -0.261000
      8 O8          7.3200   -3.0420    5.6870 o         1 QED     -0.273000
      9 C9          3.7810   -1.2930    2.6900 c2        1 QED      0.359000
     10 O10         4.2900   -1.8700    1.7340 o         1 QED     -0.374000
     11 N11         2.6490   -0.4290    2.4870 n         1 QED     -0.370000
     12 C12         1.9400   -0.4620    1.2460 c3        1 QED     -0.028000
     13 C13         0.6530    0.3440    1.3760 c3        1 QED     -0.079000
     14 N14        -0.0800    0.2940    0.1200 n3        1 QED     -0.275000
     15 C15        -1.5210    0.0830    0.3960 c3        1 QED     -0.080500
     16 C16        -1.9120   -1.3900    0.0350 c3        1 QED     -0.030000
     17 N17        -3.3090   -1.6110    0.3380 n         1 QED     -0.361500
     18 C18        -3.8900   -2.9120    0.1310 c2        1 QED      0.347000
     19 O19        -3.1880   -3.8440   -0.2290 o         1 QED     -0.352500
     20 C21         0.1020    1.5700   -0.6100 c3        1 QED     -0.080500
     21 C22         0.2430    1.2840   -2.1180 c3        1 QED     -0.030000
     22 N23         0.3850    2.5450   -2.8430 n         1 QED     -0.361500
     23 C24         0.5590    2.5370   -4.2940 c2        1 QED      0.347000
     24 N25        -6.2750   -3.2640   -0.8120 n         1 QED     -0.141500
     25 C26        -7.7190   -3.4320   -0.6150 c2        1 QED      0.319500
     26 C27        -8.2920   -3.4870    0.7860 c2        1 QED     -0.221500
     27 C28        -7.4050   -3.3510    1.9460 c1        1 QED     -0.040000
     28 C29        -5.9570   -3.1790    1.7450 c1        1 QED     -0.195500
     29 O30        -5.7510   -3.2190   -2.0980 oh        1 QED     -0.204000
     30 O31        -8.4520   -3.5440   -1.5720 o         1 QED     -0.354500
     31 O32         0.5780    1.4830   -4.8970 o         1 QED     -0.352500
     32 C33         0.6980    3.8570   -5.0550 c2        1 QED      0.036500
     33 N34         1.9660    4.1810   -5.7470 n         1 QED     -0.141500
     34 C35         2.1070    5.4580   -6.4700 c2        1 QED      0.319500
     35 C36         0.9150    6.4050   -6.5860 c2        1 QED     -0.221500
     36 C37        -0.3570    6.0830   -5.8910 c1        1 QED     -0.040000
     37 C38        -0.4960    4.8010   -5.1670 c1        1 QED     -0.195500
     38 O39         2.9830    3.2420   -5.7980 oh        1 QED     -0.204000
     39 O40         3.1460    5.7200   -7.0360 o         1 QED     -0.354500
     40 C41        -5.3900   -3.1220    0.3410 c2        1 QED      0.036500
     41 H4          5.9290   -1.7890    7.4940 ha        1 QED      0.140000
     42 H5          3.9620   -0.5120    7.1950 ha        1 QED      0.144000
     43 H6          3.0180   -0.2710    5.0460 ha        1 QED      0.165000
     44 HO7         6.9750   -2.5840    3.0650 ho        1 QED      0.247000
     45 HO8         7.7350   -2.7760    6.4320 ho        1 QED      0.232000
     46 HN11        2.4380    0.1980    3.1150 hn        1 QED      0.237000
     47 H12         1.7250   -1.3860    1.0190 h1        1 QED      0.102000
     48 H12A        2.4960   -0.0760    0.5440 h1        1 QED      0.102000
     49 H13         0.8720    1.2830    1.5920 h1        1 QED      0.081500
     50 H13A        0.1020   -0.0360    2.0900 h1        1 QED      0.081500
     51 H15        -1.6990    0.2440    1.3470 h1        1 QED      0.080750
     52 H15A       -2.0510    0.7030   -0.1450 h1        1 QED      0.080750
     53 H16        -1.7570   -1.5440   -0.9210 h1        1 QED      0.110250
     54 H16A       -1.3620   -2.0120    0.5600 h1        1 QED      0.110250
     55 HN17       -3.8280   -0.9230    0.5860 hn        1 QED      0.244500
     56 H21        -0.6720    2.1440   -0.4590 h1        1 QED      0.080750
     57 H21A        0.9130    2.0220   -0.2850 h1        1 QED      0.080750
     58 H22        -0.5500    0.8160   -2.4340 h1        1 QED      0.110250
     59 H22A        1.0300    0.7310   -2.2710 h1        1 QED      0.110250
     60 HN23        0.3540    3.3450   -2.3870 hn        1 QED      0.244500
     61 H27        -9.2590   -3.6010    0.9170 ha        1 QED      0.170500
     62 H28        -7.7720   -3.3870    2.8490 ha        1 QED      0.149500
     63 H29        -5.3640   -3.0890    2.5150 ha        1 QED      0.174500
     64 HO30       -5.9100   -3.9980   -2.5130 ho        1 QED      0.248500
     65 H36         1.0090    7.2530   -7.0660 ha        1 QED      0.170500
     66 H37        -1.1160    6.6850   -5.9630 ha        1 QED      0.149500
     67 H38        -1.3320    4.5880   -4.7080 ha        1 QED      0.174500
     68 HO39        3.7670    3.6430   -5.6480 ho        1 QED      0.248500
@<TRIPOS>BOND
     1    1    6 1   
     2    1    9 1   
     3    2    3 1   
     4    2    7 1   
     5    3    4 1   
     6    4    5 1   
     7    4   41 1   
     8    5   42 1   
     9    6   43 1   
    10    7   44 1   
    11    8   45 1   
    12    9   10 1   
    13    9   11 1   
    14   11   12 1   
    15   11   46 1   
    16   12   13 1   
    17   12   47 1   
    18   12   48 1   
    19   13   14 1   
    20   13   49 1   
    21   13   50 1   
    22   14   15 1   
    23   14   20 1   
    24   15   16 1   
    25   15   51 1   
    26   15   52 1   
    27   16   17 1   
    28   16   53 1   
    29   16   54 1   
    30   17   18 1   
    31   17   55 1   
    32   18   19 1   
    33   18   40 1   
    34   20   21 1   
    35   20   56 1   
    36   20   57 1   
    37   21   22 1   
    38   21   58 1   
    39   21   59 1   
    40   22   23 1   
    41   22   60 1   
    42   23   31 1   
    43   23   32 1   
    44   24   25 1   
    45   24   29 1   
    46   24   40 1   
    47   25   26 1   
    48   25   30 1   
    49   26   27 1   
    50   26   61 1   
    51   27   62 1   
    52   28   40 1   
    53   28   63 1   
    54   29   64 1   
    55   32   33 1   
    56   32   37 1   
    57   33   34 1   
    58   33   38 1   
    59   34   35 1   
    60   34   39 1   
    61   35   36 1   
    62   35   65 1   
    63   36   66 1   
    64   37   67 1   
    65   38   68 1   
@<TRIPOS>SUBSTRUCTURE
     1 QED         1 TEMP              0 ****  ****    0 ROOT
