@<TRIPOS>MOLECULE
QED
   68    70     1     0     0
SMALL
bcc


@<TRIPOS>ATOM
      1 C1         -5.5400    2.1870    0.3790 ca        1 QED     -0.186600
      2 C2         -6.8940    1.8320    0.2820 ca        1 QED      0.112100
      3 C3         -7.8970    2.7780    0.6200 ca        1 QED      0.099100
      4 C4         -7.5410    4.0520    1.0670 ca        1 QED     -0.114000
      5 C5         -6.1910    4.3830    1.1840 ca        1 QED     -0.135000
      6 C6         -5.2030    3.4660    0.8460 ca        1 QED     -0.112000
      7 O7         -7.3690    0.6210   -0.1530 oh        1 QED     -0.525100
      8 O8         -9.2370    2.4920    0.5200 oh        1 QED     -0.493100
      9 C9         -4.4860    1.2000    0.0150 c         1 QED      0.679700
     10 O10        -4.6450   -0.0270    0.2200 o         1 QED     -0.640100
     11 N11        -3.3490    1.6690   -0.6060 n         1 QED     -0.553900
     12 C12        -2.2360    0.8180   -0.9190 c3        1 QED      0.085000
     13 C13        -1.1040    0.8830    0.1390 c3        1 QED      0.146800
     14 N14         0.0190    0.0320   -0.2250 n3        1 QED     -0.749600
     15 C15         1.2990    0.5490    0.2350 c3        1 QED      0.152800
     16 C16         1.8470    1.6360   -0.7260 c3        1 QED      0.087000
     17 N17         3.0830    2.2080   -0.2660 n         1 QED     -0.552900
     18 C18         3.1490    3.4650    0.2800 c         1 QED      0.673800
     19 O19         2.1410    4.1830    0.4360 o         1 QED     -0.595100
     20 C21        -0.1900   -1.3670    0.1200 c3        1 QED      0.152800
     21 C22         0.5250   -2.3100   -0.8810 c3        1 QED      0.087000
     22 N23         0.3390   -3.6990   -0.5600 n         1 QED     -0.552900
     23 C24         1.3420   -4.4700   -0.0290 c         1 QED      0.673800
     24 N25         5.6460    3.8560   -0.0020 n         1 QED     -0.216500
     25 C26         6.9180    4.2980    0.4780 c         1 QED      0.680700
     26 C27         6.9240    4.9150    1.7990 cc        1 QED     -0.239700
     27 C28         5.7800    5.0450    2.5210 cd        1 QED     -0.040500
     28 C29         4.5390    4.5740    2.0010 cd        1 QED     -0.194000
     29 O30         5.5990    3.1370   -1.1170 oh        1 QED     -0.400100
     30 O31         7.8920    4.1620   -0.2840 o         1 QED     -0.630000
     31 O32         2.4720   -4.0140    0.2340 o         1 QED     -0.595100
     32 C33         1.0310   -5.9110    0.3050 cc        1 QED      0.019400
     33 N34         0.3760   -6.7560   -0.5830 n         1 QED     -0.216500
     34 C35         0.0580   -8.1080   -0.2460 c         1 QED      0.680700
     35 C36         0.5050   -8.5640    1.0630 cc        1 QED     -0.239700
     36 C37         1.1760   -7.7360    1.9060 cd        1 QED     -0.040500
     37 C38         1.4570   -6.3910    1.5260 cd        1 QED     -0.194000
     38 O39        -0.1470   -6.2320   -1.6850 oh        1 QED     -0.400100
     39 O40        -0.5270   -8.7870   -1.1100 o         1 QED     -0.630000
     40 C41         4.4920    3.9630    0.7660 cc        1 QED      0.019400
     41 H4         -8.3300    4.7730    1.3280 ha        1 QED      0.157000
     42 H5         -5.9090    5.3820    1.5500 ha        1 QED      0.142000
     43 H6         -4.1470    3.7500    0.9700 ha        1 QED      0.134000
     44 HO7        -6.6550   -0.0390   -0.1160 ho        1 QED      0.469000
     45 HO8        -9.3300    1.5630    0.2540 ho        1 QED      0.442000
     46 HN11       -3.2160    2.6490   -0.6930 hn        1 QED      0.316500
     47 H12        -2.6070   -0.2430   -1.0090 h1        1 QED      0.070200
     48 H12A       -1.8240    1.1380   -1.9180 h1        1 QED      0.070200
     49 H13        -0.7430    1.9490    0.2120 h1        1 QED      0.044200
     50 H13A       -1.5290    0.6010    1.1460 h1        1 QED      0.044200
     51 H15         1.2210    0.9820    1.2750 h1        1 QED      0.045700
     52 H15A        2.0420   -0.2970    0.2770 h1        1 QED      0.045700
     53 H16         2.0250    1.1720   -1.7380 h1        1 QED      0.067700
     54 H16A        1.0850    2.4590   -0.8420 h1        1 QED      0.067700
     55 HN17        3.9170    1.6890   -0.4110 hn        1 QED      0.332000
     56 H21         0.1740   -1.5950    1.1640 h1        1 QED      0.045700
     57 H21A       -1.2950   -1.5880    0.0930 h1        1 QED      0.045700
     58 H22         0.1150   -2.1260   -1.9150 h1        1 QED      0.067700
     59 H22A        1.6300   -2.0830   -0.8930 h1        1 QED      0.067700
     60 HN23       -0.5320   -4.1150   -0.7940 hn        1 QED      0.332000
     61 H27         7.9090    5.2450    2.1590 ha        1 QED      0.171000
     62 H28         5.7870    5.5110    3.5190 ha        1 QED      0.150000
     63 H29         3.6100    4.7060    2.5740 ha        1 QED      0.174000
     64 HO30        6.1800    3.5950   -1.7660 ho        1 QED      0.450500
     65 H36         0.2480   -9.6040    1.3120 ha        1 QED      0.171000
     66 H37         1.5130   -8.0820    2.8960 ha        1 QED      0.150000
     67 H38         2.0260   -5.7310    2.1970 ha        1 QED      0.174000
     68 HO39       -0.0230   -6.9010   -2.3960 ho        1 QED      0.450500
@<TRIPOS>BOND
     1    1    2 ar  
     2    1    6 ar  
     3    1    9 1   
     4    2    3 ar  
     5    2    7 1   
     6    3    4 ar  
     7    3    8 1   
     8    4    5 ar  
     9    4   41 1   
    10    5    6 ar  
    11    5   42 1   
    12    6   43 1   
    13    7   44 1   
    14    8   45 1   
    15    9   10 2   
    16    9   11 1   
    17   11   12 1   
    18   11   46 1   
    19   12   13 1   
    20   12   47 1   
    21   12   48 1   
    22   13   14 1   
    23   13   49 1   
    24   13   50 1   
    25   14   15 1   
    26   14   20 1   
    27   15   16 1   
    28   15   51 1   
    29   15   52 1   
    30   16   17 1   
    31   16   53 1   
    32   16   54 1   
    33   17   18 1   
    34   17   55 1   
    35   18   19 2   
    36   18   40 1   
    37   20   21 1   
    38   20   56 1   
    39   20   57 1   
    40   21   22 1   
    41   21   58 1   
    42   21   59 1   
    43   22   23 1   
    44   22   60 1   
    45   23   31 2   
    46   23   32 1   
    47   24   25 1   
    48   24   29 1   
    49   24   40 1   
    50   25   26 1   
    51   25   30 2   
    52   26   27 2   
    53   26   61 1   
    54   27   28 1   
    55   27   62 1   
    56   28   40 2   
    57   28   63 1   
    58   29   64 1   
    59   32   33 1   
    60   32   37 2   
    61   33   34 1   
    62   33   38 1   
    63   34   35 1   
    64   34   39 2   
    65   35   36 2   
    66   35   65 1   
    67   36   37 1   
    68   36   66 1   
    69   37   67 1   
    70   38   68 1   
@<TRIPOS>SUBSTRUCTURE
     1 QED         1 TEMP              0 ****  ****    0 ROOT
