@<TRIPOS>MOLECULE
QED
   72    74     1     0     0
SMALL
bcc


@<TRIPOS>ATOM
      1 C1         -0.8130    0.2870   -0.0410 ca        1 QED     -0.246600
      2 C2         -0.0430    1.4740   -0.1940 ca        1 QED      0.258100
      3 C3          0.9000    1.8410    0.8140 ca        1 QED      0.060100
      4 C4          1.0700    1.0540    1.9420 ca        1 QED     -0.060000
      5 C5          0.2960   -0.1180    2.0910 ca        1 QED     -0.079000
      6 C6         -0.6180   -0.4940    1.1350 ca        1 QED     -0.123000
      7 O7         -0.2330    2.2130   -1.3110 oh        1 QED     -0.474100
      8 O8          1.5740    3.0020    0.5390 oh        1 QED     -0.496100
      9 C9         -1.7340   -0.0380   -1.0820 c         1 QED      0.622700
     10 O10        -2.0960    0.5600   -2.0940 o         1 QED     -0.548100
     11 N11        -2.4400   -1.4240   -0.9620 ny        1 QED     -0.695800
     12 C12        -3.1210   -1.8510   -2.2110 c3        1 QED      0.096800
     13 C13        -4.4390   -1.0950   -2.5000 c3        1 QED      0.081800
     14 N14        -4.7600   -0.9840   -3.9710 nx        1 QED     -0.672400
     15 C15        -6.2520   -0.9050   -4.1810 c3        1 QED      0.076300
     16 C16        -6.9310   -2.2910   -4.2770 c3        1 QED      0.093800
     17 N17        -8.3690   -2.2750   -3.9080 ny        1 QED     -0.676800
     18 C18        -8.6280   -2.1740   -2.3980 c         1 QED      0.606800
     19 O19        -7.6070   -1.9690   -1.7400 o         1 QED     -0.547600
     20 C21        -4.0790    0.2200   -4.5740 c3        1 QED      0.076300
     21 C22        -3.7930    0.0650   -6.0860 c3        1 QED      0.093800
     22 N23        -3.6680    1.3530   -6.8130 ny        1 QED     -0.676800
     23 C24        -5.0000    2.0750   -7.0430 c         1 QED      0.606800
     24 N25       -11.0830   -2.3580   -2.8780 n         1 QED     -0.187500
     25 C26       -12.4360   -2.4040   -2.3100 c         1 QED      0.627200
     26 C27       -12.5820   -2.8270   -0.9040 cc        1 QED     -0.053700
     27 C28       -11.5000   -2.9330   -0.0980 cd        1 QED     -0.136000
     28 C29       -10.1860   -2.6930   -0.6150 cd        1 QED      0.064000
     29 O30       -10.9240   -1.4270   -3.8350 oh        1 QED     -0.507600
     30 O31       -13.3580   -2.1290   -3.0760 o         1 QED     -0.468500
     31 O32        -5.9400    1.5590   -6.4320 o         1 QED     -0.547600
     32 C33        -5.0070    3.2540   -7.8930 cc        1 QED     -0.169600
     33 N34        -3.8210    3.7010   -8.5580 n         1 QED     -0.187500
     34 C35        -3.9690    4.8480   -9.4640 c         1 QED      0.627200
     35 C36        -5.2070    5.6460   -9.3900 cc        1 QED     -0.053700
     36 C37        -6.2580    5.2240   -8.6500 cd        1 QED     -0.136000
     37 C38        -6.1630    4.0210   -7.8800 cd        1 QED      0.064000
     38 O39        -3.1320    2.6800   -9.0970 oh        1 QED     -0.507600
     39 O40        -3.0090    5.0860  -10.1970 o         1 QED     -0.468500
     40 C41        -9.9990   -2.3520   -1.9450 cc        1 QED     -0.169600
     41 H4          1.8010    1.3330    2.7240 ha        1 QED      0.203000
     42 H5          0.4390   -0.7330    3.0000 ha        1 QED      0.197000
     43 H6         -1.2030   -1.4080    1.3120 ha        1 QED      0.127000
     44 HO7         0.3610    2.9940   -1.2940 ho        1 QED      0.500000
     45 HO8         2.2050    3.1910    1.2580 ho        1 QED      0.486000
     46 HN11       -1.7170   -2.1240   -0.7310 hn        1 QED      0.480300
     47 H12        -2.3770   -1.7070   -3.0510 hx        1 QED      0.124200
     48 H12A       -3.3460   -2.9570   -2.1210 hx        1 QED      0.124200
     49 H13        -4.4060   -0.0430   -2.0810 hx        1 QED      0.145700
     50 H13A       -5.2970   -1.6470   -2.0020 hx        1 QED      0.145700
     51 H15        -6.4370   -0.3330   -5.1430 hx        1 QED      0.147950
     52 H15A       -6.6840   -0.3000   -3.3270 hx        1 QED      0.147950
     53 H16        -6.8580   -2.6670   -5.3430 hx        1 QED      0.125200
     54 H16A       -6.4230   -3.0400   -3.5990 hx        1 QED      0.125200
     55 HN17       -8.8110   -3.1510   -4.2400 hn        1 QED      0.500550
     56 H21        -3.0970    0.3750   -4.0270 hx        1 QED      0.147950
     57 H21A       -4.7380    1.1190   -4.3740 hx        1 QED      0.147950
     58 H22        -4.6140   -0.5210   -6.5970 hx        1 QED      0.125200
     59 H22A       -2.8170   -0.4940   -6.2200 hx        1 QED      0.125200
     60 HN23       -3.0340    2.0020   -6.3260 hn        1 QED      0.500550
     61 H27       -13.6250   -2.9830   -0.5600 ha        1 QED      0.232500
     62 H28       -11.6010   -3.2080    0.9710 ha        1 QED      0.212000
     63 H29        -9.3180   -2.8120    0.0610 ha        1 QED      0.185500
     64 HO30      -11.7670   -1.3920   -4.3520 ho        1 QED      0.506500
     65 H36        -5.2250    6.5560  -10.0240 ha        1 QED      0.232500
     66 H37        -7.2090    5.7920   -8.6210 ha        1 QED      0.212000
     67 H38        -7.0240    3.7220   -7.2540 ha        1 QED      0.185500
     68 HO39       -2.4010    3.0710   -9.6380 ho        1 QED      0.506500
     69 H112       -3.1030   -1.3850   -0.1800 hn        1 QED      0.480300
     70 H141       -4.4070   -1.8280   -4.4460 hn        1 QED      0.452800
     71 H172       -8.8670   -1.4960   -4.3740 hn        1 QED      0.500550
     72 H232       -3.2450    1.1570   -7.7460 hn        1 QED      0.500550
@<TRIPOS>BOND
     1    1    2 ar  
     2    1    6 ar  
     3    1    9 1   
     4    2    3 ar  
     5    2    7 1   
     6    3    4 ar  
     7    3    8 1   
     8    4    5 ar  
     9    4   41 1   
    10    5    6 ar  
    11    5   42 1   
    12    6   43 1   
    13    7   44 1   
    14    8   45 1   
    15    9   10 2   
    16    9   11 1   
    17   11   12 1   
    18   11   46 1   
    19   11   69 1   
    20   12   13 1   
    21   12   47 1   
    22   12   48 1   
    23   13   14 1   
    24   13   49 1   
    25   13   50 1   
    26   14   15 1   
    27   14   20 1   
    28   14   70 1   
    29   15   16 1   
    30   15   51 1   
    31   15   52 1   
    32   16   17 1   
    33   16   53 1   
    34   16   54 1   
    35   17   18 1   
    36   17   55 1   
    37   17   71 1   
    38   18   19 2   
    39   18   40 1   
    40   20   21 1   
    41   20   56 1   
    42   20   57 1   
    43   21   22 1   
    44   21   58 1   
    45   21   59 1   
    46   22   23 1   
    47   22   60 1   
    48   22   72 1   
    49   23   31 2   
    50   23   32 1   
    51   24   25 1   
    52   24   29 1   
    53   24   40 1   
    54   25   26 1   
    55   25   30 2   
    56   26   27 2   
    57   26   61 1   
    58   27   28 1   
    59   27   62 1   
    60   28   40 2   
    61   28   63 1   
    62   29   64 1   
    63   32   33 1   
    64   32   37 2   
    65   33   34 1   
    66   33   38 1   
    67   34   35 1   
    68   34   39 2   
    69   35   36 2   
    70   35   65 1   
    71   36   37 1   
    72   36   66 1   
    73   37   67 1   
    74   38   68 1   
@<TRIPOS>SUBSTRUCTURE
     1 QED         1 TEMP              0 ****  ****    0 ROOT
