@<TRIPOS>MOLECULE
QED
   72    74     1     0     0
SMALL
bcc


@<TRIPOS>ATOM
      1 C1         -0.7420    0.1800   -0.1210 ca        1 QED     -0.246600
      2 C2          0.0230    1.3730   -0.2490 ca        1 QED      0.258100
      3 C3          0.9870    1.7070    0.7500 ca        1 QED      0.060100
      4 C4          1.1810    0.8820    1.8470 ca        1 QED     -0.060000
      5 C5          0.4120   -0.2960    1.9720 ca        1 QED     -0.079000
      6 C6         -0.5210   -0.6410    1.0230 ca        1 QED     -0.123000
      7 O7         -0.1910    2.1490   -1.3370 oh        1 QED     -0.474100
      8 O8          1.6530    2.8780    0.5020 oh        1 QED     -0.496100
      9 C9         -1.6840   -0.1120   -1.1530 c         1 QED      0.622700
     10 O10        -2.0690    0.5200   -2.1360 o         1 QED     -0.548100
     11 N11        -2.3850   -1.5030   -1.0670 n4        1 QED     -0.695800
     12 C12        -3.0910   -1.8890   -2.3150 c3        1 QED      0.096800
     13 C13        -4.4170   -1.1260   -2.5500 c3        1 QED      0.081800
     14 N14        -4.7670   -0.9660   -4.0100 n4        1 QED     -0.672400
     15 C15        -6.2630   -0.8830   -4.1860 c3        1 QED      0.076300
     16 C16        -6.9420   -2.2670   -4.3170 c3        1 QED      0.093800
     17 N17        -8.3720   -2.2670   -3.9180 n4        1 QED     -0.676800
     18 C18        -8.6010   -2.2190   -2.4010 c         1 QED      0.606800
     19 O19        -7.5670   -2.0340   -1.7570 o         1 QED     -0.547600
     20 C21        -4.1020    0.2610   -4.5850 c3        1 QED      0.076300
     21 C22        -3.8460    0.1590   -6.1060 c3        1 QED      0.093800
     22 N23        -3.7400    1.4710   -6.7920 n4        1 QED     -0.676800
     23 C24        -5.0780    2.1960   -6.9700 c         1 QED      0.606800
     24 N25       -11.0650   -2.3930   -2.8370 n         1 QED     -0.187500
     25 C26       -12.4050   -2.4620   -2.2430 c         1 QED      0.627200
     26 C27       -12.5210   -2.9330   -0.8500 cc        1 QED     -0.053700
     27 C28       -11.4230   -3.0640   -0.0700 cd        1 QED     -0.136000
     28 C29       -10.1210   -2.8040   -0.6050 cd        1 QED      0.064000
     29 O30       -10.9270   -1.4280   -3.7640 oh        1 QED     -0.507600
     30 O31       -13.3440   -2.1630   -2.9810 o         1 QED     -0.468500
     31 O32        -6.0030    1.6570   -6.3580 o         1 QED     -0.547600
     32 C33        -5.1040    3.4040   -7.7790 cc        1 QED     -0.169600
     33 N34        -3.9330    3.8780   -8.4500 n         1 QED     -0.187500
     34 C35        -4.1020    5.0550   -9.3140 c         1 QED      0.627200
     35 C36        -5.3410    5.8440   -9.1880 cc        1 QED     -0.053700
     36 C37        -6.3760    5.3940   -8.4430 cd        1 QED     -0.136000
     37 C38        -6.2620    4.1660   -7.7170 cd        1 QED      0.064000
     38 O39        -3.2510    2.8790   -9.0370 oh        1 QED     -0.507600
     39 O40        -3.1570    5.3210  -10.0560 o         1 QED     -0.468500
     40 C41        -9.9610   -2.4160   -1.9260 cc        1 QED     -0.169600
     41 H4          1.9280    1.1360    2.6230 ha        1 QED      0.203000
     42 H5          0.5750   -0.9410    2.8570 ha        1 QED      0.197000
     43 H6         -1.1020   -1.5620    1.1810 ha        1 QED      0.127000
     44 HO7         0.4020    2.9310   -1.3050 ho        1 QED      0.500000
     45 HO8         2.2990    3.0430    1.2130 ho        1 QED      0.486000
     46 HN11       -3.0320   -1.4920   -0.2700 hn        1 QED      0.480300
     47 H12        -2.3650   -1.7130   -3.1650 hx        1 QED      0.124200
     48 H12A       -3.3120   -2.9970   -2.2580 hx        1 QED      0.124200
     49 H13        -5.2630   -1.6970   -2.0550 hx        1 QED      0.145700
     50 H13A       -4.3770   -0.0890   -2.0960 hx        1 QED      0.145700
     51 H15        -6.4700   -0.2790   -5.1240 hx        1 QED      0.147950
     52 H15A       -6.6800   -0.3090   -3.3040 hx        1 QED      0.147950
     53 H16        -6.8900   -2.6050   -5.3960 hx        1 QED      0.124950
     54 H16A       -6.4190   -3.0370   -3.6750 hx        1 QED      0.124950
     55 HN17       -8.8190   -3.1320   -4.2710 hn        1 QED      0.500550
     56 H21        -4.7580    1.1500   -4.3410 hx        1 QED      0.147950
     57 H21A       -3.1090    0.4000   -4.0530 hx        1 QED      0.147950
     58 H22        -2.8720   -0.3930   -6.2800 hx        1 QED      0.124950
     59 H22A       -4.6760   -0.4120   -6.6210 hx        1 QED      0.124950
     60 HN23       -3.3340    1.3080   -7.7390 hn        1 QED      0.500550
     61 H27       -13.5570   -3.1030   -0.4900 ha        1 QED      0.232500
     62 H28       -11.5020   -3.3770    0.9900 ha        1 QED      0.212000
     63 H29        -9.2390   -2.9430    0.0490 ha        1 QED      0.185500
     64 HO30      -11.7800   -1.3780   -4.2610 ho        1 QED      0.506500
     65 H36        -5.3740    6.7760   -9.7900 ha        1 QED      0.232500
     66 H37        -7.3280    5.9570   -8.3760 ha        1 QED      0.212000
     67 H38        -7.1100    3.8420   -7.0840 ha        1 QED      0.185500
     68 HO39       -2.5330    3.2910   -9.5790 ho        1 QED      0.506500
     69 H112       -1.6570   -2.2090   -0.8740 hn        1 QED      0.480300
     70 H141       -4.4230   -1.7920   -4.5210 hn        1 QED      0.452800
     71 H172       -8.8810   -1.4740   -4.3460 hn        1 QED      0.500550
     72 H232       -3.0970    2.1040   -6.2960 hn        1 QED      0.500550
@<TRIPOS>BOND
     1    1    2 ar  
     2    1    6 ar  
     3    1    9 1   
     4    2    3 ar  
     5    2    7 1   
     6    3    4 ar  
     7    3    8 1   
     8    4    5 ar  
     9    4   41 1   
    10    5    6 ar  
    11    5   42 1   
    12    6   43 1   
    13    7   44 1   
    14    8   45 1   
    15    9   10 2   
    16    9   11 1   
    17   11   12 1   
    18   11   46 1   
    19   11   69 1   
    20   12   13 1   
    21   12   47 1   
    22   12   48 1   
    23   13   14 1   
    24   13   49 1   
    25   13   50 1   
    26   14   15 1   
    27   14   20 1   
    28   14   70 1   
    29   15   16 1   
    30   15   51 1   
    31   15   52 1   
    32   16   17 1   
    33   16   53 1   
    34   16   54 1   
    35   17   18 1   
    36   17   55 1   
    37   17   71 1   
    38   18   19 2   
    39   18   40 1   
    40   20   21 1   
    41   20   56 1   
    42   20   57 1   
    43   21   22 1   
    44   21   58 1   
    45   21   59 1   
    46   22   23 1   
    47   22   60 1   
    48   22   72 1   
    49   23   31 2   
    50   23   32 1   
    51   24   25 1   
    52   24   29 1   
    53   24   40 1   
    54   25   26 1   
    55   25   30 2   
    56   26   27 2   
    57   26   61 1   
    58   27   28 1   
    59   27   62 1   
    60   28   40 2   
    61   28   63 1   
    62   29   64 1   
    63   32   33 1   
    64   32   37 2   
    65   33   34 1   
    66   33   38 1   
    67   34   35 1   
    68   34   39 2   
    69   35   36 2   
    70   35   65 1   
    71   36   37 1   
    72   36   66 1   
    73   37   67 1   
    74   38   68 1   
@<TRIPOS>SUBSTRUCTURE
     1 QED         1 TEMP              0 ****  ****    0 ROOT
