@<TRIPOS>MOLECULE
QEG
   71    73     1     0     0
SMALL
bcc


@<TRIPOS>ATOM
      1 O2         -0.4010    0.6520    0.3500 o         1 QEG     -0.613100
      2 S7          4.6650   -1.5080    8.0760 ss        1 QEG      0.044200
      3 C11         0.8380    0.7960    0.3060 c         1 QEG      0.654100
      4 C12         1.6980    0.7450    1.5570 c3        1 QEG     -0.149400
      5 C13         0.8580    0.3920    2.7700 c3        1 QEG     -0.034100
      6 C14         1.5870    1.2530    5.0100 ca        1 QEG     -0.123500
      7 C15         3.3490   -0.8840    5.3180 ca        1 QEG     -0.119500
      8 C16         3.2480    0.0810    6.3350 ca        1 QEG     -0.015000
      9 C17         2.3560    1.1490    6.1660 ca        1 QEG     -0.119500
     10 C18         4.0460   -0.0340    7.5310 cc        1 QEG     -0.054100
     11 C19         4.4120    0.9950    8.3810 cd        1 QEG     -0.138000
     12 C20         5.2110    0.5290    9.4780 cd        1 QEG     -0.066000
     13 C21         5.7320    1.3950   10.5160 ca        1 QEG     -0.006000
     14 C22         6.9320    1.0790   11.1710 ca        1 QEG     -0.120500
     15 C23         7.4310    1.9110   12.1700 ca        1 QEG     -0.131000
     16 C24         6.7410    3.0680   12.5300 ca        1 QEG     -0.133000
     17 C25         5.5470    3.3910   11.8850 ca        1 QEG     -0.131000
     18 C26         5.0440    2.5620   10.8850 ca        1 QEG     -0.120500
     19 C27         1.6900    0.2920    3.9980 ca        1 QEG     -0.072300
     20 C28         2.5780   -0.7790    4.1660 ca        1 QEG     -0.123500
     21 C29         5.4110   -0.8400    9.4000 cc        1 QEG     -0.174100
     22 N2          1.4970    1.0780   -0.8800 n         1 QEG     -0.540900
     23 C7          0.8510    0.9170   -2.1620 c3        1 QEG      0.015700
     24 C6          1.5470   -0.1780   -3.0190 c         1 QEG      0.627100
     25 O1          2.6930   -0.5810   -2.7370 o         1 QEG     -0.605100
     26 C8          0.8590    2.2120   -3.0070 c3        1 QEG     -0.094400
     27 C9         -0.5520    2.6250   -3.3650 c3        1 QEG     -0.149400
     28 C10        -0.5530    3.8000   -4.3270 c         1 QEG      0.654100
     29 O4E        -0.9760    4.9250   -3.9760 o         1 QEG     -0.647100
     30 N4         -0.1160    3.5910   -5.6060 n         1 QEG     -0.666000
     31 N1          0.8000   -0.6900   -4.0670 n         1 QEG     -0.505900
     32 C2          1.4490   -1.3020   -5.2110 c3        1 QEG      0.017700
     33 C1          1.8530   -0.2380   -6.2660 c         1 QEG      0.634100
     34 O9          1.4350    0.9500   -6.1920 o         1 QEG     -0.734100
     35 C3          0.5550   -2.3610   -5.8910 c3        1 QEG     -0.064400
     36 C4          1.1470   -3.7470   -5.7850 c3        1 QEG     -0.203400
     37 C5          2.2570   -4.0130   -6.8120 c         1 QEG      0.902600
     38 O8E         2.2370   -3.3780   -7.9150 o         1 QEG     -0.846300
     39 O8          3.1370   -4.8670   -6.5240 o         1 QEG     -0.846300
     40 N9          2.7200   -0.6150   -7.2430 n         1 QEG     -0.625000
     41 H12         2.5090   -0.0190    1.4220 hc        1 QEG      0.069700
     42 H12A        2.1870    1.7430    1.7060 hc        1 QEG      0.069700
     43 H13         0.0530    1.1650    2.8970 hc        1 QEG      0.068700
     44 H13A        0.3380   -0.5880    2.5840 hc        1 QEG      0.068700
     45 H14         0.8910    2.0970    4.8920 ha        1 QEG      0.138000
     46 H15         4.0480   -1.7270    5.4340 ha        1 QEG      0.132500
     47 H17         2.2600    1.9090    6.9560 ha        1 QEG      0.132500
     48 H19         4.1510    2.0460    8.2390 ha        1 QEG      0.157000
     49 H22         7.4830    0.1700   10.8860 ha        1 QEG      0.133500
     50 H23         8.3740    1.6550   12.6750 ha        1 QEG      0.129000
     51 H24         7.1370    3.7250   13.3180 ha        1 QEG      0.128000
     52 H25         4.9990    4.3020   12.1660 ha        1 QEG      0.129000
     53 H26         4.0980    2.8180   10.3830 ha        1 QEG      0.133500
     54 H28         2.6640   -1.5420    3.3770 ha        1 QEG      0.138000
     55 H29         5.9790   -1.4300   10.1190 h4        1 QEG      0.171000
     56 HN2         2.4900    0.9850   -0.8960 hn        1 QEG      0.320500
     57 H7         -0.2220    0.6040   -1.9680 h1        1 QEG      0.102700
     58 H8          1.4580    2.0420   -3.9440 hc        1 QEG      0.073700
     59 H8A         1.3550    3.0490   -2.4500 hc        1 QEG      0.073700
     60 H9         -1.1070    1.7680   -3.8290 hc        1 QEG      0.069700
     61 H9A        -1.1090    2.9360   -2.4410 hc        1 QEG      0.069700
     62 HN4        -0.0650    4.3540   -6.2320 hn        1 QEG      0.325500
     63 HN4A        0.2980    2.7280   -5.8720 hn        1 QEG      0.325500
     64 HN1        -0.0210   -0.1720   -4.3030 hn        1 QEG      0.294500
     65 H2          2.3980   -1.8000   -4.8390 h1        1 QEG      0.123700
     66 H3          0.4370   -2.1120   -6.9810 hc        1 QEG      0.048700
     67 H30        -0.4700   -2.3550   -5.4370 hc        1 QEG      0.048700
     68 H4          0.3400   -4.5000   -5.9780 hc        1 QEG      0.039200
     69 H31         1.5460   -3.9340   -4.7570 hc        1 QEG      0.039200
     70 HN9         2.8820   -1.5960   -7.4130 hn        1 QEG      0.335000
     71 HN9A        2.8950    0.0160   -7.9860 hn        1 QEG      0.335000
@<TRIPOS>BOND
     1    1    3 2   
     2    2   10 1   
     3    2   21 1   
     4    3    4 1   
     5    3   22 1   
     6    4    5 1   
     7    4   41 1   
     8    4   42 1   
     9    5   19 1   
    10    5   43 1   
    11    5   44 1   
    12    6    9 ar  
    13    6   19 ar  
    14    6   45 1   
    15    7    8 ar  
    16    7   20 ar  
    17    7   46 1   
    18    8    9 ar  
    19    8   10 1   
    20    9   47 1   
    21   10   11 2   
    22   11   12 1   
    23   11   48 1   
    24   12   13 1   
    25   12   21 2   
    26   13   14 ar  
    27   13   18 ar  
    28   14   15 ar  
    29   14   49 1   
    30   15   16 ar  
    31   15   50 1   
    32   16   17 ar  
    33   16   51 1   
    34   17   18 ar  
    35   17   52 1   
    36   18   53 1   
    37   19   20 ar  
    38   20   54 1   
    39   21   55 1   
    40   22   23 1   
    41   22   56 1   
    42   23   24 1   
    43   23   26 1   
    44   23   57 1   
    45   24   25 2   
    46   24   31 1   
    47   26   27 1   
    48   26   58 1   
    49   26   59 1   
    50   27   28 1   
    51   27   60 1   
    52   27   61 1   
    53   28   29 2   
    54   28   30 1   
    55   30   62 1   
    56   30   63 1   
    57   31   32 1   
    58   31   64 1   
    59   32   33 1   
    60   32   35 1   
    61   32   65 1   
    62   33   34 2   
    63   33   40 1   
    64   35   36 1   
    65   35   66 1   
    66   35   67 1   
    67   36   37 1   
    68   36   68 1   
    69   36   69 1   
    70   37   38 1   
    71   37   39 1   
    72   40   70 1   
    73   40   71 1   
@<TRIPOS>SUBSTRUCTURE
     1 QEG         1 TEMP              0 ****  ****    0 ROOT
