@<TRIPOS>MOLECULE
QEG
   71    73     1     0     0
SMALL
bcc


@<TRIPOS>ATOM
      1 O2         -1.3980   -1.4450   -2.0560 o         1 QEG     -0.612100
      2 S7          6.5220    2.3200    1.4520 ss        1 QEG      0.047200
      3 C11        -1.2100   -1.1790   -0.8520 c         1 QEG      0.654100
      4 C12         0.1580   -0.7890   -0.3190 c3        1 QEG     -0.149400
      5 C13         1.1780   -0.7430   -1.4400 c3        1 QEG     -0.034100
      6 C14         3.5710   -1.2100   -0.8500 ca        1 QEG     -0.123500
      7 C15         3.9680    1.4520   -0.1270 ca        1 QEG     -0.119000
      8 C16         5.0350    0.5430   -0.0300 ca        1 QEG     -0.015000
      9 C17         4.8200   -0.7940   -0.3970 ca        1 QEG     -0.119000
     10 C18         6.3260    0.9800    0.4430 cc        1 QEG     -0.055100
     11 C19         7.5480    0.3970    0.1610 cd        1 QEG     -0.138000
     12 C20         8.6340    1.0880    0.7940 cd        1 QEG     -0.067000
     13 C21        10.0220    0.6920    0.6650 ca        1 QEG     -0.006000
     14 C22        11.0460    1.6490    0.7490 ca        1 QEG     -0.120500
     15 C23        12.3800    1.2670    0.6260 ca        1 QEG     -0.131000
     16 C24        12.7110   -0.0720    0.4200 ca        1 QEG     -0.133000
     17 C25        11.7010   -1.0300    0.3360 ca        1 QEG     -0.131000
     18 C26        10.3650   -0.6530    0.4580 ca        1 QEG     -0.120500
     19 C27         2.5100   -0.3030   -0.9450 ca        1 QEG     -0.072300
     20 C28         2.7220    1.0320   -0.5800 ca        1 QEG     -0.123500
     21 C29         8.1730    2.1680    1.5300 cc        1 QEG     -0.174100
     22 N2         -2.2250   -1.2850    0.0850 n         1 QEG     -0.541900
     23 C7         -3.6100   -1.4030   -0.3090 c3        1 QEG      0.015700
     24 C6         -4.4470   -0.1850    0.1780 c         1 QEG      0.627100
     25 O1         -4.0150    0.5770    1.0640 o         1 QEG     -0.605100
     26 C8         -4.2930   -2.6660    0.2630 c3        1 QEG     -0.094400
     27 C9         -4.8430   -3.5280   -0.8530 c3        1 QEG     -0.149400
     28 C10        -5.6560   -4.6860   -0.3030 c         1 QEG      0.654100
     29 O4E        -5.2620   -5.8690   -0.4220 o         1 QEG     -0.646100
     30 N4         -6.8560   -4.4110    0.2960 n         1 QEG     -0.666000
     31 N1         -5.6590    0.0070   -0.4630 n         1 QEG     -0.505900
     32 C2         -6.7320    0.7390    0.1840 c3        1 QEG      0.017700
     33 C1         -7.5770   -0.1910    1.0970 c         1 QEG      0.634100
     34 O9         -7.4470   -1.4450    1.0520 o         1 QEG     -0.734100
     35 C3         -7.6700    1.4210   -0.8330 c3        1 QEG     -0.064400
     36 C4         -7.6140    2.9270   -0.7250 c3        1 QEG     -0.203400
     37 C5         -8.4520    3.4830    0.4370 c         1 QEG      0.902600
     38 O8E        -9.4670    2.8230    0.8310 o         1 QEG     -0.846300
     39 O8         -8.1060    4.5840    0.9420 o         1 QEG     -0.846300
     40 N9         -8.4220    0.3950    1.9850 n         1 QEG     -0.625000
     41 H12         0.0890    0.2170    0.1730 hc        1 QEG      0.069700
     42 H12A        0.4780   -1.5320    0.4590 hc        1 QEG      0.069700
     43 H13         1.2480   -1.7580   -1.9170 hc        1 QEG      0.068700
     44 H13A        0.8170   -0.0370   -2.2370 hc        1 QEG      0.068700
     45 H14         3.4190   -2.2620   -1.1370 ha        1 QEG      0.137500
     46 H15         4.1220    2.5060    0.1530 ha        1 QEG      0.132500
     47 H17         5.6450   -1.5180   -0.3220 ha        1 QEG      0.132500
     48 H19         7.6920   -0.4740   -0.4830 ha        1 QEG      0.157000
     49 H22        10.7890    2.7070    0.9050 ha        1 QEG      0.134000
     50 H23        13.1730    2.0260    0.6910 ha        1 QEG      0.128500
     51 H24        13.7640   -0.3710    0.3240 ha        1 QEG      0.128000
     52 H25        11.9580   -2.0870    0.1750 ha        1 QEG      0.128500
     53 H26         9.5730   -1.4140    0.3970 ha        1 QEG      0.134000
     54 H28         1.8950    1.7540   -0.6550 ha        1 QEG      0.137500
     55 H29         8.8020    2.8440    2.1070 h4        1 QEG      0.171000
     56 HN2        -2.0770   -0.8770    0.9820 hn        1 QEG      0.320500
     57 H7         -3.6410   -1.4410   -1.4420 h1        1 QEG      0.101700
     58 H8         -3.5690   -3.2720    0.8690 hc        1 QEG      0.073700
     59 H8A        -5.1240   -2.3600    0.9570 hc        1 QEG      0.073700
     60 H9         -5.4890   -2.9170   -1.5390 hc        1 QEG      0.069700
     61 H9A        -4.0030   -3.9540   -1.4620 hc        1 QEG      0.069700
     62 HN4        -7.1380   -3.4760    0.4720 hn        1 QEG      0.325500
     63 HN4A       -7.3750   -5.1480    0.7020 hn        1 QEG      0.325500
     64 HN1        -5.9770   -0.7560   -1.0220 hn        1 QEG      0.294500
     65 H2         -6.2560    1.5310    0.8420 h1        1 QEG      0.123700
     66 H3         -7.4050    1.1100   -1.8780 hc        1 QEG      0.048200
     67 H30        -8.7300    1.0950   -0.6490 hc        1 QEG      0.048200
     68 H4         -6.5590    3.2820   -0.6190 hc        1 QEG      0.039200
     69 H31        -8.0300    3.3730   -1.6660 hc        1 QEG      0.039200
     70 HN9        -8.6680    1.3660    1.8720 hn        1 QEG      0.335000
     71 HN9A       -9.0490   -0.1830    2.4890 hn        1 QEG      0.335000
@<TRIPOS>BOND
     1    1    3 2   
     2    2   10 1   
     3    2   21 1   
     4    3    4 1   
     5    3   22 1   
     6    4    5 1   
     7    4   41 1   
     8    4   42 1   
     9    5   19 1   
    10    5   43 1   
    11    5   44 1   
    12    6    9 ar  
    13    6   19 ar  
    14    6   45 1   
    15    7    8 ar  
    16    7   20 ar  
    17    7   46 1   
    18    8    9 ar  
    19    8   10 1   
    20    9   47 1   
    21   10   11 2   
    22   11   12 1   
    23   11   48 1   
    24   12   13 1   
    25   12   21 2   
    26   13   14 ar  
    27   13   18 ar  
    28   14   15 ar  
    29   14   49 1   
    30   15   16 ar  
    31   15   50 1   
    32   16   17 ar  
    33   16   51 1   
    34   17   18 ar  
    35   17   52 1   
    36   18   53 1   
    37   19   20 ar  
    38   20   54 1   
    39   21   55 1   
    40   22   23 1   
    41   22   56 1   
    42   23   24 1   
    43   23   26 1   
    44   23   57 1   
    45   24   25 2   
    46   24   31 1   
    47   26   27 1   
    48   26   58 1   
    49   26   59 1   
    50   27   28 1   
    51   27   60 1   
    52   27   61 1   
    53   28   29 2   
    54   28   30 1   
    55   30   62 1   
    56   30   63 1   
    57   31   32 1   
    58   31   64 1   
    59   32   33 1   
    60   32   35 1   
    61   32   65 1   
    62   33   34 2   
    63   33   40 1   
    64   35   36 1   
    65   35   66 1   
    66   35   67 1   
    67   36   37 1   
    68   36   68 1   
    69   36   69 1   
    70   37   38 1   
    71   37   39 1   
    72   40   70 1   
    73   40   71 1   
@<TRIPOS>SUBSTRUCTURE
     1 QEG         1 TEMP              0 ****  ****    0 ROOT
