@<TRIPOS>MOLECULE
QEH
   89    88     1     0     0
SMALL
bcc


@<TRIPOS>ATOM
      1 O1         -1.4310    1.6800    0.7650 o         1 QEH     -0.543000
      2 C1         -0.2050    1.6410    0.6500 c         1 QEH      0.632100
      3 O1A         0.5520    1.4610    1.7740 os        1 QEH     -0.444900
      4 C1A        -0.1550    1.3830    3.0250 c3        1 QEH      0.134400
      5 C2A         0.9160    1.4500    4.1160 c3        1 QEH      0.139100
      6 O2A         0.8900    2.7720    4.6340 oh        1 QEH     -0.610800
      7 C3A         0.6260    0.4150    5.2050 c3        1 QEH      0.132400
      8 O3A         1.5190    0.6450    6.2660 os        1 QEH     -0.583200
      9 P           1.3780   -0.4510    7.4690 p5        1 QEH      1.439800
     10 O1B         0.0350   -1.0270    7.4980 o         1 QEH     -0.816000
     11 O2B         2.4440   -1.5490    6.7770 os        1 QEH     -0.573200
     12 O3B         2.2180    0.0460    8.5850 o         1 QEH     -0.816000
     13 C2B         3.1850   -2.3200    7.6470 c3        1 QEH      0.199400
     14 C2          0.6290    1.7800   -0.5860 c3        1 QEH     -0.127400
     15 C3         -0.0560    1.1470   -1.7780 c3        1 QEH     -0.079400
     16 C4          0.7190    1.4160   -3.0500 c3        1 QEH     -0.078400
     17 C5          0.0480    0.7710   -4.2440 c3        1 QEH     -0.079400
     18 C6          0.8170    1.0440   -5.5190 c3        1 QEH     -0.078400
     19 C7          0.1450    0.4010   -6.7130 c3        1 QEH     -0.079400
     20 C8          0.9120    0.6740   -7.9890 c3        1 QEH     -0.078400
     21 C9          0.2390    0.0330   -9.1830 c3        1 QEH     -0.079400
     22 C10         1.0050    0.3070  -10.4590 c3        1 QEH     -0.078400
     23 C11         0.3310   -0.3330  -11.6530 c3        1 QEH     -0.079400
     24 C12         1.0970   -0.0580  -12.9300 c3        1 QEH     -0.078400
     25 C13         0.4220   -0.6970  -14.1240 c3        1 QEH     -0.079400
     26 C14         1.1880   -0.4220  -15.4000 c3        1 QEH     -0.078400
     27 C15         0.5120   -1.0600  -16.5950 c3        1 QEH     -0.079400
     28 C16         1.2780   -0.7850  -17.8720 c3        1 QEH     -0.079400
     29 C17         0.6030   -1.4230  -19.0670 c3        1 QEH     -0.080400
     30 C18         1.3620   -1.1510  -20.3410 c3        1 QEH     -0.092100
     31 C19         4.6950   -2.1480    7.3850 c3        1 QEH      0.091800
     32 C20         5.0740   -0.7030    9.3590 c3        1 QEH      0.079100
     33 C21         6.8260   -1.0440    7.7140 c3        1 QEH      0.079100
     34 N1          5.3510   -0.8960    7.9050 n4        1 QEH     -0.581800
     35 C22         4.8940    0.3030    7.1420 c3        1 QEH      0.079100
     36 H181        2.3990   -1.5600  -20.2760 hc        1 QEH      0.032700
     37 H182        1.4310   -0.0530  -20.5320 hc        1 QEH      0.032700
     38 H183        0.8480   -1.6290  -21.2090 hc        1 QEH      0.032700
     39 H171       -0.4430   -1.0270  -19.1610 hc        1 QEH      0.038700
     40 H172        0.5230   -2.5300  -18.9050 hc        1 QEH      0.038700
     41 H161        2.3240   -1.1800  -17.7760 hc        1 QEH      0.039200
     42 H162        1.3570    0.3230  -18.0320 hc        1 QEH      0.039200
     43 H151       -0.5330   -0.6650  -16.6910 hc        1 QEH      0.039700
     44 H152        0.4340   -2.1680  -16.4350 hc        1 QEH      0.039700
     45 H141        1.2660    0.6860  -15.5600 hc        1 QEH      0.039200
     46 H142        2.2330   -0.8170  -15.3040 hc        1 QEH      0.039200
     47 H131       -0.6240   -0.3020  -14.2210 hc        1 QEH      0.039700
     48 H132        0.3440   -1.8050  -13.9640 hc        1 QEH      0.039700
     49 H121        2.1430   -0.4530  -12.8330 hc        1 QEH      0.039200
     50 H122        1.1750    1.0500  -13.0900 hc        1 QEH      0.039200
     51 H111        0.2530   -1.4400  -11.4920 hc        1 QEH      0.039700
     52 H112       -0.7150    0.0610  -11.7500 hc        1 QEH      0.039700
     53 H101        2.0510   -0.0870  -10.3610 hc        1 QEH      0.039200
     54 H102        1.0830    1.4150  -10.6200 hc        1 QEH      0.039200
     55 H91         0.1620   -1.0750   -9.0210 hc        1 QEH      0.040200
     56 H92        -0.8080    0.4250   -9.2810 hc        1 QEH      0.040200
     57 H81         0.9890    1.7820   -8.1510 hc        1 QEH      0.039200
     58 H82         1.9580    0.2810   -7.8900 hc        1 QEH      0.039200
     59 H71         0.0690   -0.7070   -6.5500 hc        1 QEH      0.040700
     60 H72        -0.9020    0.7920   -6.8110 hc        1 QEH      0.040700
     61 H61         1.8630    0.6510   -5.4190 hc        1 QEH      0.039200
     62 H62         0.8930    2.1510   -5.6820 hc        1 QEH      0.039200
     63 H51        -0.9990    1.1630   -4.3430 hc        1 QEH      0.043200
     64 H52        -0.0290   -0.3360   -4.0800 hc        1 QEH      0.043200
     65 H41         1.7640    1.0210   -2.9460 hc        1 QEH      0.039200
     66 H42         0.7990    2.5230   -3.2160 hc        1 QEH      0.039200
     67 H31        -0.1470    0.0400   -1.6160 hc        1 QEH      0.057700
     68 H32        -1.0980    1.5540   -1.8690 hc        1 QEH      0.057700
     69 H21         1.6360    1.3150   -0.4160 hc        1 QEH      0.075700
     70 H22         0.7840    2.8780   -0.7620 hc        1 QEH      0.075700
     71 H1A1       -0.8720    2.2400    3.1060 h1        1 QEH      0.069200
     72 H1A2       -0.7130    0.4120    3.0510 h1        1 QEH      0.069200
     73 H2A         1.9360    1.2600    3.6760 h1        1 QEH      0.051700
     74 H1          1.3060    2.7380    5.5070 ho        1 QEH      0.424000
     75 H3A1        0.7860   -0.6260    4.8160 h1        1 QEH      0.054200
     76 H3A2       -0.4240    0.5090    5.5950 h1        1 QEH      0.054200
     77 H2B1        2.9830   -3.4120    7.4310 h1        1 QEH      0.054200
     78 H2B2        2.9350   -2.0950    8.7200 h1        1 QEH      0.054200
     79 H191        5.2310   -3.0160    7.8600 hx        1 QEH      0.080200
     80 H192        4.8550   -2.1630    6.2700 hx        1 QEH      0.080200
     81 H201        5.2410   -1.6710    9.8950 hx        1 QEH      0.100144
     82 H202        5.7660    0.0830    9.7600 hx        1 QEH      0.100144
     83 H203        4.0040   -0.3560    9.5040 hx        1 QEH      0.100144
     84 H211        7.3390   -0.0980    8.0270 hx        1 QEH      0.100144
     85 H212        7.0430   -1.2450    6.6330 hx        1 QEH      0.100144
     86 H213        7.2010   -1.8960    8.3390 hx        1 QEH      0.100144
     87 H221        5.4260    1.2080    7.5310 hx        1 QEH      0.100144
     88 H222        5.1130    0.1540    6.0540 hx        1 QEH      0.100144
     89 H223        3.7750    0.4280    7.2920 hx        1 QEH      0.100144
@<TRIPOS>BOND
     1    1    2 2   
     2    2    3 1   
     3    2   14 1   
     4    3    4 1   
     5    4    5 1   
     6    4   71 1   
     7    4   72 1   
     8    5    6 1   
     9    5    7 1   
    10    5   73 1   
    11    6   74 1   
    12    7    8 1   
    13    7   75 1   
    14    7   76 1   
    15    8    9 1   
    16    9   10 1   
    17    9   11 1   
    18    9   12 1   
    19   11   13 1   
    20   13   31 1   
    21   13   77 1   
    22   13   78 1   
    23   14   15 1   
    24   14   69 1   
    25   14   70 1   
    26   15   16 1   
    27   15   67 1   
    28   15   68 1   
    29   16   17 1   
    30   16   65 1   
    31   16   66 1   
    32   17   18 1   
    33   17   63 1   
    34   17   64 1   
    35   18   19 1   
    36   18   61 1   
    37   18   62 1   
    38   19   20 1   
    39   19   59 1   
    40   19   60 1   
    41   20   21 1   
    42   20   57 1   
    43   20   58 1   
    44   21   22 1   
    45   21   55 1   
    46   21   56 1   
    47   22   23 1   
    48   22   53 1   
    49   22   54 1   
    50   23   24 1   
    51   23   51 1   
    52   23   52 1   
    53   24   25 1   
    54   24   49 1   
    55   24   50 1   
    56   25   26 1   
    57   25   47 1   
    58   25   48 1   
    59   26   27 1   
    60   26   45 1   
    61   26   46 1   
    62   27   28 1   
    63   27   43 1   
    64   27   44 1   
    65   28   29 1   
    66   28   41 1   
    67   28   42 1   
    68   29   30 1   
    69   29   39 1   
    70   29   40 1   
    71   30   36 1   
    72   30   37 1   
    73   30   38 1   
    74   31   34 1   
    75   31   79 1   
    76   31   80 1   
    77   32   34 1   
    78   32   81 1   
    79   32   82 1   
    80   32   83 1   
    81   33   34 1   
    82   33   84 1   
    83   33   85 1   
    84   33   86 1   
    85   34   35 1   
    86   35   87 1   
    87   35   88 1   
    88   35   89 1   
@<TRIPOS>SUBSTRUCTURE
     1 QEH         1 TEMP              0 ****  ****    0 ROOT
