@<TRIPOS>MOLECULE
QEH
   89    88     1     0     0
SMALL
bcc


@<TRIPOS>ATOM
      1 O1         -1.4950    1.5840    0.7830 o         1 QEH     -0.543000
      2 C1         -0.2680    1.5870    0.6660 c         1 QEH      0.632100
      3 O1A         0.4960    1.4260    1.7870 os        1 QEH     -0.444900
      4 C1A        -0.2040    1.3140    3.0380 c3        1 QEH      0.134400
      5 C2A         0.8660    1.4060    4.1280 c3        1 QEH      0.139100
      6 O2A         0.7950    2.7200    4.6620 oh        1 QEH     -0.610800
      7 C3A         0.6170    0.3480    5.2050 c3        1 QEH      0.132400
      8 O3A         1.5050    0.5960    6.2660 os        1 QEH     -0.583200
      9 P           1.4070   -0.5190    7.4550 p5        1 QEH      1.439800
     10 O1B         0.0840   -1.1420    7.4820 o         1 QEH     -0.816000
     11 O2B         2.5060   -1.5710    6.7450 os        1 QEH     -0.573200
     12 O3B         2.2340   -0.0080    8.5740 o         1 QEH     -0.816000
     13 C2B         3.2780   -2.3270    7.6010 c3        1 QEH      0.199400
     14 C2          0.5580    1.7610   -0.5710 c3        1 QEH     -0.127400
     15 C3         -0.1040    1.1060   -1.7640 c3        1 QEH     -0.079400
     16 C4          0.6580    1.4080   -3.0360 c3        1 QEH     -0.078400
     17 C5          0.0110    0.7420   -4.2310 c3        1 QEH     -0.079400
     18 C6          0.7680    1.0450   -5.5060 c3        1 QEH     -0.078400
     19 C7          0.1200    0.3800   -6.7010 c3        1 QEH     -0.079400
     20 C8          0.8770    0.6830   -7.9760 c3        1 QEH     -0.078400
     21 C9          0.2270    0.0200   -9.1710 c3        1 QEH     -0.079400
     22 C10         0.9840    0.3220  -10.4470 c3        1 QEH     -0.078400
     23 C11         0.3340   -0.3400  -11.6420 c3        1 QEH     -0.079400
     24 C12         1.0910   -0.0380  -12.9170 c3        1 QEH     -0.078400
     25 C13         0.4400   -0.6990  -14.1130 c3        1 QEH     -0.079400
     26 C14         1.1980   -0.3970  -15.3880 c3        1 QEH     -0.078400
     27 C15         0.5470   -1.0580  -16.5840 c3        1 QEH     -0.079400
     28 C16         1.3050   -0.7560  -17.8590 c3        1 QEH     -0.079400
     29 C17         0.6540   -1.4150  -19.0570 c3        1 QEH     -0.080400
     30 C18         1.4050   -1.1180  -20.3280 c3        1 QEH     -0.092100
     31 C19         4.7790   -2.0990    7.3350 c3        1 QEH      0.091800
     32 C20         5.1180   -0.6670    9.3260 c3        1 QEH      0.079100
     33 C21         6.8720   -0.9270    7.6700 c3        1 QEH      0.079100
     34 N1          5.3950   -0.8320    7.8690 n4        1 QEH     -0.581800
     35 C22         4.8930    0.3600    7.1230 c3        1 QEH      0.079100
     36 H181        2.4560   -1.4910  -20.2630 hc        1 QEH      0.032700
     37 H182        0.9090   -1.6130  -21.1980 hc        1 QEH      0.032700
     38 H183        1.4370   -0.0180  -20.5200 hc        1 QEH      0.032700
     39 H171       -0.4050   -1.0550  -19.1510 hc        1 QEH      0.038700
     40 H172        0.6110   -2.5250  -18.8950 hc        1 QEH      0.038700
     41 H161        2.3630   -1.1160  -17.7620 hc        1 QEH      0.039200
     42 H162        1.3470    0.3540  -18.0190 hc        1 QEH      0.039200
     43 H151       -0.5110   -0.6980  -16.6820 hc        1 QEH      0.039700
     44 H152        0.5050   -2.1670  -16.4250 hc        1 QEH      0.039700
     45 H141        1.2400    0.7130  -15.5480 hc        1 QEH      0.039200
     46 H142        2.2570   -0.7560  -15.2910 hc        1 QEH      0.039200
     47 H131       -0.6180   -0.3400  -14.2110 hc        1 QEH      0.039700
     48 H132        0.4000   -1.8090  -13.9540 hc        1 QEH      0.039700
     49 H121        1.1320    1.0720  -13.0770 hc        1 QEH      0.039200
     50 H122        2.1500   -0.3960  -12.8200 hc        1 QEH      0.039200
     51 H111       -0.7250    0.0170  -11.7400 hc        1 QEH      0.039700
     52 H112        0.2940   -1.4500  -11.4820 hc        1 QEH      0.039700
     53 H101        1.0230    1.4320  -10.6070 hc        1 QEH      0.039200
     54 H102        2.0430   -0.0350  -10.3490 hc        1 QEH      0.039200
     55 H91         0.1890   -1.0900   -9.0110 hc        1 QEH      0.040200
     56 H92        -0.8320    0.3760   -9.2700 hc        1 QEH      0.040200
     57 H81         1.9360    0.3270   -7.8780 hc        1 QEH      0.039200
     58 H82         0.9140    1.7930   -8.1360 hc        1 QEH      0.039200
     59 H71         0.0830   -0.7300   -6.5400 hc        1 QEH      0.040700
     60 H72        -0.9400    0.7340   -6.7990 hc        1 QEH      0.040700
     61 H61         1.8280    0.6910   -5.4070 hc        1 QEH      0.039200
     62 H62         0.8040    2.1550   -5.6670 hc        1 QEH      0.039200
     63 H51        -0.0250   -0.3680   -4.0690 hc        1 QEH      0.043200
     64 H52        -1.0500    1.0950   -4.3290 hc        1 QEH      0.043200
     65 H41         1.7180    1.0520   -2.9350 hc        1 QEH      0.039200
     66 H42         0.6960    2.5180   -3.1990 hc        1 QEH      0.039200
     67 H31        -1.1620    1.4730   -1.8530 hc        1 QEH      0.057700
     68 H32        -0.1530   -0.0040   -1.6050 hc        1 QEH      0.057700
     69 H21         1.5820    1.3350   -0.4040 hc        1 QEH      0.075700
     70 H22         0.6700    2.8660   -0.7440 hc        1 QEH      0.075700
     71 H1A1       -0.7320    0.3270    3.0570 h1        1 QEH      0.069200
     72 H1A2       -0.9480    2.1490    3.1280 h1        1 QEH      0.069200
     73 H2A         1.8910    1.2580    3.6830 h1        1 QEH      0.051700
     74 H1          1.2140    2.6900    5.5340 ho        1 QEH      0.424000
     75 H3A1        0.8110   -0.6820    4.8020 h1        1 QEH      0.054200
     76 H3A2       -0.4350    0.4010    5.5990 h1        1 QEH      0.054200
     77 H2B1        3.0250   -2.1240    8.6790 h1        1 QEH      0.054200
     78 H2B2        3.1120   -3.4230    7.3720 h1        1 QEH      0.054200
     79 H191        4.9350   -2.0950    6.2200 hx        1 QEH      0.080200
     80 H192        5.3480   -2.9550    7.7970 hx        1 QEH      0.080200
     81 H201        5.3210   -1.6360    9.8490 hx        1 QEH      0.100144
     82 H202        4.0370   -0.3600    9.4810 hx        1 QEH      0.100144
     83 H203        5.7840    0.1360    9.7340 hx        1 QEH      0.100144
     84 H211        7.3540    0.0320    7.9930 hx        1 QEH      0.100144
     85 H212        7.0910   -1.1070    6.5850 hx        1 QEH      0.100144
     86 H213        7.2800   -1.7740    8.2820 hx        1 QEH      0.100144
     87 H221        5.3950    1.2780    7.5210 hx        1 QEH      0.100144
     88 H222        3.7710    0.4450    7.2800 hx        1 QEH      0.100144
     89 H223        5.1110    0.2330    6.0320 hx        1 QEH      0.100144
@<TRIPOS>BOND
     1    1    2 2   
     2    2    3 1   
     3    2   14 1   
     4    3    4 1   
     5    4    5 1   
     6    4   71 1   
     7    4   72 1   
     8    5    6 1   
     9    5    7 1   
    10    5   73 1   
    11    6   74 1   
    12    7    8 1   
    13    7   75 1   
    14    7   76 1   
    15    8    9 1   
    16    9   10 1   
    17    9   11 1   
    18    9   12 1   
    19   11   13 1   
    20   13   31 1   
    21   13   77 1   
    22   13   78 1   
    23   14   15 1   
    24   14   69 1   
    25   14   70 1   
    26   15   16 1   
    27   15   67 1   
    28   15   68 1   
    29   16   17 1   
    30   16   65 1   
    31   16   66 1   
    32   17   18 1   
    33   17   63 1   
    34   17   64 1   
    35   18   19 1   
    36   18   61 1   
    37   18   62 1   
    38   19   20 1   
    39   19   59 1   
    40   19   60 1   
    41   20   21 1   
    42   20   57 1   
    43   20   58 1   
    44   21   22 1   
    45   21   55 1   
    46   21   56 1   
    47   22   23 1   
    48   22   53 1   
    49   22   54 1   
    50   23   24 1   
    51   23   51 1   
    52   23   52 1   
    53   24   25 1   
    54   24   49 1   
    55   24   50 1   
    56   25   26 1   
    57   25   47 1   
    58   25   48 1   
    59   26   27 1   
    60   26   45 1   
    61   26   46 1   
    62   27   28 1   
    63   27   43 1   
    64   27   44 1   
    65   28   29 1   
    66   28   41 1   
    67   28   42 1   
    68   29   30 1   
    69   29   39 1   
    70   29   40 1   
    71   30   36 1   
    72   30   37 1   
    73   30   38 1   
    74   31   34 1   
    75   31   79 1   
    76   31   80 1   
    77   32   34 1   
    78   32   81 1   
    79   32   82 1   
    80   32   83 1   
    81   33   34 1   
    82   33   84 1   
    83   33   85 1   
    84   33   86 1   
    85   34   35 1   
    86   35   87 1   
    87   35   88 1   
    88   35   89 1   
@<TRIPOS>SUBSTRUCTURE
     1 QEH         1 TEMP              0 ****  ****    0 ROOT
