@<TRIPOS>MOLECULE
QEH
   89    88     1     0     0
SMALL
bcc


@<TRIPOS>ATOM
      1 O1         -1.5750    1.4870    0.7980 o         1 QEH     -0.543000
      2 C1         -0.3500    1.5400    0.6790 c         1 QEH      0.632100
      3 O1A         0.4230    1.3970    1.7970 os        1 QEH     -0.444900
      4 C1A        -0.2700    1.2450    3.0480 c3        1 QEH      0.134400
      5 C2A         0.7990    1.3610    4.1360 c3        1 QEH      0.140100
      6 O2A         0.6830    2.6640    4.6880 oh        1 QEH     -0.610800
      7 C3A         0.5910    0.2810    5.2000 c3        1 QEH      0.132400
      8 O3A         1.4730    0.5460    6.2610 os        1 QEH     -0.583200
      9 P           1.4170   -0.5870    7.4370 p5        1 QEH      1.439800
     10 O1B         0.1160   -1.2540    7.4610 o         1 QEH     -0.816000
     11 O2B         2.5480   -1.5930    6.7090 os        1 QEH     -0.573200
     12 O3B         2.2320   -0.0630    8.5590 o         1 QEH     -0.816000
     13 C2B         3.3480   -2.3340    7.5530 c3        1 QEH      0.199400
     14 C2          0.4650    1.7590   -0.5580 c3        1 QEH     -0.127400
     15 C3         -0.1620    1.0720   -1.7520 c3        1 QEH     -0.079400
     16 C4          0.5840    1.4150   -3.0230 c3        1 QEH     -0.078400
     17 C5         -0.0270    0.7150   -4.2190 c3        1 QEH     -0.079400
     18 C6          0.7130    1.0600   -5.4930 c3        1 QEH     -0.078400
     19 C7          0.1040    0.3580   -6.6880 c3        1 QEH     -0.079400
     20 C8          0.8430    0.7030   -7.9630 c3        1 QEH     -0.078400
     21 C9          0.2340    0.0020   -9.1580 c3        1 QEH     -0.079400
     22 C10         0.9720    0.3460  -10.4340 c3        1 QEH     -0.078400
     23 C11         0.3630   -0.3560  -11.6280 c3        1 QEH     -0.079400
     24 C12         1.1020   -0.0110  -12.9040 c3        1 QEH     -0.078400
     25 C13         0.4930   -0.7130  -14.0980 c3        1 QEH     -0.079400
     26 C14         1.2310   -0.3680  -15.3740 c3        1 QEH     -0.078400
     27 C15         0.6220   -1.0700  -16.5690 c3        1 QEH     -0.079400
     28 C16         1.3600   -0.7250  -17.8440 c3        1 QEH     -0.079400
     29 C17         0.7520   -1.4270  -19.0400 c3        1 QEH     -0.080400
     30 C18         1.4840   -1.0860  -20.3120 c3        1 QEH     -0.092100
     31 C19         4.8400   -2.0530    7.2850 c3        1 QEH      0.091800
     32 C20         5.1390   -0.6360    9.2930 c3        1 QEH      0.079100
     33 C21         6.8940   -0.8170    7.6270 c3        1 QEH      0.079100
     34 N1          5.4150   -0.7730    7.8330 n4        1 QEH     -0.581800
     35 C22         4.8710    0.4110    7.1040 c3        1 QEH      0.079100
     36 H181        1.4460    0.0130  -20.5070 hc        1 QEH      0.032700
     37 H182        2.5560   -1.3930  -20.2450 hc        1 QEH      0.032700
     38 H183        1.0200   -1.6130  -21.1800 hc        1 QEH      0.032700
     39 H171        0.7790   -2.5360  -18.8750 hc        1 QEH      0.038700
     40 H172       -0.3270   -1.1340  -19.1360 hc        1 QEH      0.038700
     41 H161        2.4390   -1.0170  -17.7460 hc        1 QEH      0.039200
     42 H162        1.3330    0.3850  -18.0060 hc        1 QEH      0.039200
     43 H151       -0.4570   -0.7770  -16.6670 hc        1 QEH      0.039700
     44 H152        0.6500   -2.1800  -16.4070 hc        1 QEH      0.039700
     45 H141        1.2030    0.7420  -15.5360 hc        1 QEH      0.039200
     46 H142        2.3100   -0.6600  -15.2750 hc        1 QEH      0.039200
     47 H131        0.5200   -1.8230  -13.9370 hc        1 QEH      0.039700
     48 H132       -0.5860   -0.4200  -14.1970 hc        1 QEH      0.039700
     49 H121        2.1800   -0.3030  -12.8050 hc        1 QEH      0.039200
     50 H122        1.0740    1.0990  -13.0660 hc        1 QEH      0.039200
     51 H111        0.3900   -1.4660  -11.4660 hc        1 QEH      0.039700
     52 H112       -0.7150   -0.0630  -11.7270 hc        1 QEH      0.039700
     53 H101        2.0510    0.0530  -10.3350 hc        1 QEH      0.039200
     54 H102        0.9450    1.4560  -10.5950 hc        1 QEH      0.039200
     55 H91        -0.8450    0.2950   -9.2570 hc        1 QEH      0.040200
     56 H92         0.2600   -1.1080   -8.9960 hc        1 QEH      0.040200
     57 H81         1.9210    0.4100   -7.8640 hc        1 QEH      0.039200
     58 H82         0.8160    1.8130   -8.1250 hc        1 QEH      0.039200
     59 H71        -0.9750    0.6520   -6.7870 hc        1 QEH      0.040700
     60 H72         0.1300   -0.7510   -6.5270 hc        1 QEH      0.040700
     61 H61         1.7910    0.7660   -5.3940 hc        1 QEH      0.039200
     62 H62         0.6860    2.1700   -5.6550 hc        1 QEH      0.039200
     63 H51        -1.1050    1.0100   -4.3170 hc        1 QEH      0.043200
     64 H52        -0.0010   -0.3950   -4.0570 hc        1 QEH      0.043200
     65 H41         0.5610    2.5250   -3.1860 hc        1 QEH      0.039200
     66 H42         1.6610    1.1180   -2.9220 hc        1 QEH      0.039200
     67 H31        -1.2370    1.3840   -1.8400 hc        1 QEH      0.057700
     68 H32        -0.1520   -0.0390   -1.5950 hc        1 QEH      0.057700
     69 H21         1.5100    1.3880   -0.3920 hc        1 QEH      0.075700
     70 H22         0.5190    2.8680   -0.7290 hc        1 QEH      0.075700
     71 H1A1       -0.7630    0.2390    3.0560 h1        1 QEH      0.069200
     72 H1A2       -1.0430    2.0510    3.1500 h1        1 QEH      0.069200
     73 H2A         1.8270    1.2550    3.6870 h1        1 QEH      0.051700
     74 H1          1.1060    2.6380    5.5570 ho        1 QEH      0.424000
     75 H3A1        0.8200   -0.7360    4.7830 h1        1 QEH      0.054200
     76 H3A2       -0.4610    0.2910    5.5980 h1        1 QEH      0.054200
     77 H2B1        3.2180   -3.4310    7.3100 h1        1 QEH      0.054200
     78 H2B2        3.0930   -2.1530    8.6340 h1        1 QEH      0.054200
     79 H191        4.9910   -2.0290    6.1680 hx        1 QEH      0.080200
     80 H192        5.4380   -2.8950    7.7330 hx        1 QEH      0.080200
     81 H201        5.3750   -1.6050    9.8020 hx        1 QEH      0.100144
     82 H202        4.0490   -0.3660    9.4550 hx        1 QEH      0.100144
     83 H203        5.7800    0.1830    9.7090 hx        1 QEH      0.100144
     84 H211        7.1150   -0.9750    6.5390 hx        1 QEH      0.100144
     85 H212        7.3320   -1.6570    8.2270 hx        1 QEH      0.100144
     86 H213        7.3460    0.1540    7.9610 hx        1 QEH      0.100144
     87 H221        3.7480    0.4570    7.2660 hx        1 QEH      0.100144
     88 H222        5.0900    0.3050    6.0110 hx        1 QEH      0.100144
     89 H223        5.3440    1.3400    7.5120 hx        1 QEH      0.100144
@<TRIPOS>BOND
     1    1    2 2   
     2    2    3 1   
     3    2   14 1   
     4    3    4 1   
     5    4    5 1   
     6    4   71 1   
     7    4   72 1   
     8    5    6 1   
     9    5    7 1   
    10    5   73 1   
    11    6   74 1   
    12    7    8 1   
    13    7   75 1   
    14    7   76 1   
    15    8    9 1   
    16    9   10 1   
    17    9   11 1   
    18    9   12 1   
    19   11   13 1   
    20   13   31 1   
    21   13   77 1   
    22   13   78 1   
    23   14   15 1   
    24   14   69 1   
    25   14   70 1   
    26   15   16 1   
    27   15   67 1   
    28   15   68 1   
    29   16   17 1   
    30   16   65 1   
    31   16   66 1   
    32   17   18 1   
    33   17   63 1   
    34   17   64 1   
    35   18   19 1   
    36   18   61 1   
    37   18   62 1   
    38   19   20 1   
    39   19   59 1   
    40   19   60 1   
    41   20   21 1   
    42   20   57 1   
    43   20   58 1   
    44   21   22 1   
    45   21   55 1   
    46   21   56 1   
    47   22   23 1   
    48   22   53 1   
    49   22   54 1   
    50   23   24 1   
    51   23   51 1   
    52   23   52 1   
    53   24   25 1   
    54   24   49 1   
    55   24   50 1   
    56   25   26 1   
    57   25   47 1   
    58   25   48 1   
    59   26   27 1   
    60   26   45 1   
    61   26   46 1   
    62   27   28 1   
    63   27   43 1   
    64   27   44 1   
    65   28   29 1   
    66   28   41 1   
    67   28   42 1   
    68   29   30 1   
    69   29   39 1   
    70   29   40 1   
    71   30   36 1   
    72   30   37 1   
    73   30   38 1   
    74   31   34 1   
    75   31   79 1   
    76   31   80 1   
    77   32   34 1   
    78   32   81 1   
    79   32   82 1   
    80   32   83 1   
    81   33   34 1   
    82   33   84 1   
    83   33   85 1   
    84   33   86 1   
    85   34   35 1   
    86   35   87 1   
    87   35   88 1   
    88   35   89 1   
@<TRIPOS>SUBSTRUCTURE
     1 QEH         1 TEMP              0 ****  ****    0 ROOT
