@<TRIPOS>MOLECULE
QEH
   89    88     1     0     0
SMALL
bcc


@<TRIPOS>ATOM
      1 O1         -2.0340   -3.2060   -1.9410 o         1 QEH     -0.543000
      2 C1         -2.0520   -1.9780   -1.8420 c         1 QEH      0.632100
      3 O1A        -3.2480   -1.3560   -1.6210 os        1 QEH     -0.444900
      4 C1A        -4.4150   -2.1960   -1.5710 c3        1 QEH      0.134400
      5 C2A        -5.6150   -1.2470   -1.5710 c3        1 QEH      0.140100
      6 O2A        -6.1510   -1.2630   -2.8850 oh        1 QEH     -0.610800
      7 C3A        -6.6490   -1.7030   -0.5380 c3        1 QEH      0.132400
      8 O3A        -7.8010   -0.9170   -0.7070 os        1 QEH     -0.583200
      9 P          -8.9630   -1.2400    0.3950 p5        1 QEH      1.439800
     10 O1B        -8.8410   -2.6070    0.8980 o         1 QEH     -0.816000
     11 O2B        -8.3640   -0.1670    1.5400 os        1 QEH     -0.573200
     12 O3B       -10.1680   -0.4960   -0.0400 o         1 QEH     -0.816000
     13 C2B        -9.2910    0.4380    2.3620 c3        1 QEH      0.199400
     14 C2         -0.9130   -1.0100   -1.9440 c3        1 QEH     -0.127400
     15 C3          0.3440   -1.5820   -1.3230 c3        1 QEH     -0.079400
     16 C4          1.5240   -0.6640   -1.5560 c3        1 QEH     -0.078400
     17 C5          2.7800   -1.2210   -0.9200 c3        1 QEH     -0.079400
     18 C6          3.9650   -0.3080   -1.1550 c3        1 QEH     -0.078400
     19 C7          5.2200   -0.8640   -0.5180 c3        1 QEH     -0.079400
     20 C8          6.4050    0.0480   -0.7520 c3        1 QEH     -0.078400
     21 C9          7.6610   -0.5070   -0.1150 c3        1 QEH     -0.079400
     22 C10         8.8460    0.4050   -0.3490 c3        1 QEH     -0.078400
     23 C11        10.1010   -0.1510    0.2880 c3        1 QEH     -0.079400
     24 C12        11.2870    0.7610    0.0540 c3        1 QEH     -0.078400
     25 C13        12.5420    0.2050    0.6910 c3        1 QEH     -0.079400
     26 C14        13.7270    1.1170    0.4570 c3        1 QEH     -0.078400
     27 C15        14.9820    0.5610    1.0950 c3        1 QEH     -0.079400
     28 C16        16.1680    1.4730    0.8610 c3        1 QEH     -0.079400
     29 C17        17.4240    0.9180    1.4980 c3        1 QEH     -0.080400
     30 C18        18.6070    1.8220    1.2680 c3        1 QEH     -0.092100
     31 C19        -9.1900    1.9740    2.2680 c3        1 QEH      0.091800
     32 C20       -11.2190    2.2210    0.8730 c3        1 QEH      0.079100
     33 C21        -9.7580    4.1140    1.2860 c3        1 QEH      0.079100
     34 N1         -9.7990    2.6380    1.0610 n4        1 QEH     -0.581800
     35 C22        -9.0150    2.3260   -0.1710 c3        1 QEH      0.079100
     36 H181       18.8040    1.9440    0.1750 hc        1 QEH      0.032700
     37 H182       18.4210    2.8340    1.7040 hc        1 QEH      0.032700
     38 H183       19.5220    1.3950    1.7460 hc        1 QEH      0.032700
     39 H171       17.2580    0.7890    2.6010 hc        1 QEH      0.038700
     40 H172       17.6390   -0.0990    1.0760 hc        1 QEH      0.038700
     41 H161       16.3320    1.6010   -0.2410 hc        1 QEH      0.039200
     42 H162       15.9500    2.4890    1.2830 hc        1 QEH      0.039200
     43 H151       14.8190    0.4320    2.1970 hc        1 QEH      0.039700
     44 H152       15.2000   -0.4550    0.6730 hc        1 QEH      0.039700
     45 H141       13.8910    1.2450   -0.6450 hc        1 QEH      0.039200
     46 H142       13.5090    2.1330    0.8800 hc        1 QEH      0.039200
     47 H131       12.3790    0.0760    1.7940 hc        1 QEH      0.039700
     48 H132       12.7600   -0.8110    0.2690 hc        1 QEH      0.039700
     49 H121       11.4500    0.8890   -1.0490 hc        1 QEH      0.039200
     50 H122       11.0690    1.7770    0.4760 hc        1 QEH      0.039200
     51 H111        9.9380   -0.2800    1.3900 hc        1 QEH      0.039700
     52 H112       10.3190   -1.1670   -0.1350 hc        1 QEH      0.039700
     53 H101        9.0090    0.5330   -1.4520 hc        1 QEH      0.039200
     54 H102        8.6280    1.4210    0.0730 hc        1 QEH      0.039200
     55 H91         7.4980   -0.6370    0.9870 hc        1 QEH      0.040200
     56 H92         7.8790   -1.5240   -0.5380 hc        1 QEH      0.040200
     57 H81         6.5690    0.1770   -1.8550 hc        1 QEH      0.039200
     58 H82         6.1870    1.0640   -0.3300 hc        1 QEH      0.039200
     59 H71         5.0580   -0.9930    0.5840 hc        1 QEH      0.040700
     60 H72         5.4380   -1.8800   -0.9410 hc        1 QEH      0.040700
     61 H61         4.1280   -0.1790   -2.2570 hc        1 QEH      0.039200
     62 H62         3.7470    0.7080   -0.7320 hc        1 QEH      0.039200
     63 H51         2.6180   -1.3510    0.1820 hc        1 QEH      0.043200
     64 H52         2.9980   -2.2370   -1.3450 hc        1 QEH      0.043200
     65 H41         1.6880   -0.5310   -2.6580 hc        1 QEH      0.039200
     66 H42         1.3040    0.3500   -1.1290 hc        1 QEH      0.039200
     67 H31         0.1870   -1.7270   -0.2220 hc        1 QEH      0.057700
     68 H32         0.5500   -2.5940   -1.7640 hc        1 QEH      0.057700
     69 H21        -0.7500   -0.8020   -3.0360 hc        1 QEH      0.075700
     70 H22        -1.1930   -0.0440   -1.4490 hc        1 QEH      0.075700
     71 H1A1       -4.4310   -2.8700   -2.4670 h1        1 QEH      0.069200
     72 H1A2       -4.3670   -2.8070   -0.6330 h1        1 QEH      0.069200
     73 H2A        -5.2830   -0.1970   -1.3350 h1        1 QEH      0.051700
     74 H1         -7.0620   -0.9460   -2.8200 ho        1 QEH      0.424000
     75 H3A1       -6.9280   -2.7820   -0.6810 h1        1 QEH      0.054200
     76 H3A2       -6.2590   -1.5550    0.5050 h1        1 QEH      0.054200
     77 H2B1      -10.3370    0.0900    2.1380 h1        1 QEH      0.054200
     78 H2B2       -9.0340    0.2030    3.4380 h1        1 QEH      0.054200
     79 H191       -9.7010    2.4110    3.1710 hx        1 QEH      0.080200
     80 H192       -8.0970    2.2490    2.2770 hx        1 QEH      0.080200
     81 H201      -11.7510    2.2800    1.8560 hx        1 QEH      0.100144
     82 H202      -11.7040    2.9080    0.1310 hx        1 QEH      0.100144
     83 H203      -11.2600    1.1610    0.4700 hx        1 QEH      0.100144
     84 H211       -8.7020    4.4320    1.4840 hx        1 QEH      0.100144
     85 H212      -10.1410    4.6410    0.3730 hx        1 QEH      0.100144
     86 H213      -10.4020    4.3770    2.1660 hx        1 QEH      0.100144
     87 H221       -9.0510    1.2060   -0.3550 hx        1 QEH      0.100144
     88 H222       -9.4740    2.8610   -1.0410 hx        1 QEH      0.100144
     89 H223       -7.9530    2.6490   -0.0260 hx        1 QEH      0.100144
@<TRIPOS>BOND
     1    1    2 2   
     2    2    3 1   
     3    2   14 1   
     4    3    4 1   
     5    4    5 1   
     6    4   71 1   
     7    4   72 1   
     8    5    6 1   
     9    5    7 1   
    10    5   73 1   
    11    6   74 1   
    12    7    8 1   
    13    7   75 1   
    14    7   76 1   
    15    8    9 1   
    16    9   10 1   
    17    9   11 1   
    18    9   12 1   
    19   11   13 1   
    20   13   31 1   
    21   13   77 1   
    22   13   78 1   
    23   14   15 1   
    24   14   69 1   
    25   14   70 1   
    26   15   16 1   
    27   15   67 1   
    28   15   68 1   
    29   16   17 1   
    30   16   65 1   
    31   16   66 1   
    32   17   18 1   
    33   17   63 1   
    34   17   64 1   
    35   18   19 1   
    36   18   61 1   
    37   18   62 1   
    38   19   20 1   
    39   19   59 1   
    40   19   60 1   
    41   20   21 1   
    42   20   57 1   
    43   20   58 1   
    44   21   22 1   
    45   21   55 1   
    46   21   56 1   
    47   22   23 1   
    48   22   53 1   
    49   22   54 1   
    50   23   24 1   
    51   23   51 1   
    52   23   52 1   
    53   24   25 1   
    54   24   49 1   
    55   24   50 1   
    56   25   26 1   
    57   25   47 1   
    58   25   48 1   
    59   26   27 1   
    60   26   45 1   
    61   26   46 1   
    62   27   28 1   
    63   27   43 1   
    64   27   44 1   
    65   28   29 1   
    66   28   41 1   
    67   28   42 1   
    68   29   30 1   
    69   29   39 1   
    70   29   40 1   
    71   30   36 1   
    72   30   37 1   
    73   30   38 1   
    74   31   34 1   
    75   31   79 1   
    76   31   80 1   
    77   32   34 1   
    78   32   81 1   
    79   32   82 1   
    80   32   83 1   
    81   33   34 1   
    82   33   84 1   
    83   33   85 1   
    84   33   86 1   
    85   34   35 1   
    86   35   87 1   
    87   35   88 1   
    88   35   89 1   
@<TRIPOS>SUBSTRUCTURE
     1 QEH         1 TEMP              0 ****  ****    0 ROOT
