@<TRIPOS>MOLECULE
QEI
   37    37     1     0     0
SMALL
bcc


@<TRIPOS>ATOM
      1 C1        181.3560  119.0960  198.7370 c2        1 QEI      0.192000
      2 C2        181.9750  118.2720  197.6870 c3        1 QEI     -0.071000
      3 C3        180.0080  119.3730  198.9280 c2        1 QEI     -0.153000
      4 C4        178.0430  118.6000  197.3220 c2        1 QEI      0.111000
      5 C5        179.0200  118.9380  198.1340 c1        1 QEI     -0.025000
      6 C9       -111.9630  -74.5610 -122.6280 c2        1 QEI     -0.082000
      7 C10      -112.7630  -75.7880 -122.9840 c2        1 QEI      0.024000
      8 C11      -111.3020  -74.5950 -121.3030 c2        1 QEI      0.354000
      9 O1        180.9960  117.6940  196.8490 oh        1 QEI     -0.328000
     10 O2        177.2800  117.4840  197.3500 oh        1 QEI     -0.171000
     11 N1       -110.6920  -71.6840 -122.8920 n8        1 QEI     -0.327000
     12 C7       -112.0500  -73.6630 -123.6550 c2        1 QEI     -0.090000
     13 C8       -112.9180  -74.2970 -124.6890 c2        1 QEI      0.159000
     14 N2       -113.3290  -75.5030 -124.3050 na        1 QEI     -0.117000
     15 N3       -112.9230  -76.8520 -122.2820 n2        1 QEI     -0.091000
     16 C12      -112.2760  -76.9140 -120.9300 c3        1 QEI      0.172000
     17 N5       -111.4360  -78.0840 -120.7440 n8        1 QEI     -0.356000
     18 N4       -111.6060  -75.6740 -120.4930 ns        1 QEI     -0.383000
     19 H1       -109.8440  -72.1780 -122.7010 hn        1 QEI      0.184000
     20 H2        182.6770  118.9320  197.0870 h1        1 QEI      0.160500
     21 H3        182.0820  119.5390  199.4570 ha        1 QEI      0.183000
     22 H4        177.7310  119.2650  196.4780 h4        1 QEI      0.247000
     23 H5        179.7350  120.0040  199.8050 ha        1 QEI      0.192000
     24 HO1       181.4650  117.1700  196.1810 ho        1 QEI      0.251000
     25 HO2       177.5580  116.8910  198.0700 ho        1 QEI      0.251000
     26 HN1       182.6010  117.4670  198.1840 h1        1 QEI      0.160500
     27 H8       -113.1950  -73.8300 -125.6540 h4        1 QEI      0.237000
     28 HN2      -113.9180  -76.1450 -124.8000 hn        1 QEI      0.316000
     29 HN5      -113.1860  -77.0370 -120.2360 h3        1 QEI      0.181000
     30 HN5A     -111.9630  -78.9330 -120.7450 hn        1 QEI      0.202000
     31 HN4      -111.1120  -75.7400 -119.6220 hn        1 QEI      0.285000
     32 C6       -111.4890  -72.2970 -123.8960 c3        1 QEI     -0.022000
     33 H6       -112.3720  -71.6180 -124.1090 h1        1 QEI      0.128500
     34 H6A      -110.8710  -72.3650 -124.8440 h1        1 QEI      0.128500
     35 H12      -111.1880  -71.5130 -122.0400 hn        1 QEI      0.184000
     36 H53      -110.6370  -78.1320 -121.3400 hn        1 QEI      0.202000
     37 O3       -110.5650  -73.6790 -120.9050 o         1 QEI     -0.291000
@<TRIPOS>BOND
     1    1    2 1   
     2    1    3 1   
     3    1   21 1   
     4    2    9 1   
     5    2   20 1   
     6    2   26 1   
     7    3    5 1   
     8    3   23 1   
     9    4    5 1   
    10    4   10 1   
    11    4   22 1   
    12    6    7 1   
    13    6    8 1   
    14    6   12 1   
    15    7   14 1   
    16    7   15 1   
    17    8   18 1   
    18    8   37 1   
    19    9   24 1   
    20   10   25 1   
    21   11   19 1   
    22   11   32 1   
    23   11   35 1   
    24   12   13 1   
    25   12   32 1   
    26   13   14 1   
    27   13   27 1   
    28   14   28 1   
    29   15   16 1   
    30   16   17 1   
    31   16   18 1   
    32   16   29 1   
    33   17   30 1   
    34   17   36 1   
    35   18   31 1   
    36   32   33 1   
    37   32   34 1   
@<TRIPOS>SUBSTRUCTURE
     1 QEI         1 TEMP              0 ****  ****    0 ROOT
