@<TRIPOS>MOLECULE
QEI
   35    32     1     0     0
SMALL
bcc


@<TRIPOS>ATOM
      1 C1          1.7020    1.3650    1.3010 c3        1 QEI     -0.005000
      2 C2          3.1750    0.6790    1.6430 c3        1 QEI     -0.055000
      3 C3          1.4770    2.0260    2.4050 c2        1 QEI     -0.136000
      4 C4          3.6260    1.3280    3.0640 c3        1 QEI      0.020000
      5 C5          2.6630    2.2420    3.2360 c2        1 QEI     -0.214000
      6 C6          0.0020    0.7820   -0.3290 c3        1 QEI     -0.016000
      7 C9         -1.8860   -0.8180   -1.4770 c1        1 QEI     -0.256000
      8 C10        -3.2200   -0.9250   -1.2000 c1        1 QEI      0.080000
      9 C11        -1.3130   -1.5400   -2.6490 c1        1 QEI      0.392000
     10 O1          3.9940    0.9610    0.7610 oh        1 QEI     -0.333000
     11 O2          5.0170    1.8820    3.0790 oh        1 QEI     -0.323000
     12 N1          0.6240    0.3820    0.9410 n3        1 QEI     -0.281000
     13 C7         -1.3250   -0.0020   -0.5340 c2        1 QEI     -0.061000
     14 C8         -2.3130    0.3900    0.3200 c1        1 QEI     -0.128000
     15 N2         -3.4830   -0.1820   -0.0950 n2        1 QEI     -0.164000
     16 N3         -4.0820   -1.7440   -2.0500 n1        1 QEI     -0.248000
     17 C12        -3.5350   -2.4350   -3.1700 c1        1 QEI      0.226000
     18 N5         -4.3630   -3.2060   -3.9850 n2        1 QEI     -0.326000
     19 N4         -2.1520   -2.3300   -3.4650 n3        1 QEI     -0.342000
     20 O3         -0.1460   -1.3460   -2.9770 o         1 QEI     -0.378000
     21 H1          1.7290    1.9780    0.4620 h1        1 QEI      0.122000
     22 H2          3.0850   -0.3270    1.7330 h1        1 QEI      0.119000
     23 H3          0.7020    2.6660    2.4570 ha        1 QEI      0.149000
     24 H4          3.6560    0.6600    3.7990 h1        1 QEI      0.128000
     25 H5          2.5770    2.7120    4.1020 ha        1 QEI      0.146000
     26 H6          0.6290    0.5800   -1.0840 h1        1 QEI      0.089500
     27 H6A        -0.1910    1.7650   -0.3110 h1        1 QEI      0.089500
     28 HO1         4.5020    0.2280    0.5700 ho        1 QEI      0.211000
     29 HO2         5.4090    1.6640    3.8290 ho        1 QEI      0.209000
     30 HN1         1.0190   -0.5250    0.8470 hn        1 QEI      0.175000
     31 H8         -2.2010    0.9140    1.0880 DU        1 QEI      0.218500
     32 HN2        -4.3010   -0.0840    0.3020 DU        1 QEI      0.218500
     33 HN5        -4.0340   -3.5910   -4.6990 hn        1 QEI      0.211500
     34 HN5A       -5.2380   -3.3730   -3.7290 hn        1 QEI      0.211500
     35 HN4        -1.8050   -2.7750   -4.1840 hn        1 QEI      0.249000
@<TRIPOS>BOND
     1    1    2 1   
     2    1    3 1   
     3    1   12 1   
     4    1   21 1   
     5    2    4 1   
     6    2   10 1   
     7    2   22 1   
     8    3    5 1   
     9    3   23 1   
    10    4    5 1   
    11    4   11 1   
    12    4   24 1   
    13    5   25 1   
    14    6   12 1   
    15    6   13 1   
    16    6   26 1   
    17    6   27 1   
    18    7    8 1   
    19    7   13 1   
    20    8   15 1   
    21    9   19 1   
    22    9   20 1   
    23   10   28 1   
    24   11   29 1   
    25   12   30 1   
    26   13   14 1   
    27   14   15 1   
    28   16   17 1   
    29   17   19 1   
    30   18   33 1   
    31   18   34 1   
    32   19   35 1   
@<TRIPOS>SUBSTRUCTURE
     1 QEI         1 TEMP              0 ****  ****    0 ROOT
