@<TRIPOS>MOLECULE
QEI
   37    37     1     0     0
SMALL
bcc


@<TRIPOS>ATOM
      1 C1         -0.0830    0.1260    0.5050 ce        1 QEI     -0.192000
      2 C2          1.0450    0.6620    0.0020 c2        1 QEI      0.016100
      3 C3         -0.2990   -0.1070    1.9180 ce        1 QEI     -0.101100
      4 C4          1.4730    0.0930    3.8290 c2        1 QEI      0.079000
      5 C5          0.6050    0.0280    2.8490 c1        1 QEI     -0.200800
      6 C9         -2.4870   -2.6280   -2.9540 cc        1 QEI     -0.162000
      7 C10        -3.8800   -2.5060   -3.5280 cc        1 QEI      0.018700
      8 C11        -2.2860   -3.8170   -2.1280 c2        1 QEI      0.499100
      9 O1          1.1590    0.7780   -1.3720 oh        1 QEI     -0.587100
     10 O2          1.7540    1.1990    4.5770 oh        1 QEI     -0.474100
     11 N1          0.3960   -1.9670   -2.2270 n3        1 QEI     -0.946800
     12 C7         -1.7430   -1.5560   -3.3580 cc        1 QEI      0.021700
     13 C8         -2.6590   -0.7130   -4.2080 cd        1 QEI      0.144700
     14 N2         -3.8670   -1.2560   -4.2900 na        1 QEI     -0.074100
     15 N3         -4.8640   -3.3180   -3.3690 n2        1 QEI     -0.179200
     16 C12        -4.6890   -4.5240   -2.5150 c3        1 QEI      0.670900
     17 N5         -5.0660   -5.7600   -3.1190 n3        1 QEI     -0.941800
     18 N4         -3.3000   -4.6590   -1.9070 nh        1 QEI     -0.703000
     19 H1          0.6270   -1.4670   -1.3790 hn        1 QEI      0.423300
     20 H2          1.9040    0.9980    0.6050 h4        1 QEI      0.172000
     21 H3         -0.9180   -0.1420   -0.1620 ha        1 QEI      0.092000
     22 H4          2.1070   -0.7540    4.1600 h4        1 QEI      0.191000
     23 H5         -1.3280   -0.4120    2.1890 ha        1 QEI      0.130000
     24 HO1         1.8690    1.4110   -1.5520 ho        1 QEI      0.452000
     25 HO2         1.1520    1.9210    4.3380 ho        1 QEI      0.429000
     26 HN1         1.2420   -2.2970   -2.6560 hn        1 QEI      0.423300
     27 H8         -2.3680    0.2410   -4.7000 h4        1 QEI      0.267000
     28 HN2        -4.6750   -0.9120   -4.7890 hn        1 QEI      0.394700
     29 HN5        -5.3700   -4.3150   -1.6080 h3        1 QEI      0.173700
     30 HN5A       -6.0010   -6.0480   -2.9170 hn        1 QEI      0.450800
     31 HN4        -3.1370   -5.5030   -1.3720 hn        1 QEI      0.527800
     32 C6         -0.3430   -1.1150   -3.1310 c3        1 QEI      0.169100
     33 H6         -0.4310   -3.3800   -1.7040 ho        1 QEI      0.547000
     34 H6A         0.1580   -1.0630   -4.1490 h1        1 QEI      0.129200
     35 H12        -0.3810   -0.0460   -2.7350 h1        1 QEI      0.129200
     36 H53        -4.7670   -5.9350   -4.0530 hn        1 QEI      0.450800
     37 O3         -1.1350   -4.1140   -1.5400 oh        1 QEI     -0.443100
@<TRIPOS>BOND
     1    1    2 2   
     2    1    3 1   
     3    1   21 1   
     4    2    9 1   
     5    2   20 1   
     6    3    5 2   
     7    3   23 1   
     8    4    5 2   
     9    4   10 1   
    10    4   22 1   
    11    6    7 1   
    12    6    8 2   
    13    6   12 1   
    14    7   14 1   
    15    7   15 2   
    16    8   18 1   
    17    8   37 1   
    18    9   24 1   
    19   10   25 1   
    20   11   19 1   
    21   11   26 1   
    22   11   32 1   
    23   12   13 2   
    24   12   32 1   
    25   13   14 1   
    26   13   27 1   
    27   14   28 1   
    28   15   16 1   
    29   16   17 1   
    30   16   18 1   
    31   16   29 1   
    32   17   30 1   
    33   17   36 1   
    34   18   31 1   
    35   32   34 1   
    36   32   35 1   
    37   33   37 1   
@<TRIPOS>SUBSTRUCTURE
     1 QEI         1 TEMP              0 ****  ****    0 ROOT
