@<TRIPOS>MOLECULE
QEI
   35    37     1     0     0
SMALL
bcc


@<TRIPOS>ATOM
      1 C1         -2.7610    0.1060    0.0170 c3        1 QEI      0.160700
      2 C2         -3.8730   -0.9920    0.1620 c3        1 QEI      0.103100
      3 C3         -3.4270    1.1700   -0.8370 c2        1 QEI     -0.125200
      4 C4         -5.1980   -0.2880   -0.2550 c3        1 QEI      0.138300
      5 C5         -4.7470    0.9660   -0.9590 c2        1 QEI     -0.235200
      6 C9          2.1410    0.1550   -0.0670 cc        1 QEI     -0.273600
      7 C10         3.1520   -0.6300   -0.7160 cd        1 QEI      0.191100
      8 C11         2.5100    0.9920    1.0460 c         1 QEI      0.752100
      9 O1         -3.8780   -1.5350    1.4570 oh        1 QEI     -0.587800
     10 O2         -6.0160   -0.0280    0.8710 oh        1 QEI     -0.590800
     11 N1         -1.5270   -0.4170   -0.5440 n3        1 QEI     -0.811200
     12 C7          0.8980   -0.1190   -0.7290 cc        1 QEI     -0.080300
     13 C8          1.1770   -1.0440   -1.7420 cd        1 QEI     -0.141300
     14 N2          2.5420   -1.3570   -1.7360 na        1 QEI     -0.167100
     15 N3          4.4960   -0.6370   -0.3680 nd        1 QEI     -0.677100
     16 C12         4.8090    0.1380    0.6930 cc        1 QEI      0.671800
     17 N5          6.1320    0.0910    1.1990 nh        1 QEI     -0.887800
     18 N4          3.8900    0.9610    1.3790 n         1 QEI     -0.505400
     19 H1         -2.5880    0.5580    1.0440 h1        1 QEI      0.041700
     20 H2         -3.6780   -1.8640   -0.5200 h1        1 QEI      0.090700
     21 H3         -2.8400    1.9840   -1.2680 ha        1 QEI      0.148000
     22 H4         -5.8200   -0.9540   -0.9100 h1        1 QEI      0.091700
     23 H5         -5.4710    1.5890   -1.4860 ha        1 QEI      0.149000
     24 HO1        -4.4500   -0.9910    2.0160 ho        1 QEI      0.411000
     25 HO2        -5.7000    0.7860    1.2840 ho        1 QEI      0.403000
     26 HN1        -1.3180   -1.2990   -0.1110 hn        1 QEI      0.372800
     27 H8          0.5010   -1.5030   -2.4650 h4        1 QEI      0.183000
     28 HN2         2.9980   -1.9850   -2.3440 hn        1 QEI      0.309700
     29 HN5         6.7690   -0.4270    0.6310 hn        1 QEI      0.415300
     30 HN5A        6.4950    0.9670    1.5050 hn        1 QEI      0.415300
     31 HN4         4.1790    1.4710    2.1850 hn        1 QEI      0.333500
     32 C6         -0.4060    0.4990   -0.4020 c3        1 QEI      0.220100
     33 O3          1.7730    1.7260    1.7280 o         1 QEI     -0.635500
     34 H6         -0.5880    1.3590   -1.1140 h1        1 QEI      0.056200
     35 H6A        -0.3320    0.9410    0.6400 h1        1 QEI      0.056200
@<TRIPOS>BOND
     1    1    2 1   
     2    1    3 1   
     3    1   11 1   
     4    1   19 1   
     5    2    4 1   
     6    2    9 1   
     7    2   20 1   
     8    3    5 2   
     9    3   21 1   
    10    4    5 1   
    11    4   10 1   
    12    4   22 1   
    13    5   23 1   
    14    6    7 2   
    15    6    8 1   
    16    6   12 1   
    17    7   14 1   
    18    7   15 1   
    19    8   18 1   
    20    8   33 2   
    21    9   24 1   
    22   10   25 1   
    23   11   26 1   
    24   11   32 1   
    25   12   13 2   
    26   12   32 1   
    27   13   14 1   
    28   13   27 1   
    29   14   28 1   
    30   15   16 2   
    31   16   17 1   
    32   16   18 1   
    33   17   29 1   
    34   17   30 1   
    35   18   31 1   
    36   32   34 1   
    37   32   35 1   
@<TRIPOS>SUBSTRUCTURE
     1 QEI         1 TEMP              0 ****  ****    0 ROOT
