@<TRIPOS>MOLECULE
QEI
   37    37     1     0     0
SMALL
bcc


@<TRIPOS>ATOM
      1 C1        678.1340  233.5420  433.9350 c3        1 QEI      0.004000
      2 C2        678.7090  234.6360  434.8270 c2        1 QEI      0.290000
      3 C3        677.3300  234.2820  432.8800 c2        1 QEI     -0.127000
      4 C4        674.7800  233.9660  432.4300 c2        1 QEI      0.136000
      5 C5        676.0520  234.1320  432.7220 c1        1 QEI     -0.313000
      6 C9       -518.8370 -180.9990 -332.7880 c2        1 QEI     -0.415000
      7 C10      -518.4200 -182.3570 -333.1970 c2        1 QEI      0.139000
      8 C11      -518.0560 -180.4170 -331.7960 c2        1 QEI      0.344000
      9 O1        679.6850  235.3290  434.3230 oh        1 QEI     -0.112000
     10 O2        673.7420  234.7000  432.9050 oh        1 QEI     -0.210000
     11 N1        677.4510  232.6000  434.7690 n3        1 QEI     -0.377000
     12 C7       -520.0220 -180.6440 -333.5430 c2        1 QEI     -0.066000
     13 C8       -520.3030 -181.8400 -334.3790 c2        1 QEI      0.185000
     14 N2       -519.4060 -182.8000 -334.1860 na        1 QEI     -0.109000
     15 N3       -517.4040 -183.0400 -332.7790 n2        1 QEI     -0.213000
     16 C12      -516.5220 -182.3920 -331.7720 c3        1 QEI      0.186000
     17 N5       -515.1430 -182.2250 -332.2070 n3        1 QEI     -0.375000
     18 N4       -517.0440 -181.1070 -331.1940 n3        1 QEI     -0.300000
     19 H1        677.7610  231.6610  434.6300 hn        1 QEI      0.209000
     20 H2        678.3060  234.8350  435.8460 h4        1 QEI      0.204000
     21 H3        679.0110  233.0520  433.3970 h1        1 QEI      0.170000
     22 H4        674.4050  233.1660  431.7560 h4        1 QEI      0.211000
     23 H5        677.9480  234.9150  432.2180 ha        1 QEI      0.162000
     24 HO1       680.0130  236.0490  434.9150 ho        1 QEI      0.312000
     25 HO2       674.0660  235.4440  433.4370 ho        1 QEI      0.232000
     26 HN1       676.4550  232.6760  434.7220 hn        1 QEI      0.209000
     27 H8       -521.1520 -181.9350 -335.0830 h4        1 QEI      0.220000
     28 HN2      -519.3700 -183.7010 -334.6210 hn        1 QEI      0.307000
     29 HN5      -516.5220 -183.1120 -330.8800 h3        1 QEI      0.165000
     30 HN5A     -514.6240 -183.0740 -332.1200 hn        1 QEI      0.194500
     31 HN4      -516.4210 -180.6110 -330.5870 hn        1 QEI      0.281000
     32 C6       -520.7780 -179.5380 -333.5860 c2        1 QEI     -0.086000
     33 H6       -519.0690 -178.8030 -331.6340 ho        1 QEI      0.259000
     34 H6A      -521.6610 -179.4560 -334.2400 ha        1 QEI      0.153500
     35 H12      -520.5680 -178.6450 -332.9790 ha        1 QEI      0.153500
     36 H53      -515.0350 -181.8200 -333.1130 hn        1 QEI      0.194500
     37 O3       -518.2350 -179.1640 -331.2880 oh        1 QEI     -0.219000
@<TRIPOS>BOND
     1    1    2 1   
     2    1    3 1   
     3    1   11 1   
     4    1   21 1   
     5    2    9 1   
     6    2   20 1   
     7    3    5 1   
     8    3   23 1   
     9    4    5 1   
    10    4   10 1   
    11    4   22 1   
    12    6    7 1   
    13    6    8 1   
    14    6   12 1   
    15    7   14 1   
    16    7   15 1   
    17    8   18 1   
    18    8   37 1   
    19    9   24 1   
    20   10   25 1   
    21   11   19 1   
    22   11   26 1   
    23   12   13 1   
    24   12   32 1   
    25   13   14 1   
    26   13   27 1   
    27   14   28 1   
    28   15   16 1   
    29   16   17 1   
    30   16   18 1   
    31   16   29 1   
    32   17   30 1   
    33   17   36 1   
    34   18   31 1   
    35   32   34 1   
    36   32   35 1   
    37   33   37 1   
@<TRIPOS>SUBSTRUCTURE
     1 QEI         1 TEMP              0 ****  ****    0 ROOT
