@<TRIPOS>MOLECULE
QEJ
   15    15     1     0     0
SMALL
bcc


@<TRIPOS>ATOM
      1 C1         -0.0690   -0.2350    0.0500 c1        1 QEJ      0.188700
      2 N2         -1.1970   -0.5080    0.1100 n1        1 QEJ     -0.364800
      3 CA          1.3570    0.0840   -0.0270 c3        1 QEJ      0.224600
      4 CB          2.0000   -0.0020    1.3820 c3        1 QEJ     -0.088400
      5 CG          2.6180    1.3640    1.6440 c3        1 QEJ     -0.098400
      6 CD          2.4440    2.1690    0.3460 c3        1 QEJ      0.145800
      7 N           1.6610    1.3960   -0.6130 n3        1 QEJ     -0.795200
      8 HA          1.8350   -0.6840   -0.7100 h1        1 QEJ      0.093700
      9 HB2         1.2400   -0.2590    2.1590 hc        1 QEJ      0.060200
     10 HB3         2.7800   -0.8030    1.3860 hc        1 QEJ      0.060200
     11 HG2         2.1040    1.8770    2.4940 hc        1 QEJ      0.053700
     12 HG3         3.7000    1.2730    1.9050 hc        1 QEJ      0.053700
     13 HD2         3.4460    2.3590   -0.1290 h1        1 QEJ      0.049700
     14 HD3         1.9740    3.1660    0.5620 h1        1 QEJ      0.049700
     15 H           0.8260    1.8820   -0.8760 hn        1 QEJ      0.367800
@<TRIPOS>BOND
     1    1    2 3   
     2    1    3 1   
     3    3    4 1   
     4    3    7 1   
     5    3    8 1   
     6    4    5 1   
     7    4    9 1   
     8    4   10 1   
     9    5    6 1   
    10    5   11 1   
    11    5   12 1   
    12    6    7 1   
    13    6   13 1   
    14    6   14 1   
    15    7   15 1   
@<TRIPOS>SUBSTRUCTURE
     1 QEJ         1 TEMP              0 ****  ****    0 ROOT
