@<TRIPOS>MOLECULE
QEJ
   15    15     1     0     0
SMALL
bcc


@<TRIPOS>ATOM
      1 C1         -0.0490   -0.2200    0.0150 c1        1 QEJ      0.188700
      2 N2         -1.1820   -0.4770    0.0450 n1        1 QEJ     -0.364800
      3 CA          1.3820    0.0790   -0.0230 c3        1 QEJ      0.224600
      4 CB          1.9800    0.0100    1.4060 c3        1 QEJ     -0.088400
      5 CG          2.6060    1.3730    1.6650 c3        1 QEJ     -0.098400
      6 CD          2.4830    2.1570    0.3490 c3        1 QEJ      0.145800
      7 N           1.7220    1.3760   -0.6210 n3        1 QEJ     -0.795200
      8 HA          1.8700   -0.7070   -0.6770 h1        1 QEJ      0.093700
      9 HB2         1.1940   -0.2250    2.1630 hc        1 QEJ      0.060200
     10 HB3         2.7500   -0.7990    1.4480 hc        1 QEJ      0.060200
     11 HG2         3.6780    1.2740    1.9620 hc        1 QEJ      0.053700
     12 HG3         2.0720    1.9070    2.4890 hc        1 QEJ      0.053700
     13 HD2         2.0180    3.1630    0.5330 h1        1 QEJ      0.049700
     14 HD3         3.5020    2.3290   -0.0970 h1        1 QEJ      0.049700
     15 H           0.9020    1.8680   -0.9210 hn        1 QEJ      0.367800
@<TRIPOS>BOND
     1    1    2 3   
     2    1    3 1   
     3    3    4 1   
     4    3    7 1   
     5    3    8 1   
     6    4    5 1   
     7    4    9 1   
     8    4   10 1   
     9    5    6 1   
    10    5   11 1   
    11    5   12 1   
    12    6    7 1   
    13    6   13 1   
    14    6   14 1   
    15    7   15 1   
@<TRIPOS>SUBSTRUCTURE
     1 QEJ         1 TEMP              0 ****  ****    0 ROOT
