@<TRIPOS>MOLECULE
QEJ
   15    15     1     0     0
SMALL
bcc


@<TRIPOS>ATOM
      1 C1         -0.0430   -0.2300    0.0170 c1        1 QEJ      0.188700
      2 N2         -1.1740   -0.4940    0.0490 n1        1 QEJ     -0.364800
      3 CA          1.3860    0.0800   -0.0240 c3        1 QEJ      0.224600
      4 CB          1.9880    0.0120    1.4040 c3        1 QEJ     -0.088400
      5 CG          2.6050    1.3790    1.6640 c3        1 QEJ     -0.098400
      6 CD          2.4730    2.1640    0.3500 c3        1 QEJ      0.145800
      7 N           1.7150    1.3810   -0.6200 n7        1 QEJ     -0.795200
      8 HA          1.8780   -0.7020   -0.6810 h1        1 QEJ      0.093700
      9 HB2         1.2050   -0.2310    2.1620 hc        1 QEJ      0.060200
     10 HB3         2.7630   -0.7930    1.4420 hc        1 QEJ      0.060200
     11 HG2         3.6790    1.2860    1.9580 hc        1 QEJ      0.053700
     12 HG3         2.0700    1.9070    2.4910 hc        1 QEJ      0.053700
     13 HD2         3.4900    2.3430   -0.0980 h1        1 QEJ      0.049700
     14 HD3         2.0020    3.1670    0.5370 h1        1 QEJ      0.049700
     15 H           0.8910    1.8680   -0.9160 hn        1 QEJ      0.367800
@<TRIPOS>BOND
     1    1    2 3   
     2    1    3 1   
     3    3    4 1   
     4    3    7 1   
     5    3    8 1   
     6    4    5 1   
     7    4    9 1   
     8    4   10 1   
     9    5    6 1   
    10    5   11 1   
    11    5   12 1   
    12    6    7 1   
    13    6   13 1   
    14    6   14 1   
    15    7   15 1   
@<TRIPOS>SUBSTRUCTURE
     1 QEJ         1 TEMP              0 ****  ****    0 ROOT
