@<TRIPOS>MOLECULE
QEJ
   15    15     1     0     0
SMALL
bcc


@<TRIPOS>ATOM
      1 C1         -1.6540    0.1420    0.0610 c1        1 QEJ      0.223700
      2 N2         -2.7050    0.2020   -0.4290 n1        1 QEJ     -0.372800
      3 CA         -0.3360    0.0750    0.6930 c3        1 QEJ      0.226600
      4 CB          0.5390    1.2710    0.2280 c3        1 QEJ     -0.094400
      5 CG          1.7350    0.6600   -0.4890 c3        1 QEJ     -0.104400
      6 CD          1.4990   -0.8600   -0.4890 c3        1 QEJ      0.147800
      7 N           0.3560   -1.1780    0.3590 n3        1 QEJ     -0.794200
      8 HA         -0.5120    0.1450    1.8100 h1        1 QEJ      0.068700
      9 HB2        -0.0350    1.9480   -0.4500 hc        1 QEJ      0.059700
     10 HB3         0.8610    1.8670    1.1160 hc        1 QEJ      0.059700
     11 HG2         1.8160    1.0410   -1.5360 hc        1 QEJ      0.053200
     12 HG3         2.6870    0.9100    0.0400 hc        1 QEJ      0.053200
     13 HD2         1.2480   -1.2090   -1.5290 h1        1 QEJ      0.054200
     14 HD3         2.4190   -1.4080   -0.1550 h1        1 QEJ      0.054200
     15 H           0.6450   -1.6400    1.2000 hn        1 QEJ      0.363800
@<TRIPOS>BOND
     1    1    2 3   
     2    1    3 1   
     3    3    4 1   
     4    3    7 1   
     5    3    8 1   
     6    4    5 1   
     7    4    9 1   
     8    4   10 1   
     9    5    6 1   
    10    5   11 1   
    11    5   12 1   
    12    6    7 1   
    13    6   13 1   
    14    6   14 1   
    15    7   15 1   
@<TRIPOS>SUBSTRUCTURE
     1 QEJ         1 TEMP              0 ****  ****    0 ROOT
