@<TRIPOS>MOLECULE
QEL
   51    48     1     0     0
SMALL
bcc


@<TRIPOS>ATOM
      1 C1         -3.0090   -2.2220   -5.9150 c1        1 QEL     -0.130500
      2 N1         -0.0390   -1.0200    1.2420 n3        1 QEL     -0.252000
      3 O1          1.8170   -0.5980    3.3270 oh        1 QEL     -0.314000
      4 C2          3.0420    3.8460    1.9670 c1        1 QEL     -0.186000
      5 O2          3.5340    5.5250    3.6740 oh        1 QEL     -0.251000
      6 C3          2.7900    3.2860    4.3000 c1        1 QEL     -0.186000
      7 C4         -2.0070   -2.1650   -3.3220 c1        1 QEL     -0.099500
      8 C5         -1.1380   -2.2230   -4.4110 c1        1 QEL     -0.099500
      9 C6         -1.6470   -2.2510   -5.7090 c2        1 QEL     -0.129000
     10 C7         -1.4490   -2.1680   -1.8810 c2        1 QEL     -0.123000
     11 C8         -1.0220   -0.6850   -1.4700 c3        1 QEL     -0.094000
     12 C9          0.4270   -0.6720   -1.1800 c3        1 QEL     -0.189000
     13 C01        -3.8780   -2.1650   -4.8300 c1        1 QEL     -0.130500
     14 C02        -3.3730   -2.1370   -3.5330 c2        1 QEL     -0.129000
     15 C10         0.7710   -1.4420    0.0910 c3        1 QEL     -0.066500
     16 C11        -1.4850   -1.0270    0.9590 c3        1 QEL     -0.066500
     17 C12        -1.8340   -0.2560   -0.3030 c3        1 QEL     -0.189000
     18 C13         0.3700    0.2990    1.6740 c3        1 QEL      0.001000
     19 C14         1.7760    0.2390    2.1970 c3        1 QEL      0.072000
     20 C15         2.2450    1.6560    2.5910 c2        1 QEL     -0.157000
     21 C16         2.5920    2.5680    1.6100 c2        1 QEL     -0.085000
     22 C18         3.1390    4.2000    3.3120 c2        1 QEL      0.081000
     23 C19         2.3420    2.0120    3.9440 c2        1 QEL     -0.085000
     24 C24        -0.5560    0.7770    2.7750 c3        1 QEL     -0.210000
     25 H1         -3.3680   -2.2420   -6.8300 ha        1 QEL      0.130000
     26 H2          3.2900    4.4970    1.2660 DU        1 QEL      0.139000
     27 HO2         4.4240    5.5710    3.7090 ho        1 QEL      0.218000
     28 H3          2.8590    3.5360    5.2490 DU        1 QEL      0.139000
     29 H5         -0.1700   -2.2430   -4.2640 DU        1 QEL      0.139000
     30 H6         -1.0370   -2.2910   -6.4740 ha        1 QEL      0.130500
     31 H7         -2.1400   -2.4920   -1.2640 ha        1 QEL      0.090500
     32 H7A        -0.6620   -2.7620   -1.8340 ha        1 QEL      0.090500
     33 H8         -1.2010   -0.0820   -2.2220 hc        1 QEL      0.088000
     34 H9          0.9070   -1.0760   -1.9360 hc        1 QEL      0.085750
     35 H9A         0.7200    0.2560   -1.0770 hc        1 QEL      0.085750
     36 H01        -4.8470   -2.1450   -4.9800 ha        1 QEL      0.130000
     37 H02        -3.9830   -2.0970   -2.7730 ha        1 QEL      0.130500
     38 H10         0.6230   -2.3850   -0.0660 h1        1 QEL      0.089750
     39 H10A        1.7110   -1.3020    0.3000 h1        1 QEL      0.089750
     40 H11        -1.9580   -0.6250    1.7170 h1        1 QEL      0.089750
     41 H11A       -1.7800   -1.9470    0.8560 h1        1 QEL      0.089750
     42 H12        -1.6780    0.7030   -0.1440 hc        1 QEL      0.085750
     43 H12A       -2.7870   -0.3950   -0.5070 hc        1 QEL      0.085750
     44 H13         0.3280    0.9190    0.9180 h1        1 QEL      0.070000
     45 H16         2.5240    2.3200    0.6640 ha        1 QEL      0.141000
     46 H19         2.0970    1.3660    4.6400 ha        1 QEL      0.141000
     47 H24        -0.6660    0.0570    3.4480 hc        1 QEL      0.084667
     48 H24A       -0.1700    1.5740    3.2070 hc        1 QEL      0.084667
     49 H24B       -1.4220    1.0020    2.3960 hc        1 QEL      0.084667
     50 H26         2.6120   -0.9760    3.3840 ho        1 QEL      0.198000
     51 H27         2.3640   -0.1180    1.5070 h1        1 QEL      0.086000
@<TRIPOS>BOND
     1    1    9 1   
     2    1   25 1   
     3    2   15 1   
     4    2   16 1   
     5    2   18 1   
     6    3   19 1   
     7    3   50 1   
     8    4   21 1   
     9    4   22 1   
    10    5   22 1   
    11    5   27 1   
    12    6   22 1   
    13    6   23 1   
    14    7    8 1   
    15    7   14 1   
    16    8    9 1   
    17    9   30 1   
    18   10   11 1   
    19   10   31 1   
    20   10   32 1   
    21   11   12 1   
    22   11   17 1   
    23   11   33 1   
    24   12   15 1   
    25   12   34 1   
    26   12   35 1   
    27   13   14 1   
    28   13   36 1   
    29   14   37 1   
    30   15   38 1   
    31   15   39 1   
    32   16   17 1   
    33   16   40 1   
    34   16   41 1   
    35   17   42 1   
    36   17   43 1   
    37   18   19 1   
    38   18   24 1   
    39   18   44 1   
    40   19   20 1   
    41   19   51 1   
    42   20   21 1   
    43   20   23 1   
    44   21   45 1   
    45   23   46 1   
    46   24   47 1   
    47   24   48 1   
    48   24   49 1   
@<TRIPOS>SUBSTRUCTURE
     1 QEL         1 TEMP              0 ****  ****    0 ROOT
