@<TRIPOS>MOLECULE
QEL
   51    49     1     0     0
SMALL
bcc


@<TRIPOS>ATOM
      1 C1          3.2720    1.6500    0.5730 c2        1 QEL     -0.240000
      2 N1         -0.4250    3.2470    6.4780 n2        1 QEL     -0.219000
      3 O1         -2.4950    0.8820    6.1190 oh        1 QEL     -0.401000
      4 C2          5.5870   10.4980    7.5290 c1        1 QEL     -0.317000
      5 C3          5.4000    8.7680    5.7910 c2        1 QEL     -0.420000
      6 C4          2.4990    0.3740    2.9830 c2        1 QEL     -0.054000
      7 C5          3.9050    0.8280    2.8170 c3        1 QEL     -0.206000
      8 C6          4.2700    1.4890    1.5690 c1        1 QEL     -0.093000
      9 C7          2.1350   -0.2980    4.2570 c3        1 QEL     -0.141000
     10 C8          1.9300    0.6890    5.4080 c3        1 QEL     -0.092000
     11 C9          0.6470    1.4780    5.1810 c3        1 QEL     -0.154000
     12 C01         1.9940    1.2090    0.7560 c2        1 QEL     -0.012000
     13 C02         1.6030    0.5630    1.9800 c2        1 QEL     -0.199000
     14 C10         0.6400    2.7730    5.9380 c2        1 QEL     -0.047000
     15 C11         2.2310    0.8010    7.9100 c3        1 QEL     -0.214000
     16 C12         1.9010   -0.0740    6.7280 c3        1 QEL     -0.158000
     17 C13        -0.4310    4.5240    7.1670 c3        1 QEL      0.066000
     18 C14         0.7250    5.3810    6.9670 c1        1 QEL     -0.232000
     19 C15         1.6590    6.1120    6.8030 c1        1 QEL     -0.186000
     20 C16         5.1600   11.0490    8.6190 c2        1 QEL     -0.087000
     21 C18         6.0070    9.9260    6.4210 c2        1 QEL      0.184000
     22 C19         4.3520    8.0670    6.1620 c1        1 QEL      0.204000
     23 C24        -0.6750    4.3530    8.6750 c3        1 QEL     -0.200000
     24 H1          3.5670    2.1470   -0.3640 ha        1 QEL      0.145000
     25 HO2         7.4750   11.1390    6.1620 ho        1 QEL      0.225000
     26 H3          5.9150    8.4410    4.8540 ha        1 QEL      0.221000
     27 H5          4.1760    1.5370    3.6570 hc        1 QEL      0.161000
     28 H6          4.6020   -0.0570    2.9280 hc        1 QEL      0.161000
     29 H7          2.9580   -1.0140    4.5300 hc        1 QEL      0.097000
     30 H7A         1.1970   -0.9010    4.1260 hc        1 QEL      0.097000
     31 H8          2.6450   -0.9150    6.6860 hc        1 QEL      0.084500
     32 H9          2.8050    1.3990    5.4250 hc        1 QEL      0.090000
     33 H9A        -0.2430    0.8400    5.4380 hc        1 QEL      0.114000
     34 H01         0.5590    0.2280    2.0750 ha        1 QEL      0.138000
     35 H02         1.2210    1.3310   -0.0200 ha        1 QEL      0.130000
     36 H10         0.5650    1.7380    4.0870 hc        1 QEL      0.114000
     37 H10A        1.6270    3.2900    5.9550 h4        1 QEL      0.111000
     38 H11         1.5050    1.6460    7.9950 hc        1 QEL      0.075333
     39 H11A        3.2570    1.2300    7.8110 hc        1 QEL      0.075333
     40 H12         2.1880    0.2030    8.8520 hc        1 QEL      0.075333
     41 H12A        0.8890   -0.5380    6.8690 hc        1 QEL      0.084500
     42 H13        -1.3330    5.0710    6.7350 h1        1 QEL      0.120000
     43 H16         5.5150   10.7390    9.6150 ha        1 QEL      0.127000
     44 H19         2.4910    6.7640    6.6560 ha        1 QEL      0.248000
     45 H24        -0.7620    5.3620    9.1430 hc        1 QEL      0.084333
     46 H24A        0.1700    3.8050    9.1550 hc        1 QEL      0.084333
     47 H24B       -1.6210    3.7880    8.8530 hc        1 QEL      0.084333
     48 H26        -2.4940    1.6980    5.6100 ho        1 QEL      0.200500
     49 H27        -2.1000    1.1430    6.9560 ho        1 QEL      0.200500
     50 H2          4.4140   11.8590    8.6180 ha        1 QEL      0.127000
     51 O2          7.1070   10.3700    5.7050 oh        1 QEL     -0.259000
@<TRIPOS>BOND
     1    1    8 1   
     2    1   12 1   
     3    1   24 1   
     4    2   14 1   
     5    2   17 1   
     6    3   48 1   
     7    3   49 1   
     8    4   20 1   
     9    4   21 1   
    10    5   21 1   
    11    5   22 1   
    12    5   26 1   
    13    6    7 1   
    14    6    9 1   
    15    6   13 1   
    16    7    8 1   
    17    7   27 1   
    18    7   28 1   
    19    9   10 1   
    20    9   29 1   
    21    9   30 1   
    22   10   11 1   
    23   10   16 1   
    24   10   32 1   
    25   11   14 1   
    26   11   33 1   
    27   11   36 1   
    28   12   13 1   
    29   12   35 1   
    30   13   34 1   
    31   14   37 1   
    32   15   16 1   
    33   15   38 1   
    34   15   39 1   
    35   15   40 1   
    36   16   31 1   
    37   16   41 1   
    38   17   18 1   
    39   17   23 1   
    40   17   42 1   
    41   18   19 1   
    42   19   44 1   
    43   20   43 1   
    44   20   50 1   
    45   21   51 1   
    46   23   45 1   
    47   23   46 1   
    48   23   47 1   
    49   25   51 1   
@<TRIPOS>SUBSTRUCTURE
     1 QEL         1 TEMP              0 ****  ****    0 ROOT
