@<TRIPOS>MOLECULE
QEL
   51    51     1     0     0
SMALL
bcc


@<TRIPOS>ATOM
      1 C1          0.0870    2.9560    0.0170 ca        1 QEL     -0.131000
      2 N1          0.8790    2.3810    7.0430 n2        1 QEL     -0.163000
      3 O1          5.7010    9.9410    8.4930 oh        1 QEL     -0.397000
      4 C2          3.1430    6.1760    9.0150 cu        1 QEL     -0.315000
      5 C3          1.5910    7.8520    8.0670 c2        1 QEL     -0.440000
      6 C4          1.3530    1.2190    1.8130 ca        1 QEL     -0.074000
      7 C5          2.0990    2.1610    1.0940 ca        1 QEL     -0.129000
      8 C6          1.4690    3.0260    0.2010 ca        1 QEL     -0.127000
      9 C7          2.0350    0.2870    2.7530 c3        1 QEL     -0.123000
     10 C8          2.4560    0.9740    4.0530 c3        1 QEL     -0.098000
     11 C9          1.2180    1.2940    4.8820 c3        1 QEL     -0.141000
     12 C01        -0.6610    2.0200    0.7290 ca        1 QEL     -0.127000
     13 C02        -0.0320    1.1550    1.6230 ca        1 QEL     -0.129000
     14 C10         1.4810    2.3580    5.9030 c2        1 QEL     -0.042000
     15 C11         4.2910    0.8490    5.7800 c3        1 QEL     -0.213000
     16 C12         3.4330    0.0800    4.8090 c3        1 QEL     -0.158000
     17 C13         1.1370    3.3980    7.9890 c2        1 QEL     -0.021000
     18 C14         2.3810    3.8640    8.2660 c2        1 QEL     -0.198000
     19 C15         2.6700    4.8200    9.3360 cx        1 QEL     -0.047000
     20 C16         4.1100    5.2430    9.5880 cx        1 QEL     -0.143000
     21 C18         2.8780    7.3900    8.5510 c2        1 QEL      0.195000
     22 C19         0.4430    7.2080    8.0150 c1        1 QEL      0.232000
     23 C24        -0.0530    3.8900    8.7530 c3        1 QEL     -0.176000
     24 H1         -0.4090    3.6380   -0.6890 ha        1 QEL      0.131000
     25 HO2         4.6750    8.0320    8.8170 ho        1 QEL      0.245000
     26 H3          1.5910    8.9030    7.6940 ha        1 QEL      0.209000
     27 H5          3.1880    2.2160    1.2370 ha        1 QEL      0.131500
     28 H6          2.0620    3.7620   -0.3600 ha        1 QEL      0.131500
     29 H7          2.9480   -0.1290    2.2460 hc        1 QEL      0.091000
     30 H7A         1.3640   -0.5790    2.9970 hc        1 QEL      0.091000
     31 H8          4.1030   -0.4410    4.0730 hc        1 QEL      0.082000
     32 H9          2.9800    1.9340    3.7850 hc        1 QEL      0.093000
     33 H9A         0.8280    0.3540    5.3570 hc        1 QEL      0.109500
     34 H01        -0.6270    0.4170    2.1820 ha        1 QEL      0.131500
     35 H02        -1.7500    1.9620    0.5860 ha        1 QEL      0.131500
     36 H10         0.4110    1.6810    4.1970 hc        1 QEL      0.109500
     37 H10A        2.2100    3.1330    5.5730 h4        1 QEL      0.103000
     38 H11         3.6630    1.3640    6.5480 hc        1 QEL      0.074333
     39 H11A        4.8960    1.6220    5.2470 hc        1 QEL      0.074333
     40 H12         4.9900    0.1550    6.3060 hc        1 QEL      0.074333
     41 H12A        2.8640   -0.7170    5.3560 hc        1 QEL      0.082000
     42 H13         3.2600    3.5090    7.7000 ha        1 QEL      0.126000
     43 H16         4.9100    4.8310    8.9440 hc        1 QEL      0.114500
     44 H19         2.0040    4.7100   10.2210 hc        1 QEL      0.128000
     45 H24         0.0520    3.6100    9.8310 hc        1 QEL      0.093000
     46 H24A       -1.0130    3.4630    8.3730 hc        1 QEL      0.093000
     47 H24B       -0.1080    5.0070    8.6740 hc        1 QEL      0.093000
     48 H26         5.3480    9.9080    7.5980 ho        1 QEL      0.201000
     49 H27         4.9870   10.3390    9.0000 ho        1 QEL      0.201000
     50 H2          4.4480    5.3850   10.6310 hc        1 QEL      0.114500
     51 O2          3.8340    8.3890    8.4830 oh        1 QEL     -0.292000
@<TRIPOS>BOND
     1    1    8 1   
     2    1   12 1   
     3    1   24 1   
     4    2   14 1   
     5    2   17 1   
     6    3   48 1   
     7    3   49 1   
     8    4   19 1   
     9    4   20 1   
    10    4   21 1   
    11    5   21 1   
    12    5   22 1   
    13    5   26 1   
    14    6    7 1   
    15    6    9 1   
    16    6   13 1   
    17    7    8 1   
    18    7   27 1   
    19    8   28 1   
    20    9   10 1   
    21    9   29 1   
    22    9   30 1   
    23   10   11 1   
    24   10   16 1   
    25   10   32 1   
    26   11   14 1   
    27   11   33 1   
    28   11   36 1   
    29   12   13 1   
    30   12   35 1   
    31   13   34 1   
    32   14   37 1   
    33   15   16 1   
    34   15   38 1   
    35   15   39 1   
    36   15   40 1   
    37   16   31 1   
    38   16   41 1   
    39   17   18 1   
    40   17   23 1   
    41   18   19 1   
    42   18   42 1   
    43   19   20 1   
    44   19   44 1   
    45   20   43 1   
    46   20   50 1   
    47   21   51 1   
    48   23   45 1   
    49   23   46 1   
    50   23   47 1   
    51   25   51 1   
@<TRIPOS>SUBSTRUCTURE
     1 QEL         1 TEMP              0 ****  ****    0 ROOT
