@<TRIPOS>MOLECULE
QEL
   51    53     1     0     0
SMALL
bcc


@<TRIPOS>ATOM
      1 C1         -7.1370    0.5800   -1.7010 ca        1 QEL     -0.133000
      2 N1          0.1010    0.2000    0.7560 n3        1 QEL     -0.733600
      3 O1          2.5900   -1.0300    1.9090 oh        1 QEL     -0.588800
      4 C2          5.1380   -0.0210   -2.0810 ca        1 QEL     -0.183500
      5 C3          6.1890    0.0650    0.1200 ca        1 QEL     -0.183500
      6 C4         -5.1560   -0.3340    0.0570 ca        1 QEL     -0.076300
      7 C5         -5.4090   -1.0130   -1.1410 ca        1 QEL     -0.128500
      8 C6         -6.3940   -0.5580   -2.0150 ca        1 QEL     -0.128500
      9 C7         -4.1140   -0.8350    0.9950 c3        1 QEL     -0.035100
     10 C8         -2.7010   -0.6280    0.4660 c3        1 QEL     -0.062700
     11 C9         -2.3000    0.8370    0.5110 c3        1 QEL     -0.074900
     12 C01        -6.8910    1.2610   -0.5090 ca        1 QEL     -0.128500
     13 C02        -5.9050    0.8070    0.3670 ca        1 QEL     -0.128500
     14 C10        -0.8630    1.0180    0.0290 c3        1 QEL      0.169300
     15 C11        -0.2740   -1.2050    0.8000 c3        1 QEL      0.169300
     16 C12        -1.7060   -1.4380    1.2790 c3        1 QEL     -0.074900
     17 C13         1.4690    0.4660    0.2910 c3        1 QEL      0.162500
     18 C14         2.4780   -0.6910    0.5400 c3        1 QEL      0.186400
     19 C15         3.8110   -0.3710   -0.0770 ca        1 QEL     -0.149300
     20 C16         3.9180   -0.2880   -1.4720 ca        1 QEL     -0.085000
     21 C18         6.2770    0.1580   -1.2760 ca        1 QEL      0.125100
     22 C19         4.9550   -0.2010    0.7080 ca        1 QEL     -0.085000
     23 C24         2.0040    1.7540    0.9260 c3        1 QEL     -0.100100
     24 H1         -7.9150    0.9390   -2.3900 ha        1 QEL      0.130000
     25 HO2         8.1550    0.5050   -1.2670 ho        1 QEL      0.420000
     26 H3          7.0840    0.1970    0.7430 ha        1 QEL      0.143000
     27 H5         -4.8250   -1.9120   -1.3900 ha        1 QEL      0.131000
     28 H6         -6.5860   -1.0970   -2.9540 ha        1 QEL      0.130000
     29 H7         -4.2140   -0.3270    1.9920 hc        1 QEL      0.050200
     30 H7A        -4.2790   -1.9350    1.1650 hc        1 QEL      0.050200
     31 H8         -2.6660   -0.9790   -0.6040 hc        1 QEL      0.050700
     32 H9         -2.9780    1.4400   -0.1470 hc        1 QEL      0.049700
     33 H9A        -2.4020    1.2250    1.5570 hc        1 QEL      0.049700
     34 H01        -7.4760    2.1580   -0.2570 ha        1 QEL      0.130000
     35 H02        -5.7160    1.3470    1.3060 ha        1 QEL      0.131000
     36 H10        -0.5720    2.0970    0.1740 h1        1 QEL      0.033950
     37 H10A       -0.8320    0.8040   -1.0820 h1        1 QEL      0.033950
     38 H11        -0.1560   -1.6980   -0.2100 h1        1 QEL      0.033950
     39 H11A        0.4190   -1.7200    1.5270 h1        1 QEL      0.033950
     40 H12        -1.7950   -1.1620    2.3620 hc        1 QEL      0.049700
     41 H12A       -1.9310   -2.5320    1.1850 hc        1 QEL      0.049700
     42 H13         1.4710    0.6190   -0.8350 h1        1 QEL      0.030700
     43 H16         3.0250   -0.4400   -2.0990 ha        1 QEL      0.137500
     44 H19         4.8840   -0.2920    1.8040 ha        1 QEL      0.137500
     45 H24         1.8810    1.7440    2.0360 hc        1 QEL      0.044033
     46 H24A        3.0890    1.8640    0.6830 hc        1 QEL      0.044033
     47 H24B        1.4610    2.6430    0.5250 hc        1 QEL      0.044033
     48 H26         2.6610   -0.2070    2.4100 ho        1 QEL      0.407000
     49 H27         2.1010   -1.6430    0.0580 h1        1 QEL      0.079700
     50 H2          5.2300    0.0480   -3.1730 ha        1 QEL      0.143000
     51 O2          7.4570    0.4210   -1.9320 oh        1 QEL     -0.497100
@<TRIPOS>BOND
     1    1    8 ar  
     2    1   12 ar  
     3    1   24 1   
     4    2   14 1   
     5    2   15 1   
     6    2   17 1   
     7    3   18 1   
     8    3   48 1   
     9    4   20 ar  
    10    4   21 ar  
    11    4   50 1   
    12    5   21 ar  
    13    5   22 ar  
    14    5   26 1   
    15    6    7 ar  
    16    6    9 1   
    17    6   13 ar  
    18    7    8 ar  
    19    7   27 1   
    20    8   28 1   
    21    9   10 1   
    22    9   29 1   
    23    9   30 1   
    24   10   11 1   
    25   10   16 1   
    26   10   31 1   
    27   11   14 1   
    28   11   32 1   
    29   11   33 1   
    30   12   13 ar  
    31   12   34 1   
    32   13   35 1   
    33   14   36 1   
    34   14   37 1   
    35   15   16 1   
    36   15   38 1   
    37   15   39 1   
    38   16   40 1   
    39   16   41 1   
    40   17   18 1   
    41   17   23 1   
    42   17   42 1   
    43   18   19 1   
    44   18   49 1   
    45   19   20 ar  
    46   19   22 ar  
    47   20   43 1   
    48   21   51 1   
    49   22   44 1   
    50   23   45 1   
    51   23   46 1   
    52   23   47 1   
    53   25   51 1   
@<TRIPOS>SUBSTRUCTURE
     1 QEL         1 TEMP              0 ****  ****    0 ROOT
