@<TRIPOS>MOLECULE
QEL
   51    49     1     0     0
SMALL
bcc


@<TRIPOS>ATOM
      1 C1         -1.4650   -0.3780    2.3180 c2        1 QEL     -0.244000
      2 N1          3.5000    4.6470    4.7350 n3        1 QEL     -0.274000
      3 O1          2.8310    7.3110    6.2600 oh        1 QEL     -0.426000
      4 C2          1.6040    5.8170   10.4770 c1        1 QEL     -0.234000
      5 C3          2.3410    7.8530    9.3290 c2        1 QEL     -0.481000
      6 C4         -0.2540   -0.3820    4.8770 c2        1 QEL     -0.045000
      7 C5          0.6060   -0.3720    3.6650 c3        1 QEL     -0.214000
      8 C6         -0.0480   -0.3580    2.3620 c1        1 QEL     -0.103000
      9 C7          0.4270   -0.3530    6.1870 c3        1 QEL     -0.203000
     10 C8          3.0970    2.0630    4.2800 c2        1 QEL     -0.191000
     11 C9          2.9070    2.7380    2.9780 c3        1 QEL     -0.141000
     12 C01        -2.2220   -0.4070    3.4540 c2        1 QEL     -0.008000
     13 C02        -1.6060   -0.4030    4.7520 c2        1 QEL     -0.208000
     14 C10         3.0030    4.2660    3.4080 c3        1 QEL     -0.085000
     15 C11         3.0380    3.7880    5.8720 c3        1 QEL     -0.039000
     16 C12         2.3090    2.6450    5.2420 c2        1 QEL     -0.219000
     17 C13         4.9570    4.8880    4.7340 c3        1 QEL      0.077000
     18 C14         5.5380    4.9730    6.0640 c1        1 QEL     -0.189000
     19 C15         6.0670    5.0550    7.1330 c1        1 QEL     -0.188000
     20 C16         1.4190    5.1440   11.5660 c2        1 QEL     -0.114000
     21 C18         1.8270    6.4950    9.3700 c2        1 QEL      0.162000
     22 C19         2.5100    8.7150   10.3090 c1        1 QEL      0.224000
     23 C24         5.3110    6.1930    3.9960 c3        1 QEL     -0.209000
     24 H1         -1.9420   -0.3740    1.3250 ha        1 QEL      0.143000
     25 HO2         1.3270    6.5540    7.5200 ho        1 QEL      0.235000
     26 H3          2.6420    8.2040    8.3080 ha        1 QEL      0.226000
     27 H5          1.2990    0.5270    3.7030 hc        1 QEL      0.167000
     28 H6          1.2860   -1.2760    3.6770 hc        1 QEL      0.167000
     29 H7          1.0620    0.5690    6.2630 hc        1 QEL      0.094333
     30 H7A         1.0950   -1.2440    6.2950 hc        1 QEL      0.094333
     31 H8         -0.3020   -0.3530    7.0340 hc        1 QEL      0.094333
     32 H9          4.1020    1.6800    4.5090 ha        1 QEL      0.125000
     33 H9A         1.9150    2.5700    2.4940 hc        1 QEL      0.104500
     34 H01        -2.2630   -0.4120    5.6350 ha        1 QEL      0.134000
     35 H02        -3.3230   -0.4300    3.4170 ha        1 QEL      0.127000
     36 H10         3.7090    2.4750    2.2480 hc        1 QEL      0.104500
     37 H10A        1.9450    4.6530    3.3780 h1        1 QEL      0.096500
     38 H11         3.6050    4.7920    2.6220 h1        1 QEL      0.096500
     39 H11A        2.3480    4.4270    6.4920 h1        1 QEL      0.118500
     40 H12         3.8900    3.4480    6.5200 h1        1 QEL      0.118500
     41 H12A        1.2200    2.7350    5.1360 ha        1 QEL      0.129000
     42 H13         5.4880    4.0340    4.1990 h1        1 QEL      0.087000
     43 H16         0.4720    5.1790   12.1260 ha        1 QEL      0.125500
     44 H19         6.5330    5.1270    8.0840 ha        1 QEL      0.228000
     45 H24         6.4050    6.3840    4.1090 hc        1 QEL      0.085667
     46 H24A        5.0780    6.1170    2.9090 hc        1 QEL      0.085667
     47 H24B        4.7480    7.0550    4.4280 hc        1 QEL      0.085667
     48 H26         3.4370    6.6100    6.5290 ho        1 QEL      0.215000
     49 H27         2.5950    7.0740    5.3580 ho        1 QEL      0.215000
     50 H2          2.2000    4.5000   12.0020 ha        1 QEL      0.125500
     51 O2          1.5980    5.8690    8.1530 oh        1 QEL     -0.278000
@<TRIPOS>BOND
     1    1    8 1   
     2    1   12 1   
     3    1   24 1   
     4    2   14 1   
     5    2   15 1   
     6    2   17 1   
     7    3   48 1   
     8    3   49 1   
     9    4   20 1   
    10    4   21 1   
    11    5   21 1   
    12    5   22 1   
    13    5   26 1   
    14    6    7 1   
    15    6    9 1   
    16    6   13 1   
    17    7    8 1   
    18    7   27 1   
    19    7   28 1   
    20    9   29 1   
    21    9   30 1   
    22    9   31 1   
    23   10   11 1   
    24   10   16 1   
    25   10   32 1   
    26   11   14 1   
    27   11   33 1   
    28   11   36 1   
    29   12   13 1   
    30   12   35 1   
    31   13   34 1   
    32   14   37 1   
    33   14   38 1   
    34   15   16 1   
    35   15   39 1   
    36   15   40 1   
    37   16   41 1   
    38   17   18 1   
    39   17   23 1   
    40   17   42 1   
    41   18   19 1   
    42   19   44 1   
    43   20   43 1   
    44   20   50 1   
    45   21   51 1   
    46   23   45 1   
    47   23   46 1   
    48   23   47 1   
    49   25   51 1   
@<TRIPOS>SUBSTRUCTURE
     1 QEL         1 TEMP              0 ****  ****    0 ROOT
