@<TRIPOS>MOLECULE
QEM
   54    52     1     0     0
SMALL
bcc


@<TRIPOS>ATOM
      1 C          -0.5570    0.3220   -0.9650 c2        1 QEM     -0.497000
      2 N           4.6470    2.6470   -2.6990 n2        1 QEM     -0.193000
      3 O          -1.5010   -1.6590    3.5470 oh        1 QEM     -0.250000
      4 C01         3.2190    8.5120   -6.8070 c2        1 QEM     -0.208000
      5 O01         3.0420   -0.6030   -0.5230 oh        1 QEM     -0.257000
      6 C02         2.8210    7.4310   -6.0800 c2        1 QEM      0.003000
      7 C03         1.3780    7.0850   -5.9660 c3        1 QEM     -0.151000
      8 C04         0.4580    8.0610   -6.5950 c2        1 QEM     -0.101000
      9 C05         0.9130    9.1170   -7.3060 c2        1 QEM     -0.200000
     10 C06         2.3090    9.3080   -7.5630 c1        1 QEM     -0.062000
     11 C07         3.7920    6.5840   -5.3780 cx        1 QEM     -0.159000
     12 C08         3.4350    5.2310   -4.8070 cx        1 QEM     -0.156000
     13 C09         3.9760    4.8710   -3.4580 c3        1 QEM     -0.114000
     14 C10         3.7310    3.4210   -3.1580 c2        1 QEM     -0.061000
     15 C11         3.9230    4.8340   -7.3260 c3        1 QEM     -0.191000
     16 C12         4.3640    5.3210   -5.9910 cx        1 QEM     -0.125000
     17 C13         4.3900    1.2820   -2.4010 c3        1 QEM     -0.130000
     18 C14         1.8860    0.8200   -2.0400 c1        1 QEM      0.093000
     19 C15         1.8770   -0.0150   -0.9890 c2        1 QEM     -0.240000
     20 C16         0.5820   -0.3960   -0.3220 c3        1 QEM      0.046000
     21 C18         0.6360   -0.0610    1.1400 c2        1 QEM     -0.069000
     22 C19         0.1820   -0.8460    2.0700 c1        1 QEM     -0.316000
     23 C20        -0.2350   -1.6400    3.0240 c2        1 QEM      0.071000
     24 C21        -1.6450   -0.2170   -1.4670 c1        1 QEM      0.221000
     25 H          -0.4490    1.4270   -1.0050 ha        1 QEM      0.201000
     26 HO         -2.0450   -0.9970    3.0940 ho        1 QEM      0.222000
     27 HO01        2.8840   -0.8780    0.3920 ho        1 QEM      0.221000
     28 H03         1.1170    6.9910   -4.8720 hc        1 QEM      0.131500
     29 H04         1.2030    6.0720   -6.4310 hc        1 QEM      0.131500
     30 H05        -0.6160    7.8530   -6.4650 ha        1 QEM      0.127000
     31 H06         0.2180    9.8440   -7.7560 ha        1 QEM      0.147000
     32 H07         5.4930    7.8480   -2.5710 ha        1 QEM      0.000500
     33 H07A        4.5060    7.2020   -4.7840 hc        1 QEM      0.139000
     34 H08         5.1310    7.2750   -2.5700 ha        1 QEM      0.000500
     35 H09         2.4130    4.8400   -4.9840 hc        1 QEM      0.120000
     36 H09A        5.0670    5.1320   -3.3940 hc        1 QEM      0.106000
     37 H10         3.4430    5.4760   -2.6720 hc        1 QEM      0.106000
     38 H10A        2.6860    3.0870   -3.3560 h4        1 QEM      0.115000
     39 H11         2.8340    5.0180   -7.4910 hc        1 QEM      0.082667
     40 H11A        4.4930    5.3560   -8.1340 hc        1 QEM      0.082667
     41 H12         4.1130    3.7360   -7.4120 hc        1 QEM      0.082667
     42 H12A        5.4440    5.1360   -5.8100 hc        1 QEM      0.128000
     43 H13         5.1180    0.6400   -2.9670 h1        1 QEM      0.103333
     44 H13A        3.3320    0.9130   -2.7100 h1        1 QEM      0.103333
     45 H14         4.5210    1.1070   -1.2990 h1        1 QEM      0.103333
     46 H15         3.4640    1.4000    0.9010 hc        1 QEM      0.068500
     47 H18         0.4520   -1.5110   -0.4510 hc        1 QEM      0.120000
     48 H19         1.0940    0.9170    1.3820 ha        1 QEM      0.145000
     49 H21         0.3900   -2.3980    3.5310 h4        1 QEM      0.179000
     50 C17         3.4600    2.1060    1.7630 c3        1 QEM     -0.273000
     51 H01         4.2870    8.7800   -6.8720 ha        1 QEM      0.147000
     52 H17         4.4370    2.6350    1.8120 hc        1 QEM      0.068500
     53 H17A        2.6430    2.8490    1.6300 hc        1 QEM      0.068500
     54 H17B        3.2970    1.5410    2.7060 hc        1 QEM      0.068500
@<TRIPOS>BOND
     1    1   20 1   
     2    1   24 1   
     3    1   25 1   
     4    2   14 1   
     5    2   17 1   
     6    3   23 1   
     7    3   26 1   
     8    4    6 1   
     9    4   10 1   
    10    4   51 1   
    11    5   19 1   
    12    5   27 1   
    13    6    7 1   
    14    6   11 1   
    15    7    8 1   
    16    7   28 1   
    17    7   29 1   
    18    8    9 1   
    19    8   30 1   
    20    9   10 1   
    21    9   31 1   
    22   11   12 1   
    23   11   16 1   
    24   11   33 1   
    25   12   13 1   
    26   12   16 1   
    27   12   35 1   
    28   13   14 1   
    29   13   36 1   
    30   13   37 1   
    31   14   38 1   
    32   15   16 1   
    33   15   39 1   
    34   15   40 1   
    35   15   41 1   
    36   16   42 1   
    37   17   43 1   
    38   17   44 1   
    39   17   45 1   
    40   18   19 1   
    41   19   20 1   
    42   20   21 1   
    43   20   47 1   
    44   21   22 1   
    45   21   48 1   
    46   22   23 1   
    47   23   49 1   
    48   32   34 1   
    49   46   50 1   
    50   50   52 1   
    51   50   53 1   
    52   50   54 1   
@<TRIPOS>SUBSTRUCTURE
     1 QEM         1 TEMP              0 ****  ****    0 ROOT
