@<TRIPOS>MOLECULE
QEM
   54    56     1     0     0
SMALL
bcc


@<TRIPOS>ATOM
      1 C          -4.1870    1.1300   -0.9410 ca        1 QEM     -0.086000
      2 N           0.4690   -1.4440    0.1990 n3        1 QEM     -0.729600
      3 O          -7.3030    2.7230    0.0530 oh        1 QEM     -0.497100
      4 C01         5.6950    1.4930    1.0030 ca        1 QEM     -0.128500
      5 O01        -3.6410   -2.4930   -0.3190 oh        1 QEM     -0.592800
      6 C02         5.4960    0.3210    0.2660 ca        1 QEM     -0.076300
      7 C03         6.0500    0.2170   -1.0170 ca        1 QEM     -0.128500
      8 C04         6.7890    1.2700   -1.5520 ca        1 QEM     -0.128000
      9 C05         6.9840    2.4360   -0.8110 ca        1 QEM     -0.133000
     10 C06         6.4360    2.5460    0.4660 ca        1 QEM     -0.128000
     11 C07         4.7220   -0.8140    0.8400 c3        1 QEM     -0.035100
     12 C08         3.3700   -1.0020    0.1630 c3        1 QEM     -0.061700
     13 C09         2.3980    0.1010    0.5470 c3        1 QEM     -0.075900
     14 C10         1.0290   -0.1300   -0.0870 c3        1 QEM      0.170300
     15 C11         1.3960   -2.5310   -0.0950 c3        1 QEM      0.170300
     16 C12         2.7720   -2.3470    0.5400 c3        1 QEM     -0.075900
     17 C13        -0.8180   -1.6610   -0.4480 c3        1 QEM      0.171800
     18 C14        -1.9520   -0.7620    0.0660 c3        1 QEM     -0.091700
     19 C15        -3.2480   -1.1740   -0.6580 c3        1 QEM      0.188400
     20 C16        -4.3420   -0.1690   -0.4350 ca        1 QEM     -0.146300
     21 C18        -5.5230   -0.5050    0.2330 ca        1 QEM     -0.086000
     22 C19        -6.5320    0.4390    0.4130 ca        1 QEM     -0.182500
     23 C20        -6.3560    1.7350   -0.0880 ca        1 QEM      0.124100
     24 C21        -5.1800    2.0870   -0.7720 ca        1 QEM     -0.182500
     25 H          -3.2670    1.3970   -1.4840 ha        1 QEM      0.136000
     26 HO         -8.0590    2.3460    0.5260 ho        1 QEM      0.419000
     27 HO01       -3.7200   -2.5360    0.6420 ho        1 QEM      0.401000
     28 H03         5.8990   -0.7030   -1.6010 ha        1 QEM      0.131000
     29 H04         7.2210    1.1800   -2.5590 ha        1 QEM      0.130000
     30 H05         7.5680    3.2660   -1.2340 ha        1 QEM      0.130000
     31 H06         6.5880    3.4630    1.0530 ha        1 QEM      0.130000
     32 H07         5.3210   -1.7580    0.7200 hc        1 QEM      0.049700
     33 H07A        4.5650   -0.6580    1.9410 hc        1 QEM      0.049700
     34 H08         3.5230   -0.9750   -0.9530 hc        1 QEM      0.050700
     35 H09         2.2970    0.1410    1.6630 hc        1 QEM      0.048700
     36 H09A        2.7910    1.0920    0.2030 hc        1 QEM      0.048700
     37 H10         1.1160    0.0490   -1.2000 h1        1 QEM      0.029450
     38 H10A        0.3130    0.6360    0.3260 h1        1 QEM      0.029450
     39 H11         0.9410   -3.4800    0.3060 h1        1 QEM      0.029450
     40 H11A        1.5340   -2.6640   -1.2100 h1        1 QEM      0.029450
     41 H12         3.4360   -3.1780    0.1880 hc        1 QEM      0.048700
     42 H12A        2.6910   -2.4220    1.6560 hc        1 QEM      0.048700
     43 H13        -0.7440   -1.5210   -1.5680 h1        1 QEM      0.037700
     44 H13A       -1.1250   -2.7310   -0.2610 h1        1 QEM      0.037700
     45 H14        -1.7380    0.3060   -0.2200 hc        1 QEM      0.055700
     46 H15        -3.0480   -1.2430   -1.7700 h1        1 QEM      0.079700
     47 H18        -5.6710   -1.5290    0.6090 ha        1 QEM      0.136000
     48 H19        -7.4580    0.1670    0.9390 ha        1 QEM      0.143000
     49 H21        -5.0640    3.1070   -1.1640 ha        1 QEM      0.143000
     50 C17        -2.0960   -0.8450    1.5680 c3        1 QEM     -0.089100
     51 H01         5.2660    1.5850    2.0120 ha        1 QEM      0.131000
     52 H17        -1.2580   -0.2990    2.0670 hc        1 QEM      0.041367
     53 H17A       -3.0630   -0.3870    1.8900 hc        1 QEM      0.041367
     54 H17B       -2.0670   -1.9070    1.9130 hc        1 QEM      0.041367
@<TRIPOS>BOND
     1    1   20 ar  
     2    1   24 ar  
     3    1   25 1   
     4    2   14 1   
     5    2   15 1   
     6    2   17 1   
     7    3   23 1   
     8    3   26 1   
     9    4    6 ar  
    10    4   10 ar  
    11    4   51 1   
    12    5   19 1   
    13    5   27 1   
    14    6    7 ar  
    15    6   11 1   
    16    7    8 ar  
    17    7   28 1   
    18    8    9 ar  
    19    8   29 1   
    20    9   10 ar  
    21    9   30 1   
    22   10   31 1   
    23   11   12 1   
    24   11   32 1   
    25   11   33 1   
    26   12   13 1   
    27   12   16 1   
    28   12   34 1   
    29   13   14 1   
    30   13   35 1   
    31   13   36 1   
    32   14   37 1   
    33   14   38 1   
    34   15   16 1   
    35   15   39 1   
    36   15   40 1   
    37   16   41 1   
    38   16   42 1   
    39   17   18 1   
    40   17   43 1   
    41   17   44 1   
    42   18   19 1   
    43   18   45 1   
    44   18   50 1   
    45   19   20 1   
    46   19   46 1   
    47   20   21 ar  
    48   21   22 ar  
    49   21   47 1   
    50   22   23 ar  
    51   22   48 1   
    52   23   24 ar  
    53   24   49 1   
    54   50   52 1   
    55   50   53 1   
    56   50   54 1   
@<TRIPOS>SUBSTRUCTURE
     1 QEM         1 TEMP              0 ****  ****    0 ROOT
