@<TRIPOS>MOLECULE
QEM
   54    53     1     0     0
SMALL
bcc


@<TRIPOS>ATOM
      1 C          -0.1510    1.7310    0.4000 c2        1 QEM     -0.468000
      2 N           3.4570    3.4790   -2.6690 n2        1 QEM     -0.189000
      3 O           1.4180   -0.1970    3.7980 oh        1 QEM     -0.246000
      4 C01         1.3170    7.8580   -5.3450 c2        1 QEM     -0.212000
      5 O01         1.3820   -0.0760   -2.5020 oh        1 QEM     -0.268000
      6 C02         2.1210    7.2490   -6.2560 c2        1 QEM     -0.028000
      7 C03         1.5770    6.7830   -7.5600 c3        1 QEM     -0.154000
      8 C04         0.1140    6.9490   -7.7140 c2        1 QEM     -0.096000
      9 C05        -0.6390    7.5530   -6.7680 c2        1 QEM     -0.204000
     10 C06        -0.0640    8.1330   -5.5900 c1        1 QEM     -0.060000
     11 C07         3.5790    7.0490   -6.0420 c3        1 QEM     -0.149000
     12 C08         3.9200    5.6250   -5.5970 c3        1 QEM     -0.093000
     13 C09         3.4780    5.4190   -4.1540 c3        1 QEM     -0.143000
     14 C10         3.2320    3.9740   -3.8330 c2        1 QEM     -0.063000
     15 C11         5.7800    3.9300   -5.7530 c3        1 QEM     -0.214000
     16 C12         5.4160    5.3910   -5.7740 c3        1 QEM     -0.156000
     17 C13         3.1870    2.0860   -2.4060 c3        1 QEM     -0.061000
     18 C14         2.0940    1.8760   -1.4100 c2        1 QEM     -0.186000
     19 C15         1.2430    0.8370   -1.4680 c2        1 QEM      0.003000
     20 C16         0.1460    0.5650   -0.4790 c3        1 QEM      0.008000
     21 C18         0.4810   -0.6440    0.3520 c2        1 QEM     -0.041000
     22 C19         0.4560   -0.5740    1.6510 c1        1 QEM     -0.363000
     23 C20         0.3800   -0.4850    2.9630 c2        1 QEM      0.151000
     24 C21        -0.2060    1.6890    1.7200 c1        1 QEM      0.142000
     25 H          -0.3580    2.6830   -0.1250 ha        1 QEM      0.189000
     26 HO          2.2090    0.0220    3.2780 ho        1 QEM      0.232000
     27 HO01        0.6210   -0.6720   -2.4790 ho        1 QEM      0.211000
     28 H03         1.8350    5.6930   -7.6930 hc        1 QEM      0.132000
     29 H04         2.0960    7.3420   -8.3920 hc        1 QEM      0.132000
     30 H05        -0.3120    6.5660   -8.6540 ha        1 QEM      0.127000
     31 H06        -1.7300    7.6580   -6.8900 ha        1 QEM      0.146000
     32 H07         3.9550    7.7710   -5.2680 hc        1 QEM      0.098000
     33 H07A        4.1220    7.2750   -7.0000 hc        1 QEM      0.098000
     34 H08         5.9760    5.9330   -4.9670 hc        1 QEM      0.081500
     35 H09         3.3670    4.9040   -6.2620 hc        1 QEM      0.086000
     36 H09A        2.5060    5.9620   -3.9840 hc        1 QEM      0.110500
     37 H10         4.2360    5.8700   -3.4590 hc        1 QEM      0.110500
     38 H10A        2.8180    3.3890   -4.6860 h4        1 QEM      0.093000
     39 H11         5.4930    3.4640   -4.7790 hc        1 QEM      0.076333
     40 H11A        5.2600    3.3790   -6.5730 hc        1 QEM      0.076333
     41 H12         6.8820    3.8070   -5.8910 hc        1 QEM      0.076333
     42 H12A        5.7440    5.8300   -6.7550 hc        1 QEM      0.081500
     43 H13         4.1110    1.5180    2.9540 hc        1 QEM      0.070500
     44 H13A        2.9580    1.4900   -3.3410 h1        1 QEM      0.094500
     45 H14         4.1410    1.6650   -1.9660 h1        1 QEM      0.094500
     46 H15         4.6210   -0.2150    3.1510 hc        1 QEM      0.070500
     47 H18        -0.7960    0.3260   -1.0640 hc        1 QEM      0.110000
     48 H19         0.7360   -1.5610   -0.2030 ha        1 QEM      0.141000
     49 H21        -0.5440   -0.6520    3.5480 h4        1 QEM      0.185000
     50 C17         4.5520    0.7750    3.6540 c3        1 QEM     -0.279000
     51 H01         1.7230    8.2030   -4.3790 ha        1 QEM      0.146000
     52 H17         2.0210    2.5990   -0.5830 ha        1 QEM      0.155000
     53 H17A        3.9110    0.6900    4.5590 hc        1 QEM      0.070500
     54 H17B        5.5690    1.1080    3.9520 hc        1 QEM      0.070500
@<TRIPOS>BOND
     1    1   20 1   
     2    1   24 1   
     3    1   25 1   
     4    2   14 1   
     5    2   17 1   
     6    3   23 1   
     7    3   26 1   
     8    4    6 1   
     9    4   10 1   
    10    4   51 1   
    11    5   19 1   
    12    5   27 1   
    13    6    7 1   
    14    6   11 1   
    15    7    8 1   
    16    7   28 1   
    17    7   29 1   
    18    8    9 1   
    19    8   30 1   
    20    9   10 1   
    21    9   31 1   
    22   11   12 1   
    23   11   32 1   
    24   11   33 1   
    25   12   13 1   
    26   12   16 1   
    27   12   35 1   
    28   13   14 1   
    29   13   36 1   
    30   13   37 1   
    31   14   38 1   
    32   15   16 1   
    33   15   39 1   
    34   15   40 1   
    35   15   41 1   
    36   16   34 1   
    37   16   42 1   
    38   17   18 1   
    39   17   44 1   
    40   17   45 1   
    41   18   19 1   
    42   18   52 1   
    43   19   20 1   
    44   20   21 1   
    45   20   47 1   
    46   21   22 1   
    47   21   48 1   
    48   22   23 1   
    49   23   49 1   
    50   43   50 1   
    51   46   50 1   
    52   50   53 1   
    53   50   54 1   
@<TRIPOS>SUBSTRUCTURE
     1 QEM         1 TEMP              0 ****  ****    0 ROOT
