@<TRIPOS>MOLECULE
QEM
   54    54     1     0     0
SMALL
bcc


@<TRIPOS>ATOM
      1 C           0.3360    0.1190   -0.2730 c2        1 QEM     -0.101000
      2 N           3.7760    2.7320   -3.0130 n3        1 QEM     -0.252000
      3 O           2.3380    0.8130    2.6230 oh        1 QEM     -0.206000
      4 C01         2.4640    7.8520   -4.8570 c2        1 QEM     -0.214000
      5 O01         2.9120   -1.3370   -2.5910 oh        1 QEM     -0.269000
      6 C02         2.5240    7.0150   -5.9320 c2        1 QEM      0.012000
      7 C03         1.7370    7.3140   -7.1640 c3        1 QEM     -0.150000
      8 C04         0.9750    8.5820   -7.1210 c2        1 QEM     -0.099000
      9 C05         0.9400    9.3590   -6.0160 c2        1 QEM     -0.199000
     10 C06         1.5780    8.9660   -4.7960 c1        1 QEM     -0.070000
     11 C07         3.3220    5.8070   -5.9920 c2        1 QEM     -0.192000
     12 C08         3.5640    4.9410   -4.9900 c2        1 QEM     -0.043000
     13 C09         3.0250    5.0680   -3.6120 c3        1 QEM     -0.162500
     14 C10         2.7010    3.7160   -2.9780 c3        1 QEM     -0.067000
     15 C11         4.8530    3.0940   -3.9180 c3        1 QEM     -0.067000
     16 C12         4.4230    3.7450   -5.2330 c3        1 QEM     -0.162500
     17 C13         3.2990    1.3680   -3.2170 c3        1 QEM     -0.029000
     18 C14         2.3180    0.9010   -2.1930 c2        1 QEM     -0.187000
     19 C15         2.1650   -0.4010   -1.8950 c2        1 QEM      0.015000
     20 C16         1.1900   -0.9570   -0.9060 c3        1 QEM     -0.059000
     21 C18         1.8080   -1.8160    0.1790 c2        1 QEM     -0.125000
     22 C19         2.0510   -1.1640    1.3010 c1        1 QEM     -0.208000
     23 C20         1.6580    0.0490    1.7280 c2        1 QEM      0.121000
     24 C21         0.4690    0.5390    1.0050 c2        1 QEM     -0.185000
     25 H          -0.4240    0.5560   -0.9380 ha        1 QEM      0.141000
     26 HO          1.7790    1.5770    2.8420 ho        1 QEM      0.224000
     27 HO01        3.0990   -2.0670   -1.9820 ho        1 QEM      0.220000
     28 H03         1.0240    6.4610   -7.3550 hc        1 QEM      0.130500
     29 H04         2.4440    7.3490   -8.0430 hc        1 QEM      0.130500
     30 H05         0.4240    8.8360   -8.0410 ha        1 QEM      0.127000
     31 H06         0.3800   10.3080   -6.0030 ha        1 QEM      0.146000
     32 H07         4.7950    7.6160   -2.2700 ha        1 QEM      0.001500
     33 H07A        3.7580    5.6010   -6.9880 ha        1 QEM      0.129000
     34 H08         4.2280    7.6560   -1.9010 ha        1 QEM      0.001500
     35 H09         3.8550    3.0050   -5.8590 hc        1 QEM      0.104750
     36 H09A        3.7840    5.6110   -2.9810 hc        1 QEM      0.104750
     37 H10         2.0860    5.6860   -3.6060 hc        1 QEM      0.104750
     38 H10A        2.4630    3.8880   -1.8880 h1        1 QEM      0.086500
     39 H11         1.7660    3.3180   -3.4690 h1        1 QEM      0.086500
     40 H11A        5.4780    2.1880   -4.1510 h1        1 QEM      0.086500
     41 H12         5.5040    3.8230   -3.3550 h1        1 QEM      0.086500
     42 H12A        5.3400    4.0370   -5.8090 hc        1 QEM      0.104750
     43 H13         2.8190    1.2420   -4.2360 h1        1 QEM      0.085500
     44 H13A        4.1990    0.6840   -3.1860 h1        1 QEM      0.085500
     45 H14         1.6980    1.6570   -1.6890 ha        1 QEM      0.138000
     46 H15         1.7280    4.7490    2.0870 hc        1 QEM      0.068500
     47 H18         0.4900   -1.6470   -1.4700 hc        1 QEM      0.131000
     48 H19         1.8800   -2.8960    0.0250 ha        1 QEM      0.149000
     49 H21        -0.1860    1.2830    1.4720 ha        1 QEM      0.144000
     50 C17         2.0790    3.8860    1.4800 c3        1 QEM     -0.273000
     51 H01         3.0910    7.6690   -3.9660 ha        1 QEM      0.148000
     52 H17         2.9230    3.3800    1.9990 hc        1 QEM      0.068500
     53 H17A        1.2440    3.1630    1.3410 hc        1 QEM      0.068500
     54 H17B        2.4220    4.2460    0.4850 hc        1 QEM      0.068500
@<TRIPOS>BOND
     1    1   20 1   
     2    1   24 1   
     3    1   25 1   
     4    2   14 1   
     5    2   15 1   
     6    2   17 1   
     7    3   23 1   
     8    3   26 1   
     9    4    6 1   
    10    4   10 1   
    11    4   51 1   
    12    5   19 1   
    13    5   27 1   
    14    6    7 1   
    15    6   11 1   
    16    7    8 1   
    17    7   28 1   
    18    7   29 1   
    19    8    9 1   
    20    8   30 1   
    21    9   10 1   
    22    9   31 1   
    23   11   12 1   
    24   11   33 1   
    25   12   13 1   
    26   12   16 1   
    27   13   14 1   
    28   13   36 1   
    29   13   37 1   
    30   14   38 1   
    31   14   39 1   
    32   15   16 1   
    33   15   40 1   
    34   15   41 1   
    35   16   35 1   
    36   16   42 1   
    37   17   18 1   
    38   17   43 1   
    39   17   44 1   
    40   18   19 1   
    41   18   45 1   
    42   19   20 1   
    43   20   21 1   
    44   20   47 1   
    45   21   22 1   
    46   21   48 1   
    47   22   23 1   
    48   23   24 1   
    49   24   49 1   
    50   32   34 1   
    51   46   50 1   
    52   50   52 1   
    53   50   53 1   
    54   50   54 1   
@<TRIPOS>SUBSTRUCTURE
     1 QEM         1 TEMP              0 ****  ****    0 ROOT
