@<TRIPOS>MOLECULE
QFG
   39    40     1     0     0
SMALL
bcc


@<TRIPOS>ATOM
      1 C          -2.0600   -1.8000   -0.7940 c         1 QFG      0.884600
      2 N          -2.6210   -0.0460    2.8310 n2        1 QFG     -0.756100
      3 O          -1.8750   -0.9670   -1.7270 o         1 QFG     -0.834800
      4 C1         -0.8570    0.2970    1.2400 cc        1 QFG      0.438600
      5 C2          1.0720   -0.5330    0.3570 c         1 QFG      0.678700
      6 N2         -0.0410    1.3470    1.3220 nd        1 QFG     -0.629300
      7 O2          1.9010   -1.3050   -0.1340 o         1 QFG     -0.595500
      8 N3         -0.2560   -0.8860    0.7360 n         1 QFG     -0.371300
      9 CZ          6.2010    1.0140   -0.8350 ca        1 QFG     -0.133000
     10 CA2         1.2230    0.9250    0.7800 cd        1 QFG      0.031400
     11 CA3        -0.9530   -2.0480    0.2580 c3        1 QFG     -0.028000
     12 CB1        -3.1830    0.8500    0.5440 c3        1 QFG     -0.183700
     13 CB2         2.3050    1.7250    0.7260 ce        1 QFG     -0.048200
     14 CD1         3.8100    0.6680   -0.9740 ca        1 QFG     -0.102000
     15 CD2         4.7410    1.9930    0.8220 ca        1 QFG     -0.102000
     16 CD3        -5.2580    0.4310   -0.7780 c         1 QFG      0.661100
     17 CE1         5.0950    0.4630   -1.4780 ca        1 QFG     -0.140500
     18 NE1        -4.8220   -0.2110   -1.8970 n         1 QFG     -0.649000
     19 OE1        -6.2430    1.2090   -0.8160 o         1 QFG     -0.690100
     20 CE2         6.0210    1.7790    0.3190 ca        1 QFG     -0.140500
     21 CG1        -4.5290    0.1560    0.5270 c3        1 QFG     -0.160400
     22 CG2         3.6190    1.4330    0.1840 ca        1 QFG     -0.057800
     23 OXT        -3.1360   -2.4500   -0.6580 o         1 QFG     -0.834800
     24 HN         -3.6000   -0.0060    3.0300 hn        1 QFG      0.389400
     25 HZ          7.2120    0.8470   -1.2320 ha        1 QFG      0.120000
     26 HA3        -1.4170   -2.5600    1.1480 h1        1 QFG      0.064700
     27 HA3A       -0.1900   -2.7350   -0.2040 h1        1 QFG      0.064700
     28 HB1        -3.3110    1.9560    0.6810 hc        1 QFG      0.094700
     29 HB1A       -2.6630    0.6820   -0.4450 hc        1 QFG      0.094700
     30 HB2         2.2180    2.7460    1.1520 ha        1 QFG      0.139000
     31 HD1         2.9420    0.2120   -1.4780 ha        1 QFG      0.146000
     32 HD2         4.6020    2.5990    1.7300 ha        1 QFG      0.146000
     33 HE1         5.2300   -0.1450   -2.3850 ha        1 QFG      0.125000
     34 HNE1       -5.2610   -0.0320   -2.7630 hn        1 QFG      0.335000
     35 HNEA       -4.0290   -0.8240   -1.8650 hn        1 QFG      0.335000
     36 HE2         6.8900    2.2130    0.8310 ha        1 QFG      0.125000
     37 HG1        -4.3800   -0.9570    0.6330 hc        1 QFG      0.077700
     38 HG1A       -5.1760    0.5200    1.3660 hc        1 QFG      0.077700
     39 CA1        -2.2990    0.3330    1.6500 ce        1 QFG      0.429000
@<TRIPOS>BOND
     1    1    3 1   
     2    1   11 1   
     3    1   23 1   
     4    2   24 1   
     5    2   39 2   
     6    4    6 2   
     7    4    8 1   
     8    4   39 1   
     9    5    7 2   
    10    5    8 1   
    11    5   10 1   
    12    6   10 1   
    13    8   11 1   
    14    9   17 ar  
    15    9   20 ar  
    16    9   25 1   
    17   10   13 2   
    18   11   26 1   
    19   11   27 1   
    20   12   21 1   
    21   12   28 1   
    22   12   29 1   
    23   12   39 1   
    24   13   22 1   
    25   13   30 1   
    26   14   17 ar  
    27   14   22 ar  
    28   14   31 1   
    29   15   20 ar  
    30   15   22 ar  
    31   15   32 1   
    32   16   18 1   
    33   16   19 2   
    34   16   21 1   
    35   17   33 1   
    36   18   34 1   
    37   18   35 1   
    38   20   36 1   
    39   21   37 1   
    40   21   38 1   
@<TRIPOS>SUBSTRUCTURE
     1 QFG         1 TEMP              0 ****  ****    0 ROOT
