@<TRIPOS>MOLECULE
QFH
   18    17     1     0     0
SMALL
bcc


@<TRIPOS>ATOM
      1 OA4         0.1320    0.1080   -0.2870 oh        1 QFH     -0.651800
      2 CA5         2.1230    1.2660   -0.8020 c3        1 QFH     -0.085100
      3 CA3         1.2040    1.2430    2.1700 c3        1 QFH     -0.077100
      4 CA2         1.8790    0.0910    1.4450 c3        1 QFH     -0.008200
      5 OA3         3.2900    0.2560    1.5530 oh        1 QFH     -0.640800
      6 CA1         1.4270   -1.2570    2.0900 c         1 QFH      0.896600
      7 C3          1.5330    0.0790   -0.0610 c3        1 QFH      0.163100
      8 OA1         2.3080   -1.9150    2.7110 o         1 QFH     -0.831300
      9 OA2         0.2230   -1.6130    1.9560 o         1 QFH     -0.831300
     10 HA4        -0.2700   -0.5130    0.3430 ho        1 QFH      0.447000
     11 H3          1.9480   -0.8760   -0.4960 h1        1 QFH      0.023700
     12 HA51        3.2140    1.3330   -0.5780 hc        1 QFH      0.028033
     13 HA52        1.9730    1.1460   -1.9010 hc        1 QFH      0.028033
     14 HA53        1.6240    2.2110   -0.4790 hc        1 QFH      0.028033
     15 HA31        1.5670    2.2210    1.7740 hc        1 QFH      0.027367
     16 HA32        1.4370    1.1900    3.2590 hc        1 QFH      0.027367
     17 HA33        0.1010    1.1680    2.0230 hc        1 QFH      0.027367
     18 HA3         3.6230   -0.4930    2.0740 ho        1 QFH      0.427000
@<TRIPOS>BOND
     1    1    7 1   
     2    1   10 1   
     3    2    7 1   
     4    2   12 1   
     5    2   13 1   
     6    2   14 1   
     7    3    4 1   
     8    3   15 1   
     9    3   16 1   
    10    3   17 1   
    11    4    5 1   
    12    4    6 1   
    13    4    7 1   
    14    5   18 1   
    15    6    8 1   
    16    6    9 1   
    17    7   11 1   
@<TRIPOS>SUBSTRUCTURE
     1 QFH         1 TEMP              0 ****  ****    0 ROOT
