@<TRIPOS>MOLECULE
QFH
   18    17     1     0     0
SMALL
bcc


@<TRIPOS>ATOM
      1 OA4         0.1440    0.1170   -0.3040 oh        1 QFH     -0.651800
      2 CA5         2.1520    1.2550   -0.8000 c3        1 QFH     -0.085100
      3 CA3         1.1980    1.2520    2.1610 c3        1 QFH     -0.077100
      4 CA2         1.8710    0.0900    1.4490 c3        1 QFH     -0.008200
      5 OA3         3.2820    0.2440    1.5730 oh        1 QFH     -0.640800
      6 CA1         1.3990   -1.2510    2.0930 c         1 QFH      0.896600
      7 C3          1.5430    0.0760   -0.0610 c3        1 QFH      0.163100
      8 OA1         2.2670   -1.9130    2.7280 o         1 QFH     -0.831300
      9 OA2         0.1940   -1.5970    1.9460 o         1 QFH     -0.831300
     10 HA4        -0.2710   -0.4980    0.3240 ho        1 QFH      0.447000
     11 H3          1.9530   -0.8840   -0.4880 h1        1 QFH      0.023700
     12 HA51        1.6580    2.2050   -0.4860 hc        1 QFH      0.028033
     13 HA52        2.0130    1.1320   -1.9000 hc        1 QFH      0.028033
     14 HA53        3.2410    1.3120   -0.5640 hc        1 QFH      0.028033
     15 HA31        1.4180    1.2000    3.2530 hc        1 QFH      0.027367
     16 HA32        1.5750    2.2250    1.7660 hc        1 QFH      0.027367
     17 HA33        0.0960    1.1860    2.0020 hc        1 QFH      0.027367
     18 HA3         3.6020   -0.5060    2.1000 ho        1 QFH      0.427000
@<TRIPOS>BOND
     1    1    7 1   
     2    1   10 1   
     3    2    7 1   
     4    2   12 1   
     5    2   13 1   
     6    2   14 1   
     7    3    4 1   
     8    3   15 1   
     9    3   16 1   
    10    3   17 1   
    11    4    5 1   
    12    4    6 1   
    13    4    7 1   
    14    5   18 1   
    15    6    8 1   
    16    6    9 1   
    17    7   11 1   
@<TRIPOS>SUBSTRUCTURE
     1 QFH         1 TEMP              0 ****  ****    0 ROOT
