@<TRIPOS>MOLECULE
QFH
   18    17     1     0     0
SMALL
bcc


@<TRIPOS>ATOM
      1 OA4        -1.5410    1.5050   -0.3080 oh        1 QFH     -0.651800
      2 CA5        -2.5840   -0.4820    0.4240 c3        1 QFH     -0.085100
      3 CA3        -0.2560   -0.7530   -1.6210 c3        1 QFH     -0.077100
      4 CA2        -0.0980   -0.4810   -0.1350 c3        1 QFH     -0.008200
      5 OA3        -0.0620   -1.7300    0.5490 oh        1 QFH     -0.640800
      6 CA1         1.2200    0.3210    0.1030 c         1 QFH      0.896600
      7 C3         -1.2930    0.3180    0.4310 c3        1 QFH      0.163100
      8 OA1         2.1460   -0.2760    0.7210 o         1 QFH     -0.831300
      9 OA2         1.2880    1.5070   -0.3270 o         1 QFH     -0.831300
     10 HA4        -0.6770    1.9160   -0.4830 ho        1 QFH      0.447000
     11 H3         -1.0370    0.6040    1.4930 h1        1 QFH      0.023700
     12 HA51       -2.9250   -0.6560   -0.6240 hc        1 QFH      0.028033
     13 HA52       -2.4070   -1.4660    0.9200 hc        1 QFH      0.028033
     14 HA53       -3.3830    0.0740    0.9680 hc        1 QFH      0.028033
     15 HA31       -1.1540   -1.3870   -1.8110 hc        1 QFH      0.027367
     16 HA32       -0.3660    0.2180   -2.1590 hc        1 QFH      0.027367
     17 HA33        0.6460   -1.2870   -2.0030 hc        1 QFH      0.027367
     18 HA3         0.8200   -1.8080    0.9490 ho        1 QFH      0.427000
@<TRIPOS>BOND
     1    1    7 1   
     2    1   10 1   
     3    2    7 1   
     4    2   12 1   
     5    2   13 1   
     6    2   14 1   
     7    3    4 1   
     8    3   15 1   
     9    3   16 1   
    10    3   17 1   
    11    4    5 1   
    12    4    6 1   
    13    4    7 1   
    14    5   18 1   
    15    6    8 1   
    16    6    9 1   
    17    7   11 1   
@<TRIPOS>SUBSTRUCTURE
     1 QFH         1 TEMP              0 ****  ****    0 ROOT
