@<TRIPOS>MOLECULE
QGA
   59    59     1     0     0
SMALL
bcc


@<TRIPOS>ATOM
      1 C9          0.7000    0.7200    1.1580 c3        1 QGA     -0.077400
      2 C12         1.9670    0.1550    0.5500 c3        1 QGA     -0.080400
      3 C15         2.4640   -1.0410    1.3350 c3        1 QGA     -0.077400
      4 C18         1.3920   -2.1030    1.4650 c3        1 QGA     -0.073400
      5 C21         0.1270   -1.5310    2.0960 c3        1 QGA     -0.065700
      6 C24        -0.9280   -2.6240    2.1920 c3        1 QGA     -0.079400
      7 C27        -2.0390   -2.2330    3.1490 c3        1 QGA     -0.154400
      8 C30        -3.0390   -3.3460    3.2810 c         1 QGA      0.544100
      9 N33        -4.2820   -2.9910    4.0870 nx        1 QGA     -0.593200
     10 O34        -2.9670   -4.4810    2.8380 o         1 QGA     -0.408100
     11 C35        -5.3990   -2.5540    3.1930 c3        1 QGA      0.106800
     12 C36        -4.6630   -4.1030    5.0150 c3        1 QGA      0.106800
     13 C37        -5.4500   -3.6210    6.2450 c3        1 QGA      0.089100
     14 C40        -5.5390   -4.7500    7.2930 c3        1 QGA      0.120100
     15 C41        -6.5120   -5.8480    6.8300 c3        1 QGA      0.149100
     16 C42        -6.6590   -6.9660    7.8750 c3        1 QGA      0.115100
     17 C43        -7.2590   -6.4640    9.1930 c3        1 QGA      0.096400
     18 O44        -7.5620   -7.6270    9.9440 oh        1 QGA     -0.605800
     19 O47        -4.7320   -2.5120    6.7770 oh        1 QGA     -0.643800
     20 O49        -4.2760   -5.3610    7.4780 oh        1 QGA     -0.587800
     21 O51        -7.7480   -5.1980    6.5750 oh        1 QGA     -0.621800
     22 O53        -7.5260   -7.9100    7.2640 oh        1 QGA     -0.615800
     23 C60        -5.8650   -3.5720    2.1480 c3        1 QGA      0.116400
     24 O63        -6.6520   -4.5290    2.8300 oh        1 QGA     -0.610800
     25 C1         -0.3720   -0.3430    1.2850 c3        1 QGA     -0.073400
     26 H9C1        0.3170    1.5580    0.5190 hc        1 QGA      0.049200
     27 H9C2        0.9280    1.1450    2.1710 hc        1 QGA      0.049200
     28 H121        1.7700   -0.1490   -0.5120 hc        1 QGA      0.051200
     29 H122        2.7590    0.9480    0.5320 hc        1 QGA      0.051200
     30 H1C1       -1.2770    0.1000    1.7760 hc        1 QGA      0.040200
     31 H1C2       -0.6760   -0.6910    0.2630 hc        1 QGA      0.040200
     32 H151        2.7910   -0.7110    2.3560 hc        1 QGA      0.049200
     33 H152        3.3590   -1.4810    0.8220 hc        1 QGA      0.049200
     34 H181        1.1470   -2.5180    0.4530 hc        1 QGA      0.040200
     35 H182        1.7760   -2.9480    2.0950 hc        1 QGA      0.040200
     36 H21         0.3820   -1.1750    3.1340 hc        1 QGA      0.052700
     37 H241       -1.3570   -2.8280    1.1760 hc        1 QGA      0.068700
     38 H242       -0.4520   -3.5760    2.5500 hc        1 QGA      0.068700
     39 H271       -1.6070   -2.0160    4.1660 hc        1 QGA      0.098200
     40 H272       -2.5520   -1.3020    2.7830 hc        1 QGA      0.098200
     41 H351       -6.2760   -2.3010    3.8590 hx        1 QGA      0.107200
     42 H352       -5.0500   -1.6250    2.6580 hx        1 QGA      0.107200
     43 H361       -3.7100   -4.6000    5.3640 hx        1 QGA      0.134200
     44 H362       -5.2840   -4.8600    4.4540 hx        1 QGA      0.134200
     45 H601       -6.4810   -3.0180    1.3880 h1        1 QGA      0.067700
     46 H602       -5.0020   -4.0760    1.6340 h1        1 QGA      0.067700
     47 H37        -6.4940   -3.3090    5.9570 h1        1 QGA      0.095700
     48 H40        -5.9130   -4.2990    8.2560 h1        1 QGA      0.065700
     49 H47        -5.2460   -2.1590    7.5150 ho        1 QGA      0.443000
     50 H41        -6.1340   -6.3150    5.8760 h1        1 QGA      0.064700
     51 H49        -3.7490   -4.7560    8.0180 ho        1 QGA      0.422000
     52 H42        -5.6540   -7.4330    8.0660 h1        1 QGA      0.079700
     53 H51        -8.4120   -5.8970    6.4760 ho        1 QGA      0.446000
     54 H431       -8.1890   -5.8670    8.9940 h1        1 QGA      0.037200
     55 H432       -6.5150   -5.8340    9.7470 h1        1 QGA      0.037200
     56 H53        -7.7210   -8.5890    7.9260 ho        1 QGA      0.444000
     57 H44        -8.0650   -7.3440   10.7170 ho        1 QGA      0.422000
     58 H63        -7.0840   -5.0790    2.1630 ho        1 QGA      0.442000
     59 H331       -4.0430   -2.1790    4.6820 hn        1 QGA      0.465800
@<TRIPOS>BOND
     1    1    2 1   
     2    1   25 1   
     3    1   26 1   
     4    1   27 1   
     5    2    3 1   
     6    2   28 1   
     7    2   29 1   
     8    3    4 1   
     9    3   32 1   
    10    3   33 1   
    11    4    5 1   
    12    4   34 1   
    13    4   35 1   
    14    5    6 1   
    15    5   25 1   
    16    5   36 1   
    17    6    7 1   
    18    6   37 1   
    19    6   38 1   
    20    7    8 1   
    21    7   39 1   
    22    7   40 1   
    23    8    9 1   
    24    8   10 2   
    25    9   11 1   
    26    9   12 1   
    27    9   59 1   
    28   11   23 1   
    29   11   41 1   
    30   11   42 1   
    31   12   13 1   
    32   12   43 1   
    33   12   44 1   
    34   13   14 1   
    35   13   19 1   
    36   13   47 1   
    37   14   15 1   
    38   14   20 1   
    39   14   48 1   
    40   15   16 1   
    41   15   21 1   
    42   15   50 1   
    43   16   17 1   
    44   16   22 1   
    45   16   52 1   
    46   17   18 1   
    47   17   54 1   
    48   17   55 1   
    49   18   57 1   
    50   19   49 1   
    51   20   51 1   
    52   21   53 1   
    53   22   56 1   
    54   23   24 1   
    55   23   45 1   
    56   23   46 1   
    57   24   58 1   
    58   25   30 1   
    59   25   31 1   
@<TRIPOS>SUBSTRUCTURE
     1 QGA         1 TEMP              0 ****  ****    0 ROOT
