@<TRIPOS>MOLECULE
QGA
   59    59     1     0     0
SMALL
bcc


@<TRIPOS>ATOM
      1 C9          0.6800    0.7180    1.1360 c3        1 QGA     -0.077400
      2 C12         1.9560    0.1580    0.5430 c3        1 QGA     -0.080400
      3 C15         2.4600   -1.0240    1.3440 c3        1 QGA     -0.077400
      4 C18         1.3970   -2.0950    1.4800 c3        1 QGA     -0.073400
      5 C21         0.1230   -1.5280    2.0950 c3        1 QGA     -0.065700
      6 C24        -0.9220   -2.6300    2.1970 c3        1 QGA     -0.079400
      7 C27        -2.0460   -2.2370    3.1380 c3        1 QGA     -0.154400
      8 C30        -3.0320   -3.3620    3.2830 c         1 QGA      0.544100
      9 N33        -4.2890   -3.0080    4.0680 n4        1 QGA     -0.593200
     10 O34        -2.9390   -4.5040    2.8640 o         1 QGA     -0.408100
     11 C35        -5.4020   -2.6070    3.1530 c3        1 QGA      0.106800
     12 C36        -4.6620   -4.1040    5.0160 c3        1 QGA      0.106800
     13 C37        -5.4720   -3.6080    6.2260 c3        1 QGA      0.089100
     14 C40        -5.5520   -4.7150    7.2990 c3        1 QGA      0.120100
     15 C41        -6.4970   -5.8420    6.8510 c3        1 QGA      0.149100
     16 C42        -6.6360   -6.9370    7.9210 c3        1 QGA      0.115100
     17 C43        -7.2640   -6.4160    9.2180 c3        1 QGA      0.096400
     18 O44        -7.5530   -7.5660    9.9930 oh        1 QGA     -0.605800
     19 O47        -4.7800   -2.4740    6.7390 oh        1 QGA     -0.643800
     20 O49        -4.2790   -5.2940    7.5150 oh        1 QGA     -0.587800
     21 O51        -7.7410   -5.2240    6.5630 oh        1 QGA     -0.621800
     22 O53        -7.4750   -7.9140    7.3220 oh        1 QGA     -0.615800
     23 C60        -5.8420   -3.6550    2.1260 c3        1 QGA      0.116400
     24 O63        -6.6220   -4.6080    2.8210 oh        1 QGA     -0.610800
     25 C1         -0.3830   -0.3540    1.2680 c3        1 QGA     -0.073400
     26 H9C1        0.2930    1.5450    0.4850 hc        1 QGA      0.049200
     27 H9C2        0.8970    1.1570    2.1460 hc        1 QGA      0.049200
     28 H121        1.7700   -0.1590   -0.5170 hc        1 QGA      0.051200
     29 H122        2.7410    0.9590    0.5210 hc        1 QGA      0.051200
     30 H1C1       -0.6770   -0.7160    0.2480 hc        1 QGA      0.040200
     31 H1C2       -1.2950    0.0860    1.7480 hc        1 QGA      0.040200
     32 H151        3.3630   -1.4610    0.8430 hc        1 QGA      0.049200
     33 H152        2.7760   -0.6790    2.3640 hc        1 QGA      0.049200
     34 H181        1.7860   -2.9280    2.1210 hc        1 QGA      0.040200
     35 H182        1.1630   -2.5230    0.4700 hc        1 QGA      0.040200
     36 H21         0.3660   -1.1580    3.1310 hc        1 QGA      0.052700
     37 H241       -1.3400   -2.8530    1.1800 hc        1 QGA      0.068200
     38 H242       -0.4400   -3.5720    2.5720 hc        1 QGA      0.068200
     39 H271       -2.5680   -1.3200    2.7520 hc        1 QGA      0.098200
     40 H272       -1.6260   -1.9970    4.1550 hc        1 QGA      0.098200
     41 H351       -6.2900   -2.3520    3.8040 hx        1 QGA      0.107200
     42 H352       -5.0620   -1.6850    2.6000 hx        1 QGA      0.107200
     43 H361       -3.7060   -4.5780    5.3870 hx        1 QGA      0.134200
     44 H362       -5.2650   -4.8840    4.4650 hx        1 QGA      0.134200
     45 H601       -4.9670   -4.1570    1.6320 h1        1 QGA      0.067700
     46 H602       -6.4590   -3.1270    1.3480 h1        1 QGA      0.067700
     47 H37        -6.5190   -3.3230    5.9190 h1        1 QGA      0.095700
     48 H40        -5.9470   -4.2480    8.2460 h1        1 QGA      0.065700
     49 H47        -5.3090   -2.1140    7.4620 ho        1 QGA      0.443000
     50 H41        -6.0960   -6.3250    5.9130 h1        1 QGA      0.064700
     51 H49        -3.7710   -4.6650    8.0440 ho        1 QGA      0.422000
     52 H42        -5.6230   -7.3790    8.1360 h1        1 QGA      0.079700
     53 H51        -8.3900   -5.9380    6.4740 ho        1 QGA      0.446000
     54 H431       -8.2020   -5.8430    8.9920 h1        1 QGA      0.037200
     55 H432       -6.5400   -5.7570    9.7660 h1        1 QGA      0.037200
     56 H53        -7.6650   -8.5800    7.9980 ho        1 QGA      0.444000
     57 H44        -8.0720   -7.2740   10.7520 ho        1 QGA      0.422000
     58 H63        -7.0390   -5.1800    2.1620 ho        1 QGA      0.442000
     59 H331       -4.0680   -2.1790    4.6460 hn        1 QGA      0.465800
@<TRIPOS>BOND
     1    1    2 1   
     2    1   25 1   
     3    1   26 1   
     4    1   27 1   
     5    2    3 1   
     6    2   28 1   
     7    2   29 1   
     8    3    4 1   
     9    3   32 1   
    10    3   33 1   
    11    4    5 1   
    12    4   34 1   
    13    4   35 1   
    14    5    6 1   
    15    5   25 1   
    16    5   36 1   
    17    6    7 1   
    18    6   37 1   
    19    6   38 1   
    20    7    8 1   
    21    7   39 1   
    22    7   40 1   
    23    8    9 1   
    24    8   10 2   
    25    9   11 1   
    26    9   12 1   
    27    9   59 1   
    28   11   23 1   
    29   11   41 1   
    30   11   42 1   
    31   12   13 1   
    32   12   43 1   
    33   12   44 1   
    34   13   14 1   
    35   13   19 1   
    36   13   47 1   
    37   14   15 1   
    38   14   20 1   
    39   14   48 1   
    40   15   16 1   
    41   15   21 1   
    42   15   50 1   
    43   16   17 1   
    44   16   22 1   
    45   16   52 1   
    46   17   18 1   
    47   17   54 1   
    48   17   55 1   
    49   18   57 1   
    50   19   49 1   
    51   20   51 1   
    52   21   53 1   
    53   22   56 1   
    54   23   24 1   
    55   23   45 1   
    56   23   46 1   
    57   24   58 1   
    58   25   30 1   
    59   25   31 1   
@<TRIPOS>SUBSTRUCTURE
     1 QGA         1 TEMP              0 ****  ****    0 ROOT
