@<TRIPOS>MOLECULE
QGA
   59    59     1     0     0
SMALL
bcc


@<TRIPOS>ATOM
      1 C9          1.0000    0.5190    1.3880 c3        1 QGA     -0.077400
      2 C12         2.1610   -0.1460    0.6770 c3        1 QGA     -0.080400
      3 C15         2.4910   -1.4850    1.3010 c3        1 QGA     -0.077400
      4 C18         1.2780   -2.3910    1.3440 c3        1 QGA     -0.073400
      5 C21         0.1210   -1.7230    2.0790 c3        1 QGA     -0.065700
      6 C24        -1.0810   -2.6570    2.0830 c3        1 QGA     -0.079400
      7 C27        -2.1070   -2.2260    3.1150 c3        1 QGA     -0.154400
      8 C30        -3.2600   -3.1890    3.1480 c         1 QGA      0.544100
      9 N33        -4.4060   -2.7810    4.0640 n4        1 QGA     -0.589200
     10 O34        -3.3820   -4.2430    2.5440 o         1 QGA     -0.411100
     11 C35        -5.5440   -2.2030    3.2840 c3        1 QGA      0.107800
     12 C36        -4.8020   -3.9210    4.9470 c3        1 QGA      0.111800
     13 C37        -5.7940   -3.5420    6.0610 c3        1 QGA      0.092100
     14 C40        -5.6940   -4.5560    7.2200 c3        1 QGA      0.116100
     15 C41        -6.1580   -5.9530    6.7770 c3        1 QGA      0.150100
     16 C42        -6.1120   -6.9670    7.9320 c3        1 QGA      0.115100
     17 C43        -7.0640   -6.6010    9.0750 c3        1 QGA      0.096400
     18 O44        -7.0990   -7.7360    9.9230 oh        1 QGA     -0.606800
     19 O47        -5.4360   -2.2450    6.5290 oh        1 QGA     -0.646800
     20 O49        -4.3490   -4.6820    7.6490 oh        1 QGA     -0.590800
     21 O51        -7.4720   -5.7930    6.2660 oh        1 QGA     -0.617800
     22 O53        -6.5000   -8.1980    7.3380 oh        1 QGA     -0.616800
     23 C60        -6.2990   -3.1790    2.3780 c3        1 QGA      0.113400
     24 O63        -7.1060   -3.9740    3.2250 oh        1 QGA     -0.612800
     25 C1         -0.2130   -0.3880    1.4270 c3        1 QGA     -0.073400
     26 H9C1        0.7340    1.4730    0.8620 hc        1 QGA      0.048700
     27 H9C2        1.3050    0.7840    2.4340 hc        1 QGA      0.048700
     28 H121        1.9040   -0.2900   -0.4060 hc        1 QGA      0.051200
     29 H122        3.0600    0.5220    0.7230 hc        1 QGA      0.051200
     30 H1C1       -1.0350    0.1190    1.9970 hc        1 QGA      0.039950
     31 H1C2       -0.5820   -0.5640    0.3830 hc        1 QGA      0.039950
     32 H151        2.8790   -1.3280    2.3420 hc        1 QGA      0.048700
     33 H152        3.3040   -1.9850    0.7110 hc        1 QGA      0.048700
     34 H181        1.5450   -3.3500    1.8590 hc        1 QGA      0.039950
     35 H182        0.9580   -2.6430    0.2990 hc        1 QGA      0.039950
     36 H21         0.4420   -1.5330    3.1420 hc        1 QGA      0.052700
     37 H241       -1.5520   -2.6760    1.0650 hc        1 QGA      0.069200
     38 H242       -0.7430   -3.7020    2.3150 hc        1 QGA      0.069200
     39 H271       -1.6330   -2.1940    4.1360 hc        1 QGA      0.098700
     40 H272       -2.4850   -1.1940    2.8740 hc        1 QGA      0.098700
     41 H351       -6.2700   -1.7790    4.0400 hx        1 QGA      0.108200
     42 H352       -5.1250   -1.3690    2.6510 hx        1 QGA      0.108200
     43 H361       -5.2790   -4.7230    4.3090 hx        1 QGA      0.126700
     44 H362       -3.8550   -4.3230    5.4150 hx        1 QGA      0.126700
     45 H601       -5.6020   -3.8300    1.7850 h1        1 QGA      0.070200
     46 H602       -6.9330   -2.5700    1.6760 h1        1 QGA      0.070200
     47 H37        -6.8460   -3.5430    5.6520 h1        1 QGA      0.111700
     48 H40        -6.3480   -4.1880    8.0600 h1        1 QGA      0.065700
     49 H47        -6.1150   -1.9690    7.1580 ho        1 QGA      0.443000
     50 H41        -5.4850   -6.3330    5.9560 h1        1 QGA      0.059700
     51 H49        -4.1300   -3.8660    8.1180 ho        1 QGA      0.421000
     52 H42        -5.0580   -7.0430    8.3200 h1        1 QGA      0.078700
     53 H51        -7.8500   -6.6820    6.1940 ho        1 QGA      0.444000
     54 H431       -6.6740   -5.7130    9.6400 h1        1 QGA      0.037700
     55 H432       -8.0860   -6.3740    8.6730 h1        1 QGA      0.037700
     56 H53        -6.5780   -8.8470    8.0520 ho        1 QGA      0.444000
     57 H44        -7.7920   -7.5810   10.5770 ho        1 QGA      0.422000
     58 H63        -7.7270   -4.4600    2.6670 ho        1 QGA      0.442000
     59 H331       -4.0700   -2.0280    4.6860 hn        1 QGA      0.463800
@<TRIPOS>BOND
     1    1    2 1   
     2    1   25 1   
     3    1   26 1   
     4    1   27 1   
     5    2    3 1   
     6    2   28 1   
     7    2   29 1   
     8    3    4 1   
     9    3   32 1   
    10    3   33 1   
    11    4    5 1   
    12    4   34 1   
    13    4   35 1   
    14    5    6 1   
    15    5   25 1   
    16    5   36 1   
    17    6    7 1   
    18    6   37 1   
    19    6   38 1   
    20    7    8 1   
    21    7   39 1   
    22    7   40 1   
    23    8    9 1   
    24    8   10 2   
    25    9   11 1   
    26    9   12 1   
    27    9   59 1   
    28   11   23 1   
    29   11   41 1   
    30   11   42 1   
    31   12   13 1   
    32   12   43 1   
    33   12   44 1   
    34   13   14 1   
    35   13   19 1   
    36   13   47 1   
    37   14   15 1   
    38   14   20 1   
    39   14   48 1   
    40   15   16 1   
    41   15   21 1   
    42   15   50 1   
    43   16   17 1   
    44   16   22 1   
    45   16   52 1   
    46   17   18 1   
    47   17   54 1   
    48   17   55 1   
    49   18   57 1   
    50   19   49 1   
    51   20   51 1   
    52   21   53 1   
    53   22   56 1   
    54   23   24 1   
    55   23   45 1   
    56   23   46 1   
    57   24   58 1   
    58   25   30 1   
    59   25   31 1   
@<TRIPOS>SUBSTRUCTURE
     1 QGA         1 TEMP              0 ****  ****    0 ROOT
