@<TRIPOS>MOLECULE
QGA
   58    58     1     0     0
SMALL
bcc


@<TRIPOS>ATOM
      1 C9          0.7850   -1.9400    0.1750 c3        1 QGA     -0.076400
      2 C12        -0.4680   -2.4510   -0.5050 c3        1 QGA     -0.076400
      3 C15        -0.3530   -2.3500   -2.0120 c3        1 QGA     -0.076400
      4 C18         0.8830   -3.0610   -2.5210 c3        1 QGA     -0.073400
      5 C21         2.1440   -2.5340   -1.8480 c3        1 QGA     -0.064700
      6 C24         3.3580   -3.2880   -2.3680 c3        1 QGA     -0.073400
      7 C27         4.6500   -2.5600   -2.0620 c3        1 QGA     -0.142400
      8 C30         5.8350   -3.2890   -2.6650 c         1 QGA      0.666100
      9 N33         7.1210   -2.9150   -2.2890 n         1 QGA     -0.470800
     10 O34         5.6860   -4.2160   -3.4870 o         1 QGA     -0.615100
     11 C35         7.3960   -1.7970   -1.4290 c3        1 QGA      0.097000
     12 C36         8.2520   -3.6450   -2.8110 c3        1 QGA      0.053000
     13 C37         8.7990   -3.0980   -4.1430 c3        1 QGA      0.096100
     14 C40        10.0340   -3.8930   -4.6150 c3        1 QGA      0.077100
     15 C41        11.3060   -3.3640   -3.9350 c3        1 QGA      0.079100
     16 C42        12.5470   -4.2070   -4.2750 c3        1 QGA      0.075100
     17 C43        12.8760   -4.2330   -5.7710 c3        1 QGA      0.095400
     18 O44        13.2160   -2.9470   -6.2520 oh        1 QGA     -0.609800
     19 O47         7.8200   -3.0960   -5.1610 oh        1 QGA     -0.594800
     20 O49         9.9000   -5.2890   -4.4350 oh        1 QGA     -0.587800
     21 O51        11.5380   -2.0040   -4.2480 oh        1 QGA     -0.603800
     22 O53        13.6690   -3.7220   -3.5560 oh        1 QGA     -0.600800
     23 C60         7.5990   -2.1550    0.0530 c3        1 QGA      0.106400
     24 O63         8.8610   -2.7900    0.1640 oh        1 QGA     -0.604800
     25 C1          2.0190   -2.6550   -0.3360 c3        1 QGA     -0.073400
     26 H9C1        0.8870   -0.8390   -0.0110 hc        1 QGA      0.038950
     27 H9C2        0.6990   -2.0880    1.2820 hc        1 QGA      0.038950
     28 H121       -0.6400   -3.5210   -0.2150 hc        1 QGA      0.039700
     29 H122       -1.3540   -1.8610   -0.1540 hc        1 QGA      0.039700
     30 H1C1        2.9290   -2.2210    0.1540 hc        1 QGA      0.040200
     31 H1C2        1.9680   -3.7400   -0.0530 hc        1 QGA      0.040200
     32 H151       -1.2640   -2.7960   -2.4890 hc        1 QGA      0.038950
     33 H152       -0.3120   -1.2690   -2.3110 hc        1 QGA      0.038950
     34 H181        0.7930   -4.1620   -2.3260 hc        1 QGA      0.040200
     35 H182        0.9650   -2.9200   -3.6310 hc        1 QGA      0.040200
     36 H21         2.2530   -1.4430   -2.1090 hc        1 QGA      0.045700
     37 H241        3.3910   -4.3160   -1.9210 hc        1 QGA      0.061200
     38 H242        3.2720   -3.4200   -3.4800 hc        1 QGA      0.061200
     39 H271        4.7840   -2.4690   -0.9520 hc        1 QGA      0.063200
     40 H272        4.6150   -1.5240   -2.4950 hc        1 QGA      0.063200
     41 H351        6.5540   -1.0510   -1.4850 h1        1 QGA      0.063200
     42 H352        8.3380   -1.2900   -1.7920 h1        1 QGA      0.063200
     43 H361        9.0770   -3.6210   -2.0420 h1        1 QGA      0.073700
     44 H362        7.9310   -4.7170   -2.9730 h1        1 QGA      0.073700
     45 H601        6.7880   -2.8330    0.4290 h1        1 QGA      0.030700
     46 H602        7.5960   -1.2070    0.6560 h1        1 QGA      0.030700
     47 H37         9.1010   -2.0150   -4.0400 h1        1 QGA      0.090700
     48 H40        10.1100   -3.7690   -5.7360 h1        1 QGA      0.098700
     49 H47         7.3360   -3.9340   -5.1080 ho        1 QGA      0.427000
     50 H41        11.1720   -3.3650   -2.8140 h1        1 QGA      0.084700
     51 H49         9.8980   -5.4650   -3.4860 ho        1 QGA      0.400000
     52 H42        12.3940   -5.2620   -3.9140 h1        1 QGA      0.089700
     53 H51        11.6300   -1.9330   -5.2100 ho        1 QGA      0.427000
     54 H431       11.9800   -4.5440   -6.3700 h1        1 QGA      0.064200
     55 H432       13.7200   -4.9500   -5.9520 h1        1 QGA      0.064200
     56 H53        13.6270   -2.7550   -3.5790 ho        1 QGA      0.414000
     57 H44        14.0410   -2.6910   -5.8210 ho        1 QGA      0.408000
     58 H63         8.9730   -3.0300    1.0910 ho        1 QGA      0.405000
@<TRIPOS>BOND
     1    1    2 1   
     2    1   25 1   
     3    1   26 1   
     4    1   27 1   
     5    2    3 1   
     6    2   28 1   
     7    2   29 1   
     8    3    4 1   
     9    3   32 1   
    10    3   33 1   
    11    4    5 1   
    12    4   34 1   
    13    4   35 1   
    14    5    6 1   
    15    5   25 1   
    16    5   36 1   
    17    6    7 1   
    18    6   37 1   
    19    6   38 1   
    20    7    8 1   
    21    7   39 1   
    22    7   40 1   
    23    8    9 1   
    24    8   10 2   
    25    9   11 1   
    26    9   12 1   
    27   11   23 1   
    28   11   41 1   
    29   11   42 1   
    30   12   13 1   
    31   12   43 1   
    32   12   44 1   
    33   13   14 1   
    34   13   19 1   
    35   13   47 1   
    36   14   15 1   
    37   14   20 1   
    38   14   48 1   
    39   15   16 1   
    40   15   21 1   
    41   15   50 1   
    42   16   17 1   
    43   16   22 1   
    44   16   52 1   
    45   17   18 1   
    46   17   54 1   
    47   17   55 1   
    48   18   57 1   
    49   19   49 1   
    50   20   51 1   
    51   21   53 1   
    52   22   56 1   
    53   23   24 1   
    54   23   45 1   
    55   23   46 1   
    56   24   58 1   
    57   25   30 1   
    58   25   31 1   
@<TRIPOS>SUBSTRUCTURE
     1 QGA         1 TEMP              0 ****  ****    0 ROOT
