@<TRIPOS>MOLECULE
QGF
   65    62     1     0     0
SMALL
bcc


@<TRIPOS>ATOM
      1 C1          4.4990    3.6710   -1.9430 c3        1 QGF     -0.214000
      2 CL1        -5.0080   -8.8270    4.5140 cl        1 QGF     -0.005000
      3 C2          2.9910    3.7910   -1.8810 c3        1 QGF     -0.037000
      4 CL2        -3.2680   -6.3130    0.9270 cl        1 QGF     -0.011000
      5 C3          2.4010    2.5090   -1.2980 c3        1 QGF     -0.197000
      6 C4          1.5400    1.8190   -2.3520 c3        1 QGF      0.116000
      7 C5          0.2740    2.6070   -2.5600 c3        1 QGF     -0.229000
      8 C6          1.1910    0.4050   -1.8810 c3        1 QGF     -0.853000
      9 S7          0.0390    0.4970   -0.4870 s4        1 QGF      2.019800
     10 O8         -0.8760    1.5990   -0.6370 o         1 QGF     -0.533900
     11 O9          0.7190    0.8610    0.7300 o         1 QGF     -0.533900
     12 N10        -0.7810   -0.9520   -0.3150 n2        1 QGF     -0.846000
     13 C11        -0.1040   -1.9680    0.1720 c3        1 QGF     -0.011500
     14 C12        -0.9580   -2.8090    1.1130 c3        1 QGF     -0.181000
     15 C13        -2.2140   -2.0430    1.6440 c3        1 QGF      0.039000
     16 C14        -2.8890   -1.8200    0.2510 c3        1 QGF     -0.181000
     17 C15        -2.0390   -0.9770   -0.6930 c3        1 QGF     -0.011500
     18 O16        -2.9430   -2.7870    2.4210 os        1 QGF     -0.283000
     19 C17        -2.1890   -3.6000    3.3160 c3        1 QGF      0.015000
     20 C18        -2.9580   -4.8950    3.6020 c2        1 QGF     -0.072000
     21 C19        -3.4520   -5.1420    4.8780 c2        1 QGF     -0.090000
     22 C20        -4.0910   -6.3450    5.1550 c1        1 QGF     -0.125000
     23 C21        -4.2360   -7.3020    4.1570 c1        1 QGF     -0.054000
     24 C23        -3.7420   -7.0550    2.8810 c1        1 QGF     -0.120000
     25 C24        -3.1030   -5.8520    2.6040 c1        1 QGF     -0.056000
     26 N26         2.2730    1.7450   -3.6000 n         1 QGF     -0.201000
     27 O27         2.1250    2.7370   -4.5440 oh        1 QGF     -0.225000
     28 C28         3.0710    0.5890   -3.8940 c2        1 QGF      0.224000
     29 O29         3.5760    0.4620   -4.9980 o         1 QGF     -0.313000
     30 C30         2.6140    4.9650   -1.0040 c2        1 QGF      0.014000
     31 N31         3.5580    5.8910   -0.6620 n2        1 QGF     -0.142000
     32 C32         3.2080    6.9780    0.0510 c1        1 QGF     -0.061000
     33 C33         1.9070    7.1560    0.4330 c1        1 QGF     -0.020000
     34 F34         1.5490    8.2650    1.1010 f         1 QGF     -0.085000
     35 C35         0.9630    6.2290    0.0900 c1        1 QGF     -0.062000
     36 N36         1.3140    5.1420   -0.6240 n1        1 QGF     -0.147000
     37 H1          4.7430    2.8830   -2.4760 hc        1 QGF      0.087333
     38 H1A         4.8760    4.4800   -2.3610 hc        1 QGF      0.087333
     39 H1B         4.8580    3.5740   -1.0330 hc        1 QGF      0.087333
     40 H2          2.6370    3.9310   -2.7860 hc        1 QGF      0.137000
     41 H3          1.8480    2.7280   -0.5160 hc        1 QGF      0.110500
     42 H3A         3.1290    1.9070   -1.0260 hc        1 QGF      0.110500
     43 H5         -0.1810    2.2890   -3.3740 hc        1 QGF      0.103000
     44 H5A        -0.3150    2.4880   -1.7890 hc        1 QGF      0.103000
     45 H5B         0.4940    3.5600   -2.6600 hc        1 QGF      0.103000
     46 H6          2.0100   -0.0580   -1.5990 h1        1 QGF      0.148500
     47 H6A         0.7720   -0.0920   -2.6200 h1        1 QGF      0.148500
     48 H11         0.2060   -2.5330   -0.5710 h1        1 QGF      0.093000
     49 H11A        0.6770   -1.6280    0.6640 h1        1 QGF      0.093000
     50 H12        -1.2580   -3.6140    0.6350 hc        1 QGF      0.105000
     51 H12A       -0.4080   -3.0830    1.8800 hc        1 QGF      0.105000
     52 H13        -1.9680   -1.1920    2.0690 h1        1 QGF      0.087000
     53 H14        -3.7540   -1.3690    0.3860 hc        1 QGF      0.105000
     54 H14A       -3.0510   -2.6960   -0.1670 hc        1 QGF      0.105000
     55 H15        -2.0950   -1.3540   -1.6000 h1        1 QGF      0.093000
     56 H15A       -2.3890   -0.0580   -0.7050 h1        1 QGF      0.093000
     57 H17        -2.0430   -3.1130    4.1580 h1        1 QGF      0.088500
     58 H17A       -1.3240   -3.8170    2.9100 h1        1 QGF      0.088500
     59 H19        -3.3500   -4.4670    5.5830 ha        1 QGF      0.162000
     60 H20        -4.4390   -6.5200    6.0560 ha        1 QGF      0.152000
     61 H23        -3.8190   -7.7420    2.1840 ha        1 QGF      0.163000
     62 HO27        2.0670    2.3690   -5.3560 ho        1 QGF      0.223000
     63 H28         3.1990   -0.1040   -3.2140 h5        1 QGF      0.131000
     64 H32         3.8880    7.6440    0.2970 ha        1 QGF      0.181000
     65 H35         0.0280    6.3560    0.3630 ha        1 QGF      0.179000
@<TRIPOS>BOND
     1    1    3 1   
     2    1   37 1   
     3    1   38 1   
     4    1   39 1   
     5    2   23 1   
     6    3    5 1   
     7    3   30 1   
     8    3   40 1   
     9    4   25 1   
    10    5    6 1   
    11    5   41 1   
    12    5   42 1   
    13    6    7 1   
    14    6    8 1   
    15    6   26 1   
    16    7   43 1   
    17    7   44 1   
    18    7   45 1   
    19    8    9 1   
    20    8   46 1   
    21    8   47 1   
    22    9   10 1   
    23    9   11 1   
    24   12   13 1   
    25   12   17 1   
    26   13   14 1   
    27   13   48 1   
    28   13   49 1   
    29   14   15 1   
    30   14   50 1   
    31   14   51 1   
    32   15   16 1   
    33   15   18 1   
    34   15   52 1   
    35   16   17 1   
    36   16   53 1   
    37   16   54 1   
    38   17   55 1   
    39   17   56 1   
    40   18   19 1   
    41   19   20 1   
    42   19   57 1   
    43   19   58 1   
    44   20   21 1   
    45   20   25 1   
    46   21   22 1   
    47   21   59 1   
    48   22   60 1   
    49   23   24 1   
    50   24   61 1   
    51   26   27 1   
    52   26   28 1   
    53   27   62 1   
    54   28   29 1   
    55   28   63 1   
    56   30   31 1   
    57   30   36 1   
    58   31   32 1   
    59   32   64 1   
    60   33   34 1   
    61   33   35 1   
    62   35   65 1   
@<TRIPOS>SUBSTRUCTURE
     1 QGF         1 TEMP              0 ****  ****    0 ROOT
