@<TRIPOS>MOLECULE
QGF
   66    68     1     0     0
SMALL
bcc


@<TRIPOS>ATOM
      1 C1          0.5990    0.7950    0.5100 c3        1 QGF     -0.090100
      2 CL1         0.3330   -0.1840   12.6740 cl        1 QGF     -0.066400
      3 C2          1.8450   -0.0610    0.3720 c3        1 QGF     -0.101000
      4 CL2         4.6920    2.7550   11.7710 cl        1 QGF     -0.080400
      5 C3          2.7250    0.1030    1.6100 c3        1 QGF     -0.103400
      6 C4          4.1880    0.5420    1.3520 c3        1 QGF      0.220200
      7 C5          4.2010    1.8950    0.6290 c3        1 QGF     -0.127100
      8 C6          4.8560    0.6930    2.7230 c3        1 QGF     -0.335600
      9 S7          6.5960    1.0020    2.8130 s6        1 QGF      1.459900
     10 O8          7.1090   -0.1270    2.1150 o         1 QGF     -0.654300
     11 O9          6.8210    2.2610    2.2460 o         1 QGF     -0.654300
     12 N10         6.9110    0.9540    4.3690 n3        1 QGF     -0.819500
     13 C11         7.1760   -0.2710    5.0950 c3        1 QGF      0.212800
     14 C12         6.1860   -0.5280    6.2280 c3        1 QGF     -0.116400
     15 C13         6.0890    0.6860    7.1500 c3        1 QGF      0.149100
     16 C14         5.8260    1.9680    6.3620 c3        1 QGF     -0.116400
     17 C15         6.8260    2.1250    5.2200 c3        1 QGF      0.212800
     18 O16         4.9890    0.4160    8.0200 os        1 QGF     -0.423600
     19 C17         5.0690    1.1380    9.2550 c3        1 QGF      0.174700
     20 C18         3.8800    0.7990   10.0900 ca        1 QGF     -0.091300
     21 C19         2.9970   -0.2230    9.7280 ca        1 QGF     -0.094000
     22 C20         1.8970   -0.5330   10.5230 ca        1 QGF     -0.126000
     23 C21         1.6710    0.1860   11.7010 ca        1 QGF      0.029400
     24 C23         2.5420    1.2090   12.0860 ca        1 QGF     -0.115000
     25 C24         3.6430    1.5100   11.2790 ca        1 QGF      0.025400
     26 N26         4.8810   -0.5200    0.4610 n4        1 QGF     -0.394700
     27 O27         5.9060    0.0230   -0.2350 oh        1 QGF     -0.385300
     28 C28         5.2520   -1.7970    1.2020 c         1 QGF      0.567900
     29 O29         6.2290   -2.4090    0.8270 o         1 QGF     -0.372100
     30 C30         1.5280   -1.5370    0.1320 ca        1 QGF      0.618300
     31 N31         0.2190   -1.9290    0.0780 nb        1 QGF     -0.714500
     32 C32        -0.0310   -3.2210   -0.1850 ca        1 QGF      0.415700
     33 C33         1.0160   -4.1590   -0.4040 ca        1 QGF     -0.075700
     34 F34         0.7640   -5.4490   -0.6760 f         1 QGF     -0.090900
     35 C35         2.3440   -3.6650   -0.3170 ca        1 QGF      0.415700
     36 N36         2.6010   -2.3750   -0.0470 nb        1 QGF     -0.714500
     37 H1          0.8980    1.8650    0.6310 hc        1 QGF      0.061367
     38 H1A        -0.0410    0.7110   -0.4030 hc        1 QGF      0.061367
     39 H1B        -0.0080    0.4890    1.3960 hc        1 QGF      0.061367
     40 H2          2.3840    0.3020   -0.5520 hc        1 QGF      0.068700
     41 H3          2.7140   -0.8350    2.2250 hc        1 QGF      0.079700
     42 H3A         2.2850    0.9090    2.2630 hc        1 QGF      0.079700
     43 H5          3.5540    2.6080    1.1970 hc        1 QGF      0.086033
     44 H5A         5.2390    2.3130    0.5770 hc        1 QGF      0.086033
     45 H5B         3.8070    1.8090   -0.4120 hc        1 QGF      0.086033
     46 H6          4.6080   -0.2050    3.3490 h1        1 QGF      0.120700
     47 H6A         4.3200    1.5520    3.2180 h1        1 QGF      0.120700
     48 H11         8.2170   -0.2040    5.5270 h1        1 QGF      0.074950
     49 H11A        7.1600   -1.1380    4.3730 h1        1 QGF      0.074950
     50 H12         6.5330   -1.4170    6.8160 hc        1 QGF      0.067700
     51 H12A        5.1680   -0.7660    5.8240 hc        1 QGF      0.067700
     52 H13         7.0420    0.7920    7.7410 h1        1 QGF      0.057700
     53 H14         5.9220    2.8570    7.0380 hc        1 QGF      0.067700
     54 H14A        4.7760    1.9520    5.9730 hc        1 QGF      0.067700
     55 H15         7.8520    2.3160    5.6530 h1        1 QGF      0.074950
     56 H15A        6.5470    3.0190    4.5900 h1        1 QGF      0.074950
     57 H17         5.0920    2.2410    9.0350 h1        1 QGF      0.052200
     58 H17A        6.0130    0.8470    9.7940 h1        1 QGF      0.052200
     59 H19         3.1790   -0.7890    8.8010 ha        1 QGF      0.150000
     60 H20         1.2120   -1.3420   10.2260 ha        1 QGF      0.153000
     61 H23         2.3660    1.7720   13.0170 ha        1 QGF      0.170000
     62 HO27        6.7690   -0.3220    0.1130 ho        1 QGF      0.500000
     63 H28         4.5280   -2.0330    2.0070 hx        1 QGF      0.122200
     64 H32        -1.0950   -3.5280   -0.2300 h4        1 QGF      0.061100
     65 H35         3.2090   -4.3370   -0.4770 h4        1 QGF      0.061100
     66 H261        4.1780   -0.7860   -0.2710 hn        1 QGF      0.500800
@<TRIPOS>BOND
     1    1    3 1   
     2    1   37 1   
     3    1   38 1   
     4    1   39 1   
     5    2   23 1   
     6    3    5 1   
     7    3   30 1   
     8    3   40 1   
     9    4   25 1   
    10    5    6 1   
    11    5   41 1   
    12    5   42 1   
    13    6    7 1   
    14    6    8 1   
    15    6   26 1   
    16    7   43 1   
    17    7   44 1   
    18    7   45 1   
    19    8    9 1   
    20    8   46 1   
    21    8   47 1   
    22    9   10 2   
    23    9   11 2   
    24    9   12 1   
    25   12   13 1   
    26   12   17 1   
    27   13   14 1   
    28   13   48 1   
    29   13   49 1   
    30   14   15 1   
    31   14   50 1   
    32   14   51 1   
    33   15   16 1   
    34   15   18 1   
    35   15   52 1   
    36   16   17 1   
    37   16   53 1   
    38   16   54 1   
    39   17   55 1   
    40   17   56 1   
    41   18   19 1   
    42   19   20 1   
    43   19   57 1   
    44   19   58 1   
    45   20   21 ar  
    46   20   25 ar  
    47   21   22 ar  
    48   21   59 1   
    49   22   23 ar  
    50   22   60 1   
    51   23   24 ar  
    52   24   25 ar  
    53   24   61 1   
    54   26   27 1   
    55   26   28 1   
    56   26   66 1   
    57   27   62 1   
    58   28   29 2   
    59   28   63 1   
    60   30   31 ar  
    61   30   36 ar  
    62   31   32 ar  
    63   32   33 ar  
    64   32   64 1   
    65   33   34 1   
    66   33   35 ar  
    67   35   36 ar  
    68   35   65 1   
@<TRIPOS>SUBSTRUCTURE
     1 QGF         1 TEMP              0 ****  ****    0 ROOT
