@<TRIPOS>MOLECULE
QGF
   66    68     1     0     0
SMALL
bcc


@<TRIPOS>ATOM
      1 C1          0.5970    0.7810    0.5140 c3        1 QGF     -0.090100
      2 Cl1         0.3460   -0.2840   12.6700 cl        1 QGF     -0.066400
      3 C2          1.8500   -0.0650    0.3760 c3        1 QGF     -0.101000
      4 Cl2         4.6390    2.7500   11.7670 cl        1 QGF     -0.080400
      5 C3          2.7300    0.1060    1.6140 c3        1 QGF     -0.103400
      6 C4          4.1890    0.5560    1.3560 c3        1 QGF      0.220200
      7 C5          4.1920    1.9090    0.6330 c3        1 QGF     -0.127100
      8 C6          4.8560    0.7120    2.7270 c3        1 QGF     -0.335600
      9 S7          6.5930    1.0370    2.8170 s6        1 QGF      1.459900
     10 O8          7.1160   -0.0860    2.1160 o         1 QGF     -0.653800
     11 O9          6.8050    2.3000    2.2520 o         1 QGF     -0.653800
     12 N10         6.9080    0.9900    4.3720 n3        1 QGF     -0.819500
     13 C11         7.1910   -0.2340    5.0950 c3        1 QGF      0.212800
     14 C12         6.2040   -0.5080    6.2260 c3        1 QGF     -0.116400
     15 C13         6.0880    0.7020    7.1520 c3        1 QGF      0.149100
     16 C14         5.8080    1.9820    6.3670 c3        1 QGF     -0.116400
     17 C15         6.8070    2.1570    5.2270 c3        1 QGF      0.212800
     18 O16         4.9920    0.4130    8.0200 os        1 QGF     -0.423600
     19 C17         5.0570    1.1350    9.2550 c3        1 QGF      0.174700
     20 C18         3.8740    0.7720   10.0900 ca        1 QGF     -0.091300
     21 C19         3.0150   -0.2700    9.7290 ca        1 QGF     -0.094000
     22 C20         1.9210   -0.6030   10.5220 ca        1 QGF     -0.126000
     23 C21         1.6770    0.1140   11.6980 ca        1 QGF      0.029400
     24 C23         2.5250    1.1570   12.0820 ca        1 QGF     -0.115000
     25 C24         3.6200    1.4810   11.2760 ca        1 QGF      0.025400
     26 N26         4.8900   -0.5010    0.4650 nx        1 QGF     -0.394700
     27 O27         5.9100    0.0500   -0.2330 oh        1 QGF     -0.385300
     28 C28         5.2710   -1.7750    1.2060 c         1 QGF      0.567900
     29 O29         6.2550   -2.3770    0.8340 o         1 QGF     -0.372100
     30 C30         1.5450   -1.5430    0.1360 ca        1 QGF      0.618300
     31 N31         0.2390   -1.9460    0.0840 nb        1 QGF     -0.714500
     32 C32        -0.0020   -3.2400   -0.1800 ca        1 QGF      0.415700
     33 C33         1.0530   -4.1690   -0.3990 ca        1 QGF     -0.075700
     34 F34         0.8110   -5.4610   -0.6710 f         1 QGF     -0.090900
     35 C35         2.3770   -3.6650   -0.3140 ca        1 QGF      0.415700
     36 N36         2.6240   -2.3730   -0.0440 nb        1 QGF     -0.714500
     37 H1          0.8890    1.8540    0.6350 hc        1 QGF      0.061367
     38 H1A        -0.0420    0.6920   -0.3980 hc        1 QGF      0.061367
     39 H1B        -0.0060    0.4710    1.4000 hc        1 QGF      0.061367
     40 H2          2.3870    0.3020   -0.5480 hc        1 QGF      0.068700
     41 H3          2.7250   -0.8320    2.2290 hc        1 QGF      0.079700
     42 H3A         2.2830    0.9080    2.2660 hc        1 QGF      0.079700
     43 H5          5.2260    2.3350    0.5800 hc        1 QGF      0.086033
     44 H5A         3.7980    1.8190   -0.4080 hc        1 QGF      0.086033
     45 H5B         3.5390    2.6170    1.2010 hc        1 QGF      0.086033
     46 H6          4.3120    1.5660    3.2220 h1        1 QGF      0.120700
     47 H6A         4.6170   -0.1900    3.3520 h1        1 QGF      0.120700
     48 H11         8.2310   -0.1520    5.5280 h1        1 QGF      0.075200
     49 H11A        7.1880   -1.0990    4.3710 h1        1 QGF      0.075200
     50 H12         5.1900   -0.7600    5.8210 hc        1 QGF      0.067700
     51 H12A        6.5640   -1.3930    6.8120 hc        1 QGF      0.067700
     52 H13         7.0390    0.8200    7.7440 h1        1 QGF      0.057700
     53 H14         5.8910    2.8700    7.0460 hc        1 QGF      0.067700
     54 H14A        4.7580    1.9520    5.9780 hc        1 QGF      0.067700
     55 H15         7.8290    2.3610    5.6620 h1        1 QGF      0.075200
     56 H15A        6.5150    3.0490    4.5990 h1        1 QGF      0.075200
     57 H17         6.0060    0.8620    9.7940 h1        1 QGF      0.052200
     58 H17A        5.0580    2.2380    9.0360 h1        1 QGF      0.052200
     59 H19         3.2110   -0.8350    8.8030 ha        1 QGF      0.150000
     60 H20         1.2540   -1.4270   10.2260 ha        1 QGF      0.153000
     61 H23         2.3340    1.7180   13.0110 ha        1 QGF      0.170000
     62 HO27        6.7760   -0.2870    0.1160 ho        1 QGF      0.500000
     63 H28         4.5480   -2.0170    2.0100 hx        1 QGF      0.122200
     64 H32        -1.0630   -3.5550   -0.2230 h4        1 QGF      0.061100
     65 H35         3.2470   -4.3300   -0.4760 h4        1 QGF      0.061100
     66 H261        4.1890   -0.7730   -0.2670 hn        1 QGF      0.500800
@<TRIPOS>BOND
     1    1    3 1   
     2    1   37 1   
     3    1   38 1   
     4    1   39 1   
     5    2   23 1   
     6    3    5 1   
     7    3   30 1   
     8    3   40 1   
     9    4   25 1   
    10    5    6 1   
    11    5   41 1   
    12    5   42 1   
    13    6    7 1   
    14    6    8 1   
    15    6   26 1   
    16    7   43 1   
    17    7   44 1   
    18    7   45 1   
    19    8    9 1   
    20    8   46 1   
    21    8   47 1   
    22    9   10 2   
    23    9   11 2   
    24    9   12 1   
    25   12   13 1   
    26   12   17 1   
    27   13   14 1   
    28   13   48 1   
    29   13   49 1   
    30   14   15 1   
    31   14   50 1   
    32   14   51 1   
    33   15   16 1   
    34   15   18 1   
    35   15   52 1   
    36   16   17 1   
    37   16   53 1   
    38   16   54 1   
    39   17   55 1   
    40   17   56 1   
    41   18   19 1   
    42   19   20 1   
    43   19   57 1   
    44   19   58 1   
    45   20   21 ar  
    46   20   25 ar  
    47   21   22 ar  
    48   21   59 1   
    49   22   23 ar  
    50   22   60 1   
    51   23   24 ar  
    52   24   25 ar  
    53   24   61 1   
    54   26   27 1   
    55   26   28 1   
    56   26   66 1   
    57   27   62 1   
    58   28   29 2   
    59   28   63 1   
    60   30   31 ar  
    61   30   36 ar  
    62   31   32 ar  
    63   32   33 ar  
    64   32   64 1   
    65   33   34 1   
    66   33   35 ar  
    67   35   36 ar  
    68   35   65 1   
@<TRIPOS>SUBSTRUCTURE
     1 QGF         1 TEMP              0 ****  ****    0 ROOT
