@<TRIPOS>MOLECULE
QGF
   66    68     1     0     0
SMALL
bcc


@<TRIPOS>ATOM
      1 C1          0.6280    0.8200    0.4860 c3        1 QGF     -0.090100
      2 CL1         0.2760   -0.2470   12.6390 cl        1 QGF     -0.066400
      3 C2          1.8730   -0.0410    0.3580 c3        1 QGF     -0.101000
      4 CL2         4.6060    2.7440   11.7670 cl        1 QGF     -0.080400
      5 C3          2.7450    0.1210    1.6010 c3        1 QGF     -0.103400
      6 C4          4.2100    0.5550    1.3540 c3        1 QGF      0.220200
      7 C5          4.2340    1.9070    0.6310 c3        1 QGF     -0.127100
      8 C6          4.8690    0.7040    2.7300 c3        1 QGF     -0.335600
      9 S7          6.6090    1.0100    2.8320 s6        1 QGF      1.459900
     10 O8          7.1250   -0.1190    2.1350 o         1 QGF     -0.653800
     11 O9          6.8400    2.2700    2.2680 o         1 QGF     -0.653800
     12 N10         6.9130    0.9590    4.3890 n3        1 QGF     -0.819500
     13 C11         7.1780   -0.2670    5.1140 c3        1 QGF      0.212800
     14 C12         6.1790   -0.5310    6.2380 c3        1 QGF     -0.116900
     15 C13         6.0700    0.6800    7.1640 c3        1 QGF      0.149100
     16 C14         5.8090    1.9630    6.3770 c3        1 QGF     -0.116900
     17 C15         6.8180    2.1270    5.2440 c3        1 QGF      0.212800
     18 O16         4.9630    0.4030    8.0230 os        1 QGF     -0.423600
     19 C17         5.0270    1.1230    9.2580 c3        1 QGF      0.174700
     20 C18         3.8340    0.7730   10.0840 ca        1 QGF     -0.091300
     21 C19         2.9680   -0.2610    9.7170 ca        1 QGF     -0.094000
     22 C20         1.8640   -0.5830   10.5030 ca        1 QGF     -0.126000
     23 C21         1.6190    0.1370   11.6770 ca        1 QGF      0.029400
     24 C23         2.4740    1.1720   12.0660 ca        1 QGF     -0.115000
     25 C24         3.5780    1.4840   11.2680 ca        1 QGF      0.025400
     26 N26         4.9060   -0.5110    0.4680 n4        1 QGF     -0.394700
     27 O27         5.9370    0.0290   -0.2220 oh        1 QGF     -0.385300
     28 C28         5.2680   -1.7880    1.2130 c         1 QGF      0.567900
     29 O29         6.2480   -2.4020    0.8480 o         1 QGF     -0.372100
     30 C30         1.5520   -1.5160    0.1160 ca        1 QGF      0.618300
     31 N31         0.2420   -1.9040    0.0550 nb        1 QGF     -0.714500
     32 C32        -0.0110   -3.1950   -0.2100 ca        1 QGF      0.415700
     33 C33         1.0340   -4.1360   -0.4210 ca        1 QGF     -0.075700
     34 F34         0.7800   -5.4250   -0.6950 f         1 QGF     -0.090900
     35 C35         2.3640   -3.6470   -0.3270 ca        1 QGF      0.415700
     36 N36         2.6230   -2.3570   -0.0560 nb        1 QGF     -0.714500
     37 H1          0.0150    0.5170    1.3690 hc        1 QGF      0.061367
     38 H1A         0.9310    1.8890    0.6090 hc        1 QGF      0.061367
     39 H1B        -0.0050    0.7370   -0.4300 hc        1 QGF      0.061367
     40 H2          2.4200    0.3200   -0.5630 hc        1 QGF      0.068700
     41 H3          2.3030    0.9290    2.2510 hc        1 QGF      0.079700
     42 H3A         2.7250   -0.8170    2.2170 hc        1 QGF      0.079700
     43 H5          5.2730    2.3220    0.5850 hc        1 QGF      0.086033
     44 H5A         3.8460    1.8220   -0.4130 hc        1 QGF      0.086033
     45 H5B         3.5850    2.6220    1.1940 hc        1 QGF      0.086033
     46 H6          4.3320    1.5630    3.2210 h1        1 QGF      0.120700
     47 H6A         4.6160   -0.1950    3.3530 h1        1 QGF      0.120700
     48 H11         7.1710   -1.1320    4.3900 h1        1 QGF      0.075200
     49 H11A        8.2160   -0.1970    5.5560 h1        1 QGF      0.075200
     50 H12         5.1660   -0.7720    5.8250 hc        1 QGF      0.067700
     51 H12A        6.5260   -1.4200    6.8270 hc        1 QGF      0.067700
     52 H13         7.0170    0.7880    7.7630 h1        1 QGF      0.057700
     53 H14         4.7610    1.9440    5.9800 hc        1 QGF      0.067700
     54 H14A        5.8960    2.8500    7.0560 hc        1 QGF      0.067700
     55 H15         7.8390    2.3210    5.6860 h1        1 QGF      0.075200
     56 H15A        6.5400    3.0220    4.6140 h1        1 QGF      0.075200
     57 H17         5.0410    2.2270    9.0400 h1        1 QGF      0.052200
     58 H17A        5.9690    0.8410    9.8050 h1        1 QGF      0.052200
     59 H19         3.1650   -0.8280    8.7940 ha        1 QGF      0.150000
     60 H20         1.1920   -1.4010   10.2020 ha        1 QGF      0.153000
     61 H23         2.2810    1.7350   12.9940 ha        1 QGF      0.170000
     62 HO27        6.7970   -0.3170    0.1330 ho        1 QGF      0.500000
     63 H28         4.5360   -2.0220    2.0110 hx        1 QGF      0.122200
     64 H32        -1.0750   -3.4980   -0.2600 h4        1 QGF      0.061100
     65 H35         3.2270   -4.3210   -0.4830 h4        1 QGF      0.061100
     66 H261        4.2070   -0.7750   -0.2680 hn        1 QGF      0.500800
@<TRIPOS>BOND
     1    1    3 1   
     2    1   37 1   
     3    1   38 1   
     4    1   39 1   
     5    2   23 1   
     6    3    5 1   
     7    3   30 1   
     8    3   40 1   
     9    4   25 1   
    10    5    6 1   
    11    5   41 1   
    12    5   42 1   
    13    6    7 1   
    14    6    8 1   
    15    6   26 1   
    16    7   43 1   
    17    7   44 1   
    18    7   45 1   
    19    8    9 1   
    20    8   46 1   
    21    8   47 1   
    22    9   10 2   
    23    9   11 2   
    24    9   12 1   
    25   12   13 1   
    26   12   17 1   
    27   13   14 1   
    28   13   48 1   
    29   13   49 1   
    30   14   15 1   
    31   14   50 1   
    32   14   51 1   
    33   15   16 1   
    34   15   18 1   
    35   15   52 1   
    36   16   17 1   
    37   16   53 1   
    38   16   54 1   
    39   17   55 1   
    40   17   56 1   
    41   18   19 1   
    42   19   20 1   
    43   19   57 1   
    44   19   58 1   
    45   20   21 ar  
    46   20   25 ar  
    47   21   22 ar  
    48   21   59 1   
    49   22   23 ar  
    50   22   60 1   
    51   23   24 ar  
    52   24   25 ar  
    53   24   61 1   
    54   26   27 1   
    55   26   28 1   
    56   26   66 1   
    57   27   62 1   
    58   28   29 2   
    59   28   63 1   
    60   30   31 ar  
    61   30   36 ar  
    62   31   32 ar  
    63   32   33 ar  
    64   32   64 1   
    65   33   34 1   
    66   33   35 ar  
    67   35   36 ar  
    68   35   65 1   
@<TRIPOS>SUBSTRUCTURE
     1 QGF         1 TEMP              0 ****  ****    0 ROOT
