@<TRIPOS>MOLECULE
QGF
   65    67     1     0     0
SMALL
bcc


@<TRIPOS>ATOM
      1 C1         -4.4490   -2.7060    2.9350 c3        1 QGF     -0.095100
      2 CL1         7.8640   -4.3070   -0.5050 cl        1 QGF     -0.082400
      3 C2         -4.6280   -1.4720    2.0670 c3        1 QGF     -0.091000
      4 CL2         7.5880    0.9870    0.0980 cl        1 QGF     -0.089400
      5 C3         -3.2900   -0.7770    1.8790 c3        1 QGF     -0.063400
      6 C4         -3.3430    0.5910    1.1520 c3        1 QGF      0.136400
      7 C5         -4.2930    1.5270    1.9120 c3        1 QGF     -0.109100
      8 C6         -1.9080    1.1760    1.2610 c3        1 QGF     -0.360600
      9 S7         -1.6410    2.8150    0.7470 s6        1 QGF      1.451900
     10 O8         -2.5970    3.1270   -0.2420 o         1 QGF     -0.649800
     11 O9         -1.6350    3.6140    1.9090 o         1 QGF     -0.649800
     12 N10        -0.1610    2.7580    0.0950 n3        1 QGF     -0.820500
     13 C11         0.0760    2.2600   -1.2400 c3        1 QGF      0.218300
     14 C12         1.1210    1.1470   -1.3020 c3        1 QGF     -0.110900
     15 C13         2.4040    1.5790   -0.5970 c3        1 QGF      0.147100
     16 C14         2.1140    2.0620    0.8210 c3        1 QGF     -0.110900
     17 C15         1.0300    3.1390    0.8120 c3        1 QGF      0.218300
     18 O16         3.2380    0.4160   -0.5680 os        1 QGF     -0.424600
     19 C17         4.6180    0.7290   -0.3770 c3        1 QGF      0.173700
     20 C18         5.4120   -0.5350   -0.4110 ca        1 QGF     -0.080300
     21 C19         4.8060   -1.7730   -0.6530 ca        1 QGF     -0.090000
     22 C20         5.5580   -2.9440   -0.6840 ca        1 QGF     -0.125000
     23 C21         6.9380   -2.8830   -0.4700 ca        1 QGF      0.024400
     24 C23         7.5670   -1.6590   -0.2270 ca        1 QGF     -0.120000
     25 C24         6.7990   -0.4920   -0.1990 ca        1 QGF      0.022400
     26 N26        -3.7900    0.3900   -0.2540 n         1 QGF     -0.282300
     27 O27        -4.6300    1.2980   -0.7190 oh        1 QGF     -0.403100
     28 C28        -2.8220   -0.1150   -1.1580 c         1 QGF      0.607900
     29 O29        -2.7100    0.2990   -2.3180 o         1 QGF     -0.562100
     30 C30        -5.2770   -1.8840    0.7520 ca        1 QGF      0.659300
     31 N31        -6.5790   -1.4990    0.5570 nb        1 QGF     -0.680000
     32 C32        -7.1640   -1.8700   -0.5920 ca        1 QGF      0.409200
     33 C33        -6.4760   -2.6380   -1.5690 ca        1 QGF     -0.112700
     34 F34        -7.0710   -3.0140   -2.7170 f         1 QGF     -0.119900
     35 C35        -5.1340   -2.9920   -1.2760 ca        1 QGF      0.409200
     36 N36        -4.5340   -2.6210   -0.1330 nb        1 QGF     -0.680000
     37 H1         -4.0720   -2.4080    3.9430 hc        1 QGF      0.044700
     38 H1A        -5.4250   -3.2320    3.0620 hc        1 QGF      0.044700
     39 H1B        -3.7180   -3.4140    2.4760 hc        1 QGF      0.044700
     40 H2         -5.3240   -0.7620    2.6030 hc        1 QGF      0.081700
     41 H3         -2.8690   -0.5870    2.9040 hc        1 QGF      0.053200
     42 H3A        -2.5770   -1.4600    1.3500 hc        1 QGF      0.053200
     43 H5         -4.0270    1.5210    2.9950 hc        1 QGF      0.062700
     44 H5A        -4.2150    2.5700    1.5180 hc        1 QGF      0.062700
     45 H5B        -5.3530    1.1960    1.7880 hc        1 QGF      0.062700
     46 H6         -1.6430    1.1280    2.3550 h1        1 QGF      0.114200
     47 H6A        -1.2110    0.4520    0.7610 h1        1 QGF      0.114200
     48 H11        -0.8970    1.8760   -1.6700 h1        1 QGF      0.066450
     49 H11A        0.4230    3.1170   -1.8880 h1        1 QGF      0.066450
     50 H12         0.7340    0.2110   -0.8230 hc        1 QGF      0.061950
     51 H12A        1.3390    0.9140   -2.3750 hc        1 QGF      0.061950
     52 H13         2.9060    2.3990   -1.1840 h1        1 QGF      0.046700
     53 H14         1.8020    1.1890    1.4500 hc        1 QGF      0.061950
     54 H14A        3.0400    2.4960    1.2770 hc        1 QGF      0.061950
     55 H15         1.4550    4.0700    0.3320 h1        1 QGF      0.066450
     56 H15A        0.7530    3.3970    1.8760 h1        1 QGF      0.066450
     57 H17         4.9630    1.4200   -1.1960 h1        1 QGF      0.049200
     58 H17A        4.7500    1.2400    0.6160 h1        1 QGF      0.049200
     59 H19         3.7170   -1.8150   -0.8230 ha        1 QGF      0.162000
     60 H20         5.0660   -3.9100   -0.8770 ha        1 QGF      0.153000
     61 H23         8.6540   -1.6140   -0.0600 ha        1 QGF      0.163000
     62 HO27       -4.1340    2.0530   -1.1090 ho        1 QGF      0.426000
     63 H28        -2.2450   -0.9740   -0.7470 h5        1 QGF      0.053200
     64 H32        -8.2090   -1.5490   -0.7510 h4        1 QGF      0.041100
     65 H35        -4.5360   -3.5880   -1.9880 h4        1 QGF      0.041100
@<TRIPOS>BOND
     1    1    3 1   
     2    1   37 1   
     3    1   38 1   
     4    1   39 1   
     5    2   23 1   
     6    3    5 1   
     7    3   30 1   
     8    3   40 1   
     9    4   25 1   
    10    5    6 1   
    11    5   41 1   
    12    5   42 1   
    13    6    7 1   
    14    6    8 1   
    15    6   26 1   
    16    7   43 1   
    17    7   44 1   
    18    7   45 1   
    19    8    9 1   
    20    8   46 1   
    21    8   47 1   
    22    9   10 2   
    23    9   11 2   
    24    9   12 1   
    25   12   13 1   
    26   12   17 1   
    27   13   14 1   
    28   13   48 1   
    29   13   49 1   
    30   14   15 1   
    31   14   50 1   
    32   14   51 1   
    33   15   16 1   
    34   15   18 1   
    35   15   52 1   
    36   16   17 1   
    37   16   53 1   
    38   16   54 1   
    39   17   55 1   
    40   17   56 1   
    41   18   19 1   
    42   19   20 1   
    43   19   57 1   
    44   19   58 1   
    45   20   21 ar  
    46   20   25 ar  
    47   21   22 ar  
    48   21   59 1   
    49   22   23 ar  
    50   22   60 1   
    51   23   24 ar  
    52   24   25 ar  
    53   24   61 1   
    54   26   27 1   
    55   26   28 1   
    56   27   62 1   
    57   28   29 2   
    58   28   63 1   
    59   30   31 ar  
    60   30   36 ar  
    61   31   32 ar  
    62   32   33 ar  
    63   32   64 1   
    64   33   34 1   
    65   33   35 ar  
    66   35   36 ar  
    67   35   65 1   
@<TRIPOS>SUBSTRUCTURE
     1 QGF         1 TEMP              0 ****  ****    0 ROOT
