@<TRIPOS>MOLECULE
QGG
   41    37     1     0     0
SMALL
bcc


@<TRIPOS>ATOM
      1 N1          1.1800   -2.2190   -4.3220 n3        1 QGG     -0.349500
      2 C2          2.3940   -1.4750   -4.4600 c2        1 QGG      0.222000
      3 N3          2.9530   -0.9190   -3.4010 n1        1 QGG     -0.280000
      4 C4          2.3430   -1.0620   -2.1110 c1        1 QGG      0.136000
      5 N5          3.6500   -1.4020   -2.3430 n1        1 QGG     -0.259000
      6 C6          4.5720   -1.3280   -1.3260 c1        1 QGG     -0.056000
      7 C7          4.1800   -0.9080   -0.0560 c1        1 QGG     -0.133000
      8 CL8         5.5370   -0.8700    1.0420 cl        1 QGG     -0.036000
      9 C9          2.8550   -0.5620    0.1820 c2        1 QGG      0.016000
     10 C10         2.4490   -0.1530    1.4770 c1        1 QGG     -0.183000
     11 C11         1.1200    0.1740    1.7190 c1        1 QGG     -0.025000
     12 C12         0.1890    0.1000    0.6910 c1        1 QGG     -0.702000
     13 C13         0.5860   -0.3020   -0.5800 c1        1 QGG      0.005000
     14 C14         1.9410   -0.6350   -0.8270 c2        1 QGG     -0.090000
     15 S15        -1.4120   -0.4570    1.2750 s4        1 QGG      2.079800
     16 O16        -2.1320   -1.1540    0.2400 o         1 QGG     -0.551900
     17 O17        -1.2750   -1.4930    2.2660 o         1 QGG     -0.551900
     18 N18        -2.2910    0.8280    1.8610 n2        1 QGG     -0.778000
     19 C19        -2.2970    1.3330    3.3210 c3        1 QGG     -0.001000
     20 C20        -3.3310    2.4700    3.3830 c3        1 QGG     -0.172000
     21 C21        -3.6140    2.7490    2.1600 c3        1 QGG     -0.149000
     22 C22        -3.3740    1.3700    1.2850 c3        1 QGG     -0.056000
     23 C24        -4.5870    0.4410    1.2470 c2        1 QGG      0.332000
     24 O25        -5.5000    0.6290    0.3950 o         1 QGG     -0.526500
     25 O26        -4.6630   -0.5310    2.0500 o         1 QGG     -0.526500
     26 N27         3.0030   -1.3320   -5.7480 n3        1 QGG     -0.349500
     27 H1N1        0.7880   -2.5990   -5.0600 hn        1 QGG      0.202500
     28 H1N2        0.7810   -2.2950   -3.5020 hn        1 QGG      0.202500
     29 H271        3.5180   -0.5960   -5.9320 hn        1 QGG      0.202500
     30 H272        2.9020   -1.9910   -6.3780 hn        1 QGG      0.202500
     31 H6          5.5100   -1.5670   -1.4960 ha        1 QGG      0.149000
     32 H10         3.1070   -0.1000    2.2040 ha        1 QGG      0.129000
     33 H11         0.8390    0.4580    2.6150 ha        1 QGG      0.154000
     34 H13        -0.0710   -0.3540   -1.3060 ha        1 QGG      0.166000
     35 H191       -1.4070    1.6720    3.5640 h1        1 QGG      0.074500
     36 H192       -2.5580    0.6050    3.9290 h1        1 QGG      0.074500
     37 H22        -3.2320    1.5560    0.3300 h1        1 QGG      0.102000
     38 H201       -2.9440    3.2570    3.8310 hc        1 QGG      0.073500
     39 H202       -4.1380    2.1700    3.8590 hc        1 QGG      0.073500
     40 H211       -3.0210    3.4620    1.8320 hc        1 QGG      0.088000
     41 H212       -4.5530    3.0330    2.0890 hc        1 QGG      0.088000
@<TRIPOS>BOND
     1    1    2 1   
     2    1   27 1   
     3    1   28 1   
     4    2    3 1   
     5    2   26 1   
     6    4    5 1   
     7    4   14 1   
     8    6    7 1   
     9    6   31 1   
    10    7    9 1   
    11    9   10 1   
    12    9   14 1   
    13   10   32 1   
    14   11   12 1   
    15   11   33 1   
    16   12   15 1   
    17   13   14 1   
    18   13   34 1   
    19   15   16 1   
    20   15   17 1   
    21   18   19 1   
    22   18   22 1   
    23   19   20 1   
    24   19   35 1   
    25   19   36 1   
    26   20   21 1   
    27   20   38 1   
    28   20   39 1   
    29   21   22 1   
    30   21   40 1   
    31   21   41 1   
    32   22   23 1   
    33   22   37 1   
    34   23   24 1   
    35   23   25 1   
    36   26   29 1   
    37   26   30 1   
@<TRIPOS>SUBSTRUCTURE
     1 QGG         1 TEMP              0 ****  ****    0 ROOT
