@<TRIPOS>MOLECULE
QGG
   43    45     1     0     0
SMALL
bcc


@<TRIPOS>ATOM
      1 N1          0.0000    0.0000    0.0000 nz        1 QGG      0.290400
      2 C2          1.3560    0.0000    0.0000 c2        1 QGG     -0.349900
      3 N3          2.0280    0.0000    1.1110 ne        1 QGG     -0.445700
      4 C4          1.4850   -0.0730    2.3630 ca        1 QGG      0.478300
      5 N5          0.2580   -0.5000    2.5650 nb        1 QGG     -0.681000
      6 C6         -0.2850   -0.6220    3.7680 ca        1 QGG      0.433200
      7 C7          0.4400   -0.3310    4.8970 ca        1 QGG     -0.129900
      8 Cl8        -0.2990   -0.4790    6.4250 cl        1 QGG      0.111600
      9 C9          1.7750    0.1190    4.8220 ca        1 QGG      0.002000
     10 C10         2.5480    0.4370    5.9740 ca        1 QGG     -0.092000
     11 C11         3.8050    0.8620    5.8120 ca        1 QGG      0.020000
     12 C12         4.3310    1.0140    4.5290 ca        1 QGG     -0.132500
     13 C13         3.6280    0.7100    3.4030 ca        1 QGG      0.016000
     14 C14         2.3230    0.2640    3.5320 ca        1 QGG     -0.111300
     15 S15         5.9570    1.6360    4.4010 sy        1 QGG      1.104200
     16 O16         6.2740    1.9430    3.0370 o         1 QGG     -0.561300
     17 O17         5.8770    2.6000    5.3810 o         1 QGG     -0.561300
     18 N18         6.9460    0.3550    4.8780 n3        1 QGG     -0.483500
     19 C19         7.4100    0.0270    6.2410 c3        1 QGG      0.238800
     20 C20         7.5500   -1.5170    6.2470 c3        1 QGG     -0.042400
     21 C21         8.0320   -1.8690    4.8160 c3        1 QGG     -0.015400
     22 C22         7.4780   -0.6900    3.9960 c3        1 QGG      0.156500
     23 C24         8.5870   -0.1500    3.1490 c         1 QGG      0.954600
     24 O25         9.4060    0.6900    3.5070 o         1 QGG     -0.650800
     25 O26         8.6140   -0.6690    1.9330 o         1 QGG     -0.650800
     26 N27         2.0780    0.0410   -1.1340 nz        1 QGG      0.290400
     27 H1N1       -0.3340   -0.8700    0.3640 hn        1 QGG      0.195633
     28 H1N2       -0.3340    0.7510    0.5710 hn        1 QGG      0.195633
     29 H271        2.1240    0.9840   -1.4660 hn        1 QGG      0.195633
     30 H272        3.0030   -0.2950   -0.9530 hn        1 QGG      0.195633
     31 H6         -1.3120   -0.9560    3.8620 h4        1 QGG      0.005100
     32 H10         2.0680    0.5210    6.9420 ha        1 QGG      0.134000
     33 H11         4.4060    1.1170    6.6760 ha        1 QGG      0.140000
     34 H13         4.0710    0.8430    2.4230 ha        1 QGG      0.142000
     35 H191        8.3690    0.4920    6.4330 h1        1 QGG      0.028200
     36 H192        6.6770    0.3410    6.9740 h1        1 QGG      0.028200
     37 H22         6.6810   -1.0490    3.3570 h1        1 QGG      0.031700
     38 H201        8.2870   -1.8260    6.9790 hc        1 QGG      0.024700
     39 H202        6.5920   -1.9810    6.4470 hc        1 QGG      0.024700
     40 H211        9.1140   -1.8950    4.7690 hc        1 QGG      0.040700
     41 H212        7.5990   -2.8050    4.4830 hc        1 QGG      0.040700
     42 H131       -0.3340    0.1180   -0.9360 hn        1 QGG      0.195633
     43 H273        1.6440   -0.5370   -1.8270 hn        1 QGG      0.195633
@<TRIPOS>BOND
     1    1    2 1   
     2    1   27 1   
     3    1   28 1   
     4    1   42 1   
     5    2    3 2   
     6    2   26 1   
     7    3    4 1   
     8    4    5 ar  
     9    4   14 ar  
    10    5    6 ar  
    11    6    7 ar  
    12    6   31 1   
    13    7    8 1   
    14    7    9 ar  
    15    9   10 ar  
    16    9   14 ar  
    17   10   11 ar  
    18   10   32 1   
    19   11   12 ar  
    20   11   33 1   
    21   12   13 ar  
    22   12   15 1   
    23   13   14 ar  
    24   13   34 1   
    25   15   16 2   
    26   15   17 2   
    27   15   18 1   
    28   18   19 1   
    29   18   22 1   
    30   19   20 1   
    31   19   35 1   
    32   19   36 1   
    33   20   21 1   
    34   20   38 1   
    35   20   39 1   
    36   21   22 1   
    37   21   40 1   
    38   21   41 1   
    39   22   23 1   
    40   22   37 1   
    41   23   24 1   
    42   23   25 1   
    43   26   29 1   
    44   26   30 1   
    45   26   43 1   
@<TRIPOS>SUBSTRUCTURE
     1 QGG         1 TEMP              0 ****  ****    0 ROOT
