@<TRIPOS>MOLECULE
QH3
   22    22     1     0     0
SMALL
bcc


@<TRIPOS>ATOM
      1 CL1         0.0750   -0.3860   -0.1360 cl        1 QH3     -0.016400
      2 C02         1.7510   -0.2000   -0.1010 ca        1 QH3      0.051400
      3 C03         2.4070   -0.1320    1.1350 ca        1 QH3     -0.118000
      4 C04         3.7880    0.0190    1.1910 ca        1 QH3     -0.085000
      5 C05         4.5360    0.1060    0.0070 ca        1 QH3     -0.135300
      6 C06         5.9990    0.2920    0.0630 c3        1 QH3      0.068000
      7 S07         6.6090   -1.3920    0.0210 ss        1 QH3     -0.195300
      8 C08         8.3230   -1.2350    0.0620 c2        1 QH3      0.519100
      9 N09         9.1340   -0.2490    0.1300 n2        1 QH3     -0.742100
     10 N10         8.9700   -2.5930    0.0020 n4        1 QH3     -0.817600
     11 C11         3.8850    0.0460   -1.2310 ca        1 QH3     -0.083000
     12 C12         2.4970   -0.1080   -1.2900 ca        1 QH3      0.008400
     13 CL2         1.7450   -0.1790   -2.8030 cl        1 QH3     -0.028400
     14 H03         1.8230   -0.1950    2.0690 ha        1 QH3      0.171000
     15 H04         4.2890    0.0800    2.1700 ha        1 QH3      0.148000
     16 H061        6.3190    0.8010    1.0050 h1        1 QH3      0.093700
     17 H062        6.3800    0.8690   -0.8140 h1        1 QH3      0.093700
     18 H11         4.4630    0.1300   -2.1660 ha        1 QH3      0.156000
     19 H09         8.7830    0.6840    0.1750 hn        1 QH3      0.485400
     20 H101        8.6560   -3.1400    0.8110 hn        1 QH3      0.475133
     21 H102        8.6730   -3.0570   -0.8630 hn        1 QH3      0.475133
     22 H103        9.9980   -2.5280    0.0160 hn        1 QH3      0.475133
@<TRIPOS>BOND
     1    1    2 1   
     2    2    3 ar  
     3    2   12 ar  
     4    3    4 ar  
     5    3   14 1   
     6    4    5 ar  
     7    4   15 1   
     8    5    6 1   
     9    5   11 ar  
    10    6    7 1   
    11    6   16 1   
    12    6   17 1   
    13    7    8 1   
    14    8    9 2   
    15    8   10 1   
    16    9   19 1   
    17   10   20 1   
    18   10   21 1   
    19   10   22 1   
    20   11   12 ar  
    21   11   18 1   
    22   12   13 1   
@<TRIPOS>SUBSTRUCTURE
     1 QH3         1 TEMP              0 ****  ****    0 ROOT
