@<TRIPOS>MOLECULE
QH3
   22    22     1     0     0
SMALL
bcc


@<TRIPOS>ATOM
      1 CL1         0.0740   -0.3940   -0.0920 cl        1 QH3     -0.016400
      2 C02         1.7500   -0.2050   -0.0700 ca        1 QH3      0.051400
      3 C03         2.4160   -0.1440    1.1620 ca        1 QH3     -0.118000
      4 C04         3.7960    0.0090    1.2080 ca        1 QH3     -0.085000
      5 C05         4.5350    0.1050    0.0190 ca        1 QH3     -0.135300
      6 C06         5.9980    0.2920    0.0640 c3        1 QH3      0.068000
      7 S07         6.6100   -1.3900    0.0070 ss        1 QH3     -0.195300
      8 C08         8.3240   -1.2310    0.0350 c2        1 QH3      0.519100
      9 N09         9.1340   -0.2440    0.1020 n2        1 QH3     -0.742100
     10 N10         8.9730   -2.5870   -0.0390 n4        1 QH3     -0.817600
     11 C11         3.8740    0.0510   -1.2150 ca        1 QH3     -0.083000
     12 C12         2.4860   -0.1050   -1.2640 ca        1 QH3      0.008400
     13 CL2         1.7220   -0.1680   -2.7710 cl        1 QH3     -0.028400
     14 H03         1.8390   -0.2130    2.1000 ha        1 QH3      0.171000
     15 H04         4.3060    0.0650    2.1820 ha        1 QH3      0.148000
     16 H061        6.3720    0.8750   -0.8130 h1        1 QH3      0.093700
     17 H062        6.3250    0.7970    1.0060 h1        1 QH3      0.093700
     18 H11         4.4450    0.1410   -2.1540 ha        1 QH3      0.156000
     19 H09         8.7830    0.6880    0.1550 hn        1 QH3      0.485400
     20 H101        8.6700   -3.1390    0.7720 hn        1 QH3      0.475133
     21 H102       10.0010   -2.5210   -0.0380 hn        1 QH3      0.475133
     22 H103        8.6660   -3.0490   -0.9020 hn        1 QH3      0.475133
@<TRIPOS>BOND
     1    1    2 1   
     2    2    3 ar  
     3    2   12 ar  
     4    3    4 ar  
     5    3   14 1   
     6    4    5 ar  
     7    4   15 1   
     8    5    6 1   
     9    5   11 ar  
    10    6    7 1   
    11    6   16 1   
    12    6   17 1   
    13    7    8 1   
    14    8    9 2   
    15    8   10 1   
    16    9   19 1   
    17   10   20 1   
    18   10   21 1   
    19   10   22 1   
    20   11   12 ar  
    21   11   18 1   
    22   12   13 1   
@<TRIPOS>SUBSTRUCTURE
     1 QH3         1 TEMP              0 ****  ****    0 ROOT
