@<TRIPOS>MOLECULE
QH3
   22    22     1     0     0
SMALL
bcc


@<TRIPOS>ATOM
      1 Cl1         0.0740   -0.3960   -0.1200 cl        1 QH3     -0.016400
      2 C02         1.7500   -0.2070   -0.0890 ca        1 QH3      0.051400
      3 C03         2.4090   -0.1450    1.1470 ca        1 QH3     -0.118000
      4 C04         3.7900    0.0080    1.1990 ca        1 QH3     -0.085000
      5 C05         4.5350    0.1040    0.0150 ca        1 QH3     -0.135300
      6 C06         5.9970    0.2930    0.0680 c3        1 QH3      0.068000
      7 S07         6.6110   -1.3900    0.0130 ss        1 QH3     -0.195300
      8 C08         8.3240   -1.2300    0.0500 c2        1 QH3      0.519100
      9 N09         9.1330   -0.2420    0.1210 n2        1 QH3     -0.742100
     10 N10         8.9740   -2.5850   -0.0210 nz        1 QH3     -0.817600
     11 C11         3.8800    0.0510   -1.2230 ca        1 QH3     -0.083000
     12 C12         2.4930   -0.1060   -1.2790 ca        1 QH3      0.008400
     13 Cl2         1.7370   -0.1690   -2.7900 cl        1 QH3     -0.028400
     14 H03         1.8280   -0.2150    2.0810 ha        1 QH3      0.171000
     15 H04         4.2940    0.0640    2.1770 ha        1 QH3      0.148000
     16 H061        6.3750    0.8760   -0.8070 h1        1 QH3      0.093700
     17 H062        6.3190    0.7970    1.0110 h1        1 QH3      0.093700
     18 H11         4.4560    0.1410   -2.1580 ha        1 QH3      0.156000
     19 H09         8.7810    0.6900    0.1730 hn        1 QH3      0.485400
     20 H101        8.6710   -3.1360    0.7900 hn        1 QH3      0.475133
     21 H102       10.0020   -2.5180   -0.0190 hn        1 QH3      0.475133
     22 H103        8.6680   -3.0490   -0.8850 hn        1 QH3      0.475133
@<TRIPOS>BOND
     1    1    2 1   
     2    2    3 ar  
     3    2   12 ar  
     4    3    4 ar  
     5    3   14 1   
     6    4    5 ar  
     7    4   15 1   
     8    5    6 1   
     9    5   11 ar  
    10    6    7 1   
    11    6   16 1   
    12    6   17 1   
    13    7    8 1   
    14    8    9 2   
    15    8   10 1   
    16    9   19 1   
    17   10   20 1   
    18   10   21 1   
    19   10   22 1   
    20   11   12 ar  
    21   11   18 1   
    22   12   13 1   
@<TRIPOS>SUBSTRUCTURE
     1 QH3         1 TEMP              0 ****  ****    0 ROOT
