@<TRIPOS>MOLECULE
QHC
   42    44     1     0     0
SMALL
bcc


@<TRIPOS>ATOM
      1 C1         -0.0660   -0.1720   -0.0710 ca        1 QHC      0.139900
      2 C2          1.3470   -0.2070   -0.0430 ca        1 QHC     -0.005600
      3 C3          2.0070   -0.1710    1.1900 ca        1 QHC     -0.097000
      4 C4          1.2870   -0.1000    2.3790 ca        1 QHC     -0.117000
      5 C5         -0.1140   -0.0560    2.3570 cp        1 QHC     -0.048000
      6 C6         -0.7880   -0.0950    1.1340 ca        1 QHC     -0.150000
      7 C8         -0.8560   -0.0020    3.6150 cp        1 QHC     -0.131300
      8 C9         -0.5950   -0.9820    4.6010 ca        1 QHC      0.445200
      9 C11        -2.0990   -0.0490    6.0630 ca        1 QHC      0.395200
     10 C12        -1.8070    0.9970    3.8990 ca        1 QHC      0.021700
     11 C13        -2.4640    0.9590    5.1430 ca        1 QHC     -0.287600
     12 C14        -3.4650    1.9960    5.5510 c3        1 QHC      0.203800
     13 C15        -3.8650    2.9440    4.4120 c3        1 QHC     -0.103400
     14 C16        -2.6480    3.3150    3.5950 c3        1 QHC     -0.075400
     15 C17        -2.0760    2.0860    2.9220 c3        1 QHC     -0.062100
     16 C19        -5.1990   -0.1050    8.1740 c3        1 QHC     -0.150400
     17 C21        -5.2560   -0.0800    9.6820 c3        1 QHC     -0.106100
     18 CL7         2.2550   -0.2950   -1.4660 cl        1 QHC     -0.028400
     19 N10        -1.1970   -1.0070    5.8040 nb        1 QHC     -0.639000
     20 O20        -4.3320    2.1920    8.2600 o         1 QHC     -0.398100
     21 F22        -0.7490   -0.2110   -1.2370 f         1 QHC     -0.113900
     22 N23        -4.7110    1.3340    6.1260 n4        1 QHC     -0.694800
     23 H1          3.1090   -0.2010    1.2190 ha        1 QHC      0.168000
     24 H2          1.8240   -0.0740    3.3400 ha        1 QHC      0.150000
     25 H3         -1.8870   -0.0810    1.0940 ha        1 QHC      0.150000
     26 H4          0.1470   -1.7850    4.4130 h4        1 QHC      0.056100
     27 H5         -2.5340   -0.0830    7.0790 h4        1 QHC      0.006100
     28 H6         -3.0180    2.6180    6.3910 hx        1 QHC      0.128700
     29 H7         -4.3280    3.8690    4.8460 hc        1 QHC      0.068200
     30 H8         -4.6200    2.4620    3.7340 hc        1 QHC      0.068200
     31 H9         -1.8730    3.7940    4.2500 hc        1 QHC      0.077200
     32 H10        -2.9430    4.0680    2.8160 hc        1 QHC      0.077200
     33 H11        -1.1260    2.3570    2.3850 hc        1 QHC      0.085700
     34 H12        -2.7950    1.7080    2.1430 hc        1 QHC      0.085700
     35 H13        -6.2210   -0.3200    7.7550 hc        1 QHC      0.101200
     36 H14        -4.5020   -0.9190    7.8290 hc        1 QHC      0.101200
     37 H15        -4.2470    0.1240   10.1170 hc        1 QHC      0.075700
     38 H16        -5.9610    0.7080   10.0430 hc        1 QHC      0.075700
     39 H17        -5.6100   -1.0750   10.0510 hc        1 QHC      0.075700
     40 H18        -5.5260    1.8980    5.8580 hn        1 QHC      0.456800
     41 C18        -4.7100    1.2120    7.6400 c         1 QHC      0.539100
     42 H232       -4.8090    0.4010    5.7120 hn        1 QHC      0.456800
@<TRIPOS>BOND
     1    1    2 ar  
     2    1    6 ar  
     3    1   21 1   
     4    2    3 ar  
     5    2   18 1   
     6    3    4 ar  
     7    3   23 1   
     8    4    5 ar  
     9    4   24 1   
    10    5    6 ar  
    11    5    7 1   
    12    6   25 1   
    13    7    8 ar  
    14    7   10 ar  
    15    8   19 ar  
    16    8   26 1   
    17    9   11 ar  
    18    9   19 ar  
    19    9   27 1   
    20   10   11 ar  
    21   10   15 1   
    22   11   12 1   
    23   12   13 1   
    24   12   22 1   
    25   12   28 1   
    26   13   14 1   
    27   13   29 1   
    28   13   30 1   
    29   14   15 1   
    30   14   31 1   
    31   14   32 1   
    32   15   33 1   
    33   15   34 1   
    34   16   17 1   
    35   16   35 1   
    36   16   36 1   
    37   16   41 1   
    38   17   37 1   
    39   17   38 1   
    40   17   39 1   
    41   20   41 2   
    42   22   40 1   
    43   22   41 1   
    44   22   42 1   
@<TRIPOS>SUBSTRUCTURE
     1 QHC         1 TEMP              0 ****  ****    0 ROOT
