@<TRIPOS>MOLECULE
QHC
   42    41     1     0     0
SMALL
bcc


@<TRIPOS>ATOM
      1 C1          1.1080    1.5910   -0.5550 c2        1 QHC     -0.148000
      2 C2          1.2770    0.4280   -1.4600 c2        1 QHC     -0.117000
      3 C3          2.4060   -0.2830   -1.5220 c2        1 QHC     -0.135000
      4 C4          1.7560   -0.5080    4.3700 c1        1 QHC      0.258000
      5 C5          0.6280   -0.1300    3.8000 c2        1 QHC     -0.503000
      6 C6          0.6530    1.3460    0.6850 c1        1 QHC      0.165000
      7 C8         -0.7270   -0.5360    4.2730 c3        1 QHC     -0.034000
      8 C9         -0.5250   -1.1530    5.6260 c1        1 QHC     -0.029000
      9 C11        -2.3000    0.1720    6.5550 c2        1 QHC     -0.084000
     10 C12        -1.7370    0.5770    4.2000 c2        1 QHC     -0.099000
     11 C13        -2.5680    0.8080    5.3820 c2        1 QHC     -0.147000
     12 C14        -3.6420    1.8560    5.2880 c3        1 QHC     -0.014000
     13 C15        -4.0670    2.1430    3.8410 c3        1 QHC     -0.178000
     14 C16        -2.8500    2.4270    2.9850 c3        1 QHC     -0.136000
     15 C17        -1.8550    1.3390    3.0970 c2        1 QHC     -0.127000
     16 C19        -6.2350   -0.6560    9.2710 c2        1 QHC     -0.239000
     17 C21        -6.0180    0.1760   10.2840 c2        1 QHC     -0.239000
     18 Cl7        -0.0690    0.0940   -2.4420 cl        1 QHC      0.010000
     19 N10        -1.2810   -0.7910    6.6490 n7        1 QHC     -0.168000
     20 O20        -4.4690    3.0860    7.7470 o         1 QHC     -0.138000
     21 F22         1.4210    2.8110   -1.0580 f         1 QHC     -0.063000
     22 N23        -4.8720    1.4650    6.0980 ny        1 QHC     -0.137000
     23 H1          3.2730   -0.0510   -0.8870 ha        1 QHC      0.148500
     24 H2          2.5330   -1.1310   -2.2120 ha        1 QHC      0.148500
     25 H3          0.6640    0.5000    2.8850 ha        1 QHC      0.212000
     26 H4         -1.0910   -1.3780    3.6020 hc        1 QHC      0.149000
     27 H5         -1.1090   -1.1980    7.5460 hn        1 QHC      0.272000
     28 H6         -2.8440    0.3720    7.4960 h4        1 QHC      0.125000
     29 H7         -3.2490    2.8200    5.7450 hx        1 QHC      0.168000
     30 H8         -4.7540    3.0300    3.8160 hc        1 QHC      0.107000
     31 H9         -4.6120    1.2600    3.4130 hc        1 QHC      0.107000
     32 H10        -3.1820    2.5430    1.9170 hc        1 QHC      0.123500
     33 H11        -2.3740    3.4000    3.2910 hc        1 QHC      0.123500
     34 H12        -1.1930    1.1930    2.2210 ha        1 QHC      0.180000
     35 H13        -5.2570    1.1990    8.2510 hx        1 QHC      0.239000
     36 H14        -5.5140   -1.4330    8.9770 ha        1 QHC      0.124250
     37 H15        -7.1820   -0.6760    8.7140 ha        1 QHC      0.124250
     38 H16        -5.0950    0.1570   10.8830 ha        1 QHC      0.124250
     39 H17        -6.7630    0.9130   10.6180 ha        1 QHC      0.124250
     40 H18        -4.9520    0.4420    6.0960 hn        1 QHC      0.256000
     41 C18        -4.8630    1.9590    7.5200 c2        1 QHC      0.191000
     42 H232       -5.6990    1.8550    5.6280 hn        1 QHC      0.256000
@<TRIPOS>BOND
     1    1    2 1   
     2    1    6 1   
     3    1   21 1   
     4    2    3 1   
     5    2   18 1   
     6    3   23 1   
     7    3   24 1   
     8    4    5 1   
     9    5    7 1   
    10    5   25 1   
    11    7    8 1   
    12    7   10 1   
    13    7   26 1   
    14    8   19 1   
    15    9   11 1   
    16    9   19 1   
    17    9   28 1   
    18   10   11 1   
    19   10   15 1   
    20   11   12 1   
    21   12   13 1   
    22   12   22 1   
    23   12   29 1   
    24   13   14 1   
    25   13   30 1   
    26   13   31 1   
    27   14   15 1   
    28   14   32 1   
    29   14   33 1   
    30   15   34 1   
    31   16   17 1   
    32   16   36 1   
    33   16   37 1   
    34   17   38 1   
    35   17   39 1   
    36   19   27 1   
    37   20   41 1   
    38   22   40 1   
    39   22   41 1   
    40   22   42 1   
    41   35   41 1   
@<TRIPOS>SUBSTRUCTURE
     1 QHC         1 TEMP              0 ****  ****    0 ROOT
