@<TRIPOS>MOLECULE
QHF
   70    72     1     0     0
SMALL
bcc


@<TRIPOS>ATOM
      1 C1          0.6290    0.4480    0.0610 c3        1 QHF     -0.090100
      2 F1          1.4230   -5.7590   -1.0620 f         1 QHF     -0.090900
      3 N1          6.5850    1.1370    4.4020 n3        1 QHF     -0.822500
      4 O1          6.5690    2.4190    2.2610 o         1 QHF     -0.655800
      5 S1          6.3920    1.1520    2.8290 s6        1 QHF      1.459900
      6 C2          1.9510   -0.2970    0.0280 c3        1 QHF     -0.101000
      7 N2          2.6540    0.3990   12.1620 nc        1 QHF     -0.348300
      8 O2          7.0370    0.0580    2.1840 o         1 QHF     -0.655800
      9 C3          2.7140   -0.0580    1.3300 c3        1 QHF     -0.102400
     10 N3          4.9980   -0.4930    0.3570 n4        1 QHF     -0.394700
     11 O3          2.0280    1.5180   11.8670 os        1 QHF     -0.111100
     12 C4          4.1490    0.5050    1.1850 c3        1 QHF      0.220200
     13 N4          0.5200   -2.2990   -0.3810 nb        1 QHF     -0.714500
     14 O4          6.0240    0.1380   -0.2600 oh        1 QHF     -0.385300
     15 C5          4.1040    1.8540    0.4570 c3        1 QHF     -0.127100
     16 N5          2.9340   -2.5390   -0.3120 nb        1 QHF     -0.714500
     17 O5          6.4630   -2.2700    0.8230 o         1 QHF     -0.372100
     18 C6          4.6910    0.7130    2.6040 c3        1 QHF     -0.333600
     19 C7          6.8460   -0.0680    5.1630 c3        1 QHF      0.212300
     20 C8          5.8410   -0.3030    6.2900 c3        1 QHF     -0.094400
     21 C9          5.7250    0.9230    7.1870 c3        1 QHF     -0.065700
     22 C10         4.6590    0.6910    8.2460 c3        1 QHF     -0.077400
     23 C11         4.7860    1.6620    9.4070 c3        1 QHF      0.001900
     24 C12         3.7750    1.4090   10.4400 cd        1 QHF     -0.331900
     25 C13         3.7220    0.2560   11.3510 cd        1 QHF      0.323600
     26 C14         4.6800   -0.8650   11.3660 c3        1 QHF     -0.131400
     27 C15         2.6880    2.1830   10.8060 cc        1 QHF      0.274000
     28 C16         2.1130    3.4560   10.3760 c3        1 QHF     -0.140400
     29 C17         5.4170    2.1560    6.3510 c3        1 QHF     -0.094400
     30 C18         6.4320    2.3260    5.2210 c3        1 QHF      0.212300
     31 C19         5.4190   -1.7360    1.1300 c         1 QHF      0.569900
     32 C20         1.7830   -1.7960   -0.2260 ca        1 QHF      0.618300
     33 C21         0.4030   -3.6080   -0.6540 ca        1 QHF      0.415700
     34 C22         1.5410   -4.4520   -0.7800 ca        1 QHF     -0.075700
     35 C23         2.8110   -3.8460   -0.5920 ca        1 QHF      0.415700
     36 H1          0.0730    0.3080   -0.8980 hc        1 QHF      0.061367
     37 H1A         0.8250    1.5400    0.1980 hc        1 QHF      0.061367
     38 H1B        -0.0170    0.0900    0.8990 hc        1 QHF      0.061367
     39 H2          2.5290    0.1100   -0.8540 hc        1 QHF      0.068700
     40 H3          2.1560    0.7070    1.9400 hc        1 QHF      0.079200
     41 H3A         2.7350   -0.9930    1.9480 hc        1 QHF      0.079200
     42 HO4         6.8840   -0.1340    0.1570 ho        1 QHF      0.500000
     43 H5          3.3530    2.5080    0.9650 hc        1 QHF      0.085700
     44 H5A         5.1020    2.3610    0.4880 hc        1 QHF      0.085700
     45 H5B         3.8060    1.7350   -0.6120 hc        1 QHF      0.085700
     46 H6          4.4630   -0.1990    3.2170 h1        1 QHF      0.119200
     47 H6A         4.0560    1.5320    3.0430 h1        1 QHF      0.119200
     48 H7          6.8450   -0.9500    4.4610 h1        1 QHF      0.071450
     49 H7A         7.8800    0.0170    5.6100 h1        1 QHF      0.071450
     50 H8          6.1920   -1.1820    6.8910 hc        1 QHF      0.057450
     51 H8A         4.8340   -0.5580    5.8690 hc        1 QHF      0.057450
     52 H9          6.7170    1.0800    7.6980 hc        1 QHF      0.064700
     53 H10         3.6410    0.7810    7.7860 hc        1 QHF      0.050700
     54 H10A        4.7540   -0.3560    8.6430 hc        1 QHF      0.050700
     55 H11         5.8110    1.5670    9.8620 hc        1 QHF      0.051700
     56 H11A        4.6850    2.7160    9.0310 hc        1 QHF      0.051700
     57 H14         5.6850   -0.5040   11.0340 hc        1 QHF      0.057367
     58 H14A        4.7760   -1.3090   12.3880 hc        1 QHF      0.057367
     59 H14B        4.3360   -1.6670   10.6640 hc        1 QHF      0.057367
     60 H16         1.8990    4.1050   11.2630 hc        1 QHF      0.066700
     61 H16A        1.1490    3.2800    9.8320 hc        1 QHF      0.066700
     62 H16B        2.8240    3.9870    9.6970 hc        1 QHF      0.066700
     63 H17         5.4610    3.0740    6.9940 hc        1 QHF      0.057450
     64 H17A        4.3800    2.0840    5.9330 hc        1 QHF      0.057450
     65 H18         7.4390    2.5720    5.6690 h1        1 QHF      0.071450
     66 H18A        6.1260    3.1890    4.5610 h1        1 QHF      0.071450
     67 H19         4.6660   -2.0230    1.8910 hx        1 QHF      0.121200
     68 H21        -0.6230   -4.0050   -0.7800 h4        1 QHF      0.061600
     69 H23         3.7400   -4.4410   -0.6780 h4        1 QHF      0.061600
     70 H31         4.3810   -0.8170   -0.4270 hn        1 QHF      0.500800
@<TRIPOS>BOND
     1    1    6 1   
     2    1   36 1   
     3    1   37 1   
     4    1   38 1   
     5    2   34 1   
     6    3    5 1   
     7    3   19 1   
     8    3   30 1   
     9    4    5 2   
    10    5    8 2   
    11    5   18 1   
    12    6    9 1   
    13    6   32 1   
    14    6   39 1   
    15    7   11 1   
    16    7   25 2   
    17    9   12 1   
    18    9   40 1   
    19    9   41 1   
    20   10   12 1   
    21   10   14 1   
    22   10   31 1   
    23   10   70 1   
    24   11   27 1   
    25   12   15 1   
    26   12   18 1   
    27   13   32 ar  
    28   13   33 ar  
    29   14   42 1   
    30   15   43 1   
    31   15   44 1   
    32   15   45 1   
    33   16   32 ar  
    34   16   35 ar  
    35   17   31 2   
    36   18   46 1   
    37   18   47 1   
    38   19   20 1   
    39   19   48 1   
    40   19   49 1   
    41   20   21 1   
    42   20   50 1   
    43   20   51 1   
    44   21   22 1   
    45   21   29 1   
    46   21   52 1   
    47   22   23 1   
    48   22   53 1   
    49   22   54 1   
    50   23   24 1   
    51   23   55 1   
    52   23   56 1   
    53   24   25 1   
    54   24   27 2   
    55   25   26 1   
    56   26   57 1   
    57   26   58 1   
    58   26   59 1   
    59   27   28 1   
    60   28   60 1   
    61   28   61 1   
    62   28   62 1   
    63   29   30 1   
    64   29   63 1   
    65   29   64 1   
    66   30   65 1   
    67   30   66 1   
    68   31   67 1   
    69   33   34 ar  
    70   33   68 1   
    71   34   35 ar  
    72   35   69 1   
@<TRIPOS>SUBSTRUCTURE
     1 QHF         1 TEMP              0 ****  ****    0 ROOT
