@<TRIPOS>MOLECULE
QHF
   70    72     1     0     0
SMALL
bcc


@<TRIPOS>ATOM
      1 C1          0.6110    0.4360    0.0760 c3        1 QHF     -0.090100
      2 F1          1.4520   -5.7600   -1.0710 f         1 QHF     -0.090900
      3 N1          6.5770    1.1620    4.3950 n3        1 QHF     -0.822500
      4 O1          6.5410    2.4510    2.2600 o         1 QHF     -0.655800
      5 S1          6.3780    1.1800    2.8230 s6        1 QHF      1.459900
      6 C2          1.9390   -0.2980    0.0350 c3        1 QHF     -0.101000
      7 N2          2.6850    0.3500   12.1680 nc        1 QHF     -0.348300
      8 O2          7.0300    0.0950    2.1710 o         1 QHF     -0.655800
      9 C3          2.7050   -0.0560    1.3340 c3        1 QHF     -0.102400
     10 N3          4.9890   -0.4690    0.3510 nx        1 QHF     -0.394700
     11 O3          2.0440    1.4630   11.8780 os        1 QHF     -0.111100
     12 C4          4.1350    0.5190    1.1850 c3        1 QHF      0.220200
     13 N4          0.5230   -2.3100   -0.3750 nb        1 QHF     -0.714500
     14 O4          6.0070    0.1730   -0.2680 oh        1 QHF     -0.385300
     15 C5          4.0750    1.8710    0.4630 c3        1 QHF     -0.127100
     16 N5          2.9390   -2.5290   -0.3170 nb        1 QHF     -0.714500
     17 O5          6.4710   -2.2340    0.8060 o         1 QHF     -0.372100
     18 C6          4.6810    0.7270    2.6030 c3        1 QHF     -0.333600
     19 C7          6.8540   -0.0440    5.1510 c3        1 QHF      0.212300
     20 C8          5.8560   -0.2940    6.2800 c3        1 QHF     -0.094400
     21 C9          5.7310    0.9270    7.1820 c3        1 QHF     -0.065700
     22 C10         4.6710    0.6790    8.2450 c3        1 QHF     -0.077400
     23 C11         4.7910    1.6480    9.4090 c3        1 QHF      0.001900
     24 C12         3.7880    1.3790   10.4440 cd        1 QHF     -0.331900
     25 C13         3.7520    0.2230   11.3520 cd        1 QHF      0.323600
     26 C14         4.7240   -0.8860   11.3600 c3        1 QHF     -0.131400
     27 C15         2.6920    2.1390   10.8170 cc        1 QHF      0.274000
     28 C16         2.1000    3.4060   10.3930 c3        1 QHF     -0.140400
     29 C17         5.4070    2.1610    6.3530 c3        1 QHF     -0.094400
     30 C18         6.4160    2.3450    5.2200 c3        1 QHF      0.212300
     31 C19         5.4230   -1.7100    1.1180 c         1 QHF      0.569900
     32 C20         1.7820   -1.7960   -0.2240 ca        1 QHF      0.618300
     33 C21         0.4160   -3.6190   -0.6520 ca        1 QHF      0.415700
     34 C22         1.5600   -4.4530   -0.7860 ca        1 QHF     -0.075700
     35 C23         2.8260   -3.8370   -0.6000 ca        1 QHF      0.415700
     36 H1         -0.0290    0.0710    0.9150 hc        1 QHF      0.061367
     37 H1A         0.0530    0.2950   -0.8820 hc        1 QHF      0.061367
     38 H1B         0.7980    1.5300    0.2160 hc        1 QHF      0.061367
     39 H2          2.5100    0.1180   -0.8480 hc        1 QHF      0.068700
     40 H3          2.7360   -0.9930    1.9490 hc        1 QHF      0.079200
     41 H3A         2.1430    0.7020    1.9500 hc        1 QHF      0.079200
     42 HO4         6.8700   -0.0920    0.1450 ho        1 QHF      0.500000
     43 H5          3.3210    2.5160    0.9760 hc        1 QHF      0.085700
     44 H5A         3.7740    1.7530   -0.6060 hc        1 QHF      0.085700
     45 H5B         5.0700    2.3860    0.4910 hc        1 QHF      0.085700
     46 H6          4.0400    1.5390    3.0480 h1        1 QHF      0.119200
     47 H6A         4.4630   -0.1890    3.2140 h1        1 QHF      0.119200
     48 H7          7.8890    0.0500    5.5940 h1        1 QHF      0.071450
     49 H7A         6.8590   -0.9230    4.4450 h1        1 QHF      0.071450
     50 H8          4.8510   -0.5580    5.8620 hc        1 QHF      0.057450
     51 H8A         6.2190   -1.1720    6.8760 hc        1 QHF      0.057450
     52 H9          6.7230    1.0930    7.6900 hc        1 QHF      0.064700
     53 H10         4.7800   -0.3680    8.6380 hc        1 QHF      0.050700
     54 H10A        3.6510    0.7600    7.7890 hc        1 QHF      0.050700
     55 H11         4.6760    2.7030    9.0360 hc        1 QHF      0.051700
     56 H11A        5.8190    1.5630    9.8590 hc        1 QHF      0.051700
     57 H14         5.7230   -0.5110   11.0250 hc        1 QHF      0.057367
     58 H14A        4.8290   -1.3320   12.3800 hc        1 QHF      0.057367
     59 H14B        4.3870   -1.6900   10.6570 hc        1 QHF      0.057367
     60 H16         2.8020    3.9480    9.7130 hc        1 QHF      0.066700
     61 H16A        1.1370    3.2200    9.8520 hc        1 QHF      0.066700
     62 H16B        1.8810    4.0500   11.2830 hc        1 QHF      0.066700
     63 H17         5.4440    3.0760    7.0000 hc        1 QHF      0.057450
     64 H17A        4.3690    2.0790    5.9390 hc        1 QHF      0.057450
     65 H18         6.0990    3.2080    4.5650 h1        1 QHF      0.071450
     66 H18A        7.4220    2.5990    5.6650 h1        1 QHF      0.071450
     67 H19         4.6760   -2.0070    1.8800 hx        1 QHF      0.121200
     68 H21        -0.6070   -4.0240   -0.7760 h4        1 QHF      0.061600
     69 H23         3.7600   -4.4230   -0.6920 h4        1 QHF      0.061600
     70 H31         4.3710   -0.7950   -0.4320 hn        1 QHF      0.500800
@<TRIPOS>BOND
     1    1    6 1   
     2    1   36 1   
     3    1   37 1   
     4    1   38 1   
     5    2   34 1   
     6    3    5 1   
     7    3   19 1   
     8    3   30 1   
     9    4    5 2   
    10    5    8 2   
    11    5   18 1   
    12    6    9 1   
    13    6   32 1   
    14    6   39 1   
    15    7   11 1   
    16    7   25 2   
    17    9   12 1   
    18    9   40 1   
    19    9   41 1   
    20   10   12 1   
    21   10   14 1   
    22   10   31 1   
    23   10   70 1   
    24   11   27 1   
    25   12   15 1   
    26   12   18 1   
    27   13   32 ar  
    28   13   33 ar  
    29   14   42 1   
    30   15   43 1   
    31   15   44 1   
    32   15   45 1   
    33   16   32 ar  
    34   16   35 ar  
    35   17   31 2   
    36   18   46 1   
    37   18   47 1   
    38   19   20 1   
    39   19   48 1   
    40   19   49 1   
    41   20   21 1   
    42   20   50 1   
    43   20   51 1   
    44   21   22 1   
    45   21   29 1   
    46   21   52 1   
    47   22   23 1   
    48   22   53 1   
    49   22   54 1   
    50   23   24 1   
    51   23   55 1   
    52   23   56 1   
    53   24   25 1   
    54   24   27 2   
    55   25   26 1   
    56   26   57 1   
    57   26   58 1   
    58   26   59 1   
    59   27   28 1   
    60   28   60 1   
    61   28   61 1   
    62   28   62 1   
    63   29   30 1   
    64   29   63 1   
    65   29   64 1   
    66   30   65 1   
    67   30   66 1   
    68   31   67 1   
    69   33   34 ar  
    70   33   68 1   
    71   34   35 ar  
    72   35   69 1   
@<TRIPOS>SUBSTRUCTURE
     1 QHF         1 TEMP              0 ****  ****    0 ROOT
