@<TRIPOS>MOLECULE
QHF
   69    71     1     0     0
SMALL
bcc


@<TRIPOS>ATOM
      1 C1         -4.0140    3.4080   -1.5570 c3        1 QHF     -0.095100
      2 F1         -6.4630    1.0580    3.6760 f         1 QHF     -0.119900
      3 N1          0.9750   -2.1820   -1.1380 n3        1 QHF     -0.820500
      4 O1         -0.4480   -2.3810   -3.1720 o         1 QHF     -0.650800
      5 S1         -0.5060   -2.1420   -1.7830 s6        1 QHF      1.451900
      6 C2         -4.0190    1.9160   -1.2760 c3        1 QHF     -0.091000
      7 N2          8.0000    2.0380    2.0140 nc        1 QHF     -0.359300
      8 O2         -1.3910   -2.9450   -1.0320 o         1 QHF     -0.650800
      9 C3         -2.6030    1.3720   -1.3660 c3        1 QHF     -0.063400
     10 N3         -2.8930   -0.6190    0.0880 n         1 QHF     -0.282300
     11 O3          7.9520    2.6820    0.8660 os        1 QHF     -0.120100
     12 C4         -2.4700   -0.1700   -1.2670 c3        1 QHF      0.137400
     13 N4         -5.9090    1.0880    0.0780 nb        1 QHF     -0.680500
     14 O4         -3.6060   -1.7310    0.1220 oh        1 QHF     -0.402100
     15 C5         -3.3280   -0.8180   -2.3630 c3        1 QHF     -0.109100
     16 N5         -3.9860    2.0640    1.2040 nb        1 QHF     -0.680500
     17 O5         -1.7730   -1.2490    2.0340 o         1 QHF     -0.561100
     18 C6         -0.9810   -0.4810   -1.5780 c3        1 QHF     -0.358600
     19 C7          1.1930   -2.2440    0.2870 c3        1 QHF      0.216800
     20 C8          2.1400   -1.1640    0.8100 c3        1 QHF     -0.091900
     21 C9          3.4450   -1.1520    0.0250 c3        1 QHF     -0.064700
     22 C10         4.3390   -0.0260    0.5190 c3        1 QHF     -0.074400
     23 C11         5.7800   -0.2070    0.0730 c3        1 QHF     -0.002100
     24 C12         6.6530    0.8540    0.5880 cd        1 QHF     -0.318900
     25 C13         7.2450    0.9230    1.9330 cd        1 QHF      0.325600
     26 C14         7.0370   -0.0740    2.9980 c3        1 QHF     -0.131400
     27 C15         7.1270    1.9850   -0.0510 cc        1 QHF      0.267000
     28 C16         6.9770    2.5770   -1.3780 c3        1 QHF     -0.137400
     29 C17         3.1530   -1.0220   -1.4620 c3        1 QHF     -0.091900
     30 C18         2.1800   -2.1070   -1.9270 c3        1 QHF      0.216800
     31 C19        -1.9650   -0.4160    1.1390 c         1 QHF      0.608900
     32 C20        -4.6670    1.6720    0.0810 ca        1 QHF      0.659300
     33 C21        -6.4940    0.8840    1.2670 ca        1 QHF      0.409200
     34 C22        -5.8680    1.2600    2.4850 ca        1 QHF     -0.112700
     35 C23        -4.5870    1.8610    2.3880 ca        1 QHF      0.409200
     36 H1         -3.3560    3.9500   -0.8360 hc        1 QHF      0.044700
     37 H1A        -3.6390    3.5980   -2.5920 hc        1 QHF      0.044700
     38 H1B        -5.0490    3.8190   -1.4740 hc        1 QHF      0.044700
     39 H2         -4.6440    1.4100   -2.0680 hc        1 QHF      0.081700
     40 H3         -2.1960    1.6710   -2.3710 hc        1 QHF      0.052200
     41 H3A        -1.9570    1.8580   -0.5890 hc        1 QHF      0.052200
     42 HO4        -3.0120   -2.5150    0.1720 ho        1 QHF      0.426000
     43 H5         -3.0980   -0.3360   -3.3420 hc        1 QHF      0.062367
     44 H5A        -3.1150   -1.9130   -2.4320 hc        1 QHF      0.062367
     45 H5B        -4.4150   -0.6970   -2.1350 hc        1 QHF      0.062367
     46 H6         -0.3590    0.0490   -0.8100 h1        1 QHF      0.112200
     47 H6A        -0.7570    0.0450   -2.5490 h1        1 QHF      0.112200
     48 H7          0.1980   -2.1540    0.8170 h1        1 QHF      0.063700
     49 H7A         1.6270   -3.2550    0.5420 h1        1 QHF      0.063700
     50 H8          1.6530   -0.1570    0.7440 hc        1 QHF      0.050450
     51 H8A         2.3450   -1.3720    1.8920 hc        1 QHF      0.050450
     52 H9          3.9680   -2.1350    0.1980 hc        1 QHF      0.054700
     53 H10         3.9490    0.9580    0.1480 hc        1 QHF      0.048200
     54 H10A        4.3070    0.0050    1.6410 hc        1 QHF      0.048200
     55 H11         6.1580   -1.2030    0.4350 hc        1 QHF      0.051200
     56 H11A        5.8260   -0.2190   -1.0500 hc        1 QHF      0.051200
     57 H14         5.9680   -0.0480    3.3290 hc        1 QHF      0.057700
     58 H14A        7.2610   -1.0960    2.6010 hc        1 QHF      0.057700
     59 H14B        7.6900    0.1180    3.8850 hc        1 QHF      0.057700
     60 H16         7.9380    3.0460   -1.7100 hc        1 QHF      0.064700
     61 H16A        6.6790    1.7900   -2.1140 hc        1 QHF      0.064700
     62 H16B        6.1870    3.3710   -1.3570 hc        1 QHF      0.064700
     63 H17         2.7310   -0.0060   -1.6780 hc        1 QHF      0.050450
     64 H17A        4.1010   -1.1300   -2.0510 hc        1 QHF      0.050450
     65 H18         2.7060   -3.1050   -1.8730 h1        1 QHF      0.063700
     66 H18A        1.9020   -1.9220   -3.0060 h1        1 QHF      0.063700
     67 H19        -1.5030    0.5970    1.1260 h5        1 QHF      0.051200
     68 H21        -7.4880    0.4030    1.2620 h4        1 QHF      0.041100
     69 H23        -4.0380    2.1790    3.2920 h4        1 QHF      0.041100
@<TRIPOS>BOND
     1    1    6 1   
     2    1   36 1   
     3    1   37 1   
     4    1   38 1   
     5    2   34 1   
     6    3    5 1   
     7    3   19 1   
     8    3   30 1   
     9    4    5 2   
    10    5    8 2   
    11    5   18 1   
    12    6    9 1   
    13    6   32 1   
    14    6   39 1   
    15    7   11 1   
    16    7   25 2   
    17    9   12 1   
    18    9   40 1   
    19    9   41 1   
    20   10   12 1   
    21   10   14 1   
    22   10   31 1   
    23   11   27 1   
    24   12   15 1   
    25   12   18 1   
    26   13   32 ar  
    27   13   33 ar  
    28   14   42 1   
    29   15   43 1   
    30   15   44 1   
    31   15   45 1   
    32   16   32 ar  
    33   16   35 ar  
    34   17   31 2   
    35   18   46 1   
    36   18   47 1   
    37   19   20 1   
    38   19   48 1   
    39   19   49 1   
    40   20   21 1   
    41   20   50 1   
    42   20   51 1   
    43   21   22 1   
    44   21   29 1   
    45   21   52 1   
    46   22   23 1   
    47   22   53 1   
    48   22   54 1   
    49   23   24 1   
    50   23   55 1   
    51   23   56 1   
    52   24   25 1   
    53   24   27 2   
    54   25   26 1   
    55   26   57 1   
    56   26   58 1   
    57   26   59 1   
    58   27   28 1   
    59   28   60 1   
    60   28   61 1   
    61   28   62 1   
    62   29   30 1   
    63   29   63 1   
    64   29   64 1   
    65   30   65 1   
    66   30   66 1   
    67   31   67 1   
    68   33   34 ar  
    69   33   68 1   
    70   34   35 ar  
    71   35   69 1   
@<TRIPOS>SUBSTRUCTURE
     1 QHF         1 TEMP              0 ****  ****    0 ROOT
