@<TRIPOS>MOLECULE
QI1
   44    45     1     0     0
SMALL
bcc


@<TRIPOS>ATOM
      1 O1          5.3160    3.2210   -1.9030 oh        1 QI1     -0.438100
      2 N1          4.8950    2.1380   -1.2440 n         1 QI1     -0.353400
      3 C1          4.7370    2.3160    0.1660 c         1 QI1      0.590100
      4 O2          5.3830    3.1940    0.7590 o         1 QI1     -0.559100
      5 C2          3.8940    1.3000    0.9000 c3        1 QI1     -0.161400
      6 C3          2.4300    1.4230    0.5320 c3        1 QI1     -0.081400
      7 C4          1.6000    0.5260    1.4520 c3        1 QI1      0.168800
      8 N2          0.1950    0.4500    1.0700 n3        1 QI1     -0.736600
      9 C5         -0.4450   -0.7790    1.5290 c3        1 QI1      0.211100
     10 C6          0.0640   -2.0130    0.8440 ca        1 QI1     -0.088300
     11 C7         -0.0070   -2.1260   -0.5490 ca        1 QI1     -0.110750
     12 C8          0.4240   -3.2880   -1.1860 ca        1 QI1     -0.126750
     13 C9         -0.5510    1.6420    1.4590 c3        1 QI1      0.211100
     14 C10         0.5710   -3.0760    1.5970 ca        1 QI1     -0.110750
     15 C11         1.0010   -4.2450    0.9700 ca        1 QI1     -0.126750
     16 C12         0.9270   -4.3460   -0.4220 ca        1 QI1      0.018400
     17 CL1         1.4520   -5.7680   -1.1930 cl        1 QI1     -0.092900
     18 C13        -1.9090    1.7540    0.8310 ca        1 QI1     -0.088300
     19 C14        -3.0040    2.1260    1.6190 ca        1 QI1     -0.110750
     20 C15        -4.2630    2.2930    1.0470 ca        1 QI1     -0.126750
     21 C16        -2.0880    1.5460   -0.5410 ca        1 QI1     -0.110750
     22 C17        -3.3440    1.7060   -1.1220 ca        1 QI1     -0.126750
     23 C18        -4.4300    2.0810   -0.3250 ca        1 QI1      0.018400
     24 CL2        -5.9650    2.2800   -1.0280 cl        1 QI1     -0.092900
     25 H1          4.2680    0.2670    0.6700 hc        1 QI1      0.079200
     26 H2          4.0310    1.4750    2.0010 hc        1 QI1      0.079200
     27 H3          2.1050    2.4910    0.6330 hc        1 QI1      0.053200
     28 H4          2.2700    1.1190   -0.5360 hc        1 QI1      0.053200
     29 H5          2.0300   -0.5160    1.4050 h1        1 QI1      0.040700
     30 H6          1.7210    0.8930    2.5140 h1        1 QI1      0.040700
     31 H7         -0.3360   -0.9040    2.6480 h1        1 QI1      0.045950
     32 H8         -1.5490   -0.6910    1.3040 h1        1 QI1      0.045950
     33 H9         -0.4040   -1.2880   -1.1430 ha        1 QI1      0.142000
     34 H10         0.3650   -3.3710   -2.2820 ha        1 QI1      0.148000
     35 H11        -0.6590    1.7060    2.5840 h1        1 QI1      0.045950
     36 H12         0.0490    2.5400    1.1290 h1        1 QI1      0.045950
     37 H13         0.6300   -2.9980    2.6930 ha        1 QI1      0.142000
     38 H14         1.3950   -5.0790    1.5690 ha        1 QI1      0.148000
     39 H15        -2.8750    2.2930    2.7000 ha        1 QI1      0.142000
     40 H16        -5.1190    2.5880    1.6730 ha        1 QI1      0.148000
     41 H17        -1.2310    1.2500   -1.1660 ha        1 QI1      0.142000
     42 H18        -3.4780    1.5410   -2.2010 ha        1 QI1      0.148000
     43 H19         6.2560    3.3330   -1.6580 ho        1 QI1      0.435000
     44 H20         4.0440    1.8180   -1.6940 hn        1 QI1      0.298500
@<TRIPOS>BOND
     1    1    2 1   
     2    1   43 1   
     3    2    3 1   
     4    2   44 1   
     5    3    4 2   
     6    3    5 1   
     7    5    6 1   
     8    5   25 1   
     9    5   26 1   
    10    6    7 1   
    11    6   27 1   
    12    6   28 1   
    13    7    8 1   
    14    7   29 1   
    15    7   30 1   
    16    8    9 1   
    17    8   13 1   
    18    9   10 1   
    19    9   31 1   
    20    9   32 1   
    21   10   11 ar  
    22   10   14 ar  
    23   11   12 ar  
    24   11   33 1   
    25   12   16 ar  
    26   12   34 1   
    27   13   18 1   
    28   13   35 1   
    29   13   36 1   
    30   14   15 ar  
    31   14   37 1   
    32   15   16 ar  
    33   15   38 1   
    34   16   17 1   
    35   18   19 ar  
    36   18   21 ar  
    37   19   20 ar  
    38   19   39 1   
    39   20   23 ar  
    40   20   40 1   
    41   21   22 ar  
    42   21   41 1   
    43   22   23 ar  
    44   22   42 1   
    45   23   24 1   
@<TRIPOS>SUBSTRUCTURE
     1 QI1         1 TEMP              0 ****  ****    0 ROOT
