@<TRIPOS>MOLECULE
QI1
   46    47     1     0     0
SMALL
bcc


@<TRIPOS>ATOM
      1 O1          2.0100    0.4890   -0.9350 oh        1 QI1     -0.369300
      2 N1          1.2630   -0.3090   -0.1420 n4        1 QI1     -0.470300
      3 C1          1.9290   -0.3490    1.2670 c         1 QI1      0.582100
      4 O2          1.1330   -0.5650    2.1560 o         1 QI1     -0.367100
      5 C2          3.4060   -0.1160    1.3000 c3        1 QI1     -0.134400
      6 C3          3.9100   -0.1830    2.7330 c3        1 QI1     -0.110400
      7 C4          5.4090    0.1060    2.7560 c3        1 QI1      0.102800
      8 N2          6.0160    0.0350    4.1190 n4        1 QI1     -0.695400
      9 C5          7.5010   -0.2420    4.0270 c3        1 QI1      0.179600
     10 C6          7.7860   -1.6470    3.6310 ca        1 QI1     -0.201800
     11 C7          7.6410   -2.6790    4.5680 ca        1 QI1     -0.095750
     12 C8          7.9700   -3.9870    4.2260 ca        1 QI1     -0.117000
     13 C9          5.7620    1.3000    4.9080 c3        1 QI1      0.179600
     14 C10         8.2740   -1.9330    2.3500 ca        1 QI1     -0.095750
     15 C11         8.6110   -3.2390    2.0050 ca        1 QI1     -0.117000
     16 C12         8.4550   -4.2710    2.9410 ca        1 QI1      0.058400
     17 CL1         8.8610   -5.8520    2.5250 cl        1 QI1     -0.006900
     18 C13         5.9670    1.0920    6.3670 ca        1 QI1     -0.201800
     19 C14         7.1200    1.5810    6.9930 ca        1 QI1     -0.095750
     20 C15         7.2840    1.4390    8.3680 ca        1 QI1     -0.117000
     21 C16         4.9760    0.4580    7.1290 ca        1 QI1     -0.095750
     22 C17         5.1360    0.3080    8.5020 ca        1 QI1     -0.117000
     23 C18         6.2930    0.7990    9.1270 ca        1 QI1      0.058400
     24 CL2         6.4880    0.6230   10.7900 cl        1 QI1     -0.006900
     25 H1          3.6220    0.8940    0.8460 hc        1 QI1      0.127200
     26 H2          3.9190   -0.8870    0.6600 hc        1 QI1      0.127200
     27 H3          3.3510    0.5630    3.3620 hc        1 QI1      0.090200
     28 H4          3.7000   -1.2020    3.1580 hc        1 QI1      0.090200
     29 H5          5.6120    1.1350    2.3410 hx        1 QI1      0.109200
     30 H6          5.9440   -0.6520    2.1080 hx        1 QI1      0.109200
     31 H7          7.9420    0.4910    3.2930 hx        1 QI1      0.106950
     32 H8          7.9290   -0.0310    5.0540 hx        1 QI1      0.106950
     33 H9          7.2930   -2.4590    5.5900 ha        1 QI1      0.140250
     34 H10         7.8660   -4.7960    4.9710 ha        1 QI1      0.177500
     35 H11         4.6970    1.6120    4.7090 hx        1 QI1      0.106950
     36 H12         6.4550    2.0950    4.5090 hx        1 QI1      0.106950
     37 H13         8.4260   -1.1240    1.6190 ha        1 QI1      0.140250
     38 H14         9.0160   -3.4570    1.0020 ha        1 QI1      0.177500
     39 H15         7.8970    2.0990    6.4080 ha        1 QI1      0.140250
     40 H16         8.1890    1.8350    8.8600 ha        1 QI1      0.177500
     41 H17         4.0550    0.0920    6.6500 ha        1 QI1      0.140250
     42 H18         4.3510   -0.1850    9.1000 ha        1 QI1      0.177500
     43 H19         1.5420    0.6290   -1.7940 ho        1 QI1      0.494000
     44 H20         0.2910    0.0480   -0.0430 hn        1 QI1      0.479800
     45 H121        1.2280   -1.2730   -0.5240 hn        1 QI1      0.479800
     46 H21         5.5910   -0.7510    4.6320 hn        1 QI1      0.449800
@<TRIPOS>BOND
     1    1    2 1   
     2    1   43 1   
     3    2    3 1   
     4    2   44 1   
     5    2   45 1   
     6    3    4 2   
     7    3    5 1   
     8    5    6 1   
     9    5   25 1   
    10    5   26 1   
    11    6    7 1   
    12    6   27 1   
    13    6   28 1   
    14    7    8 1   
    15    7   29 1   
    16    7   30 1   
    17    8    9 1   
    18    8   13 1   
    19    8   46 1   
    20    9   10 1   
    21    9   31 1   
    22    9   32 1   
    23   10   11 ar  
    24   10   14 ar  
    25   11   12 ar  
    26   11   33 1   
    27   12   16 ar  
    28   12   34 1   
    29   13   18 1   
    30   13   35 1   
    31   13   36 1   
    32   14   15 ar  
    33   14   37 1   
    34   15   16 ar  
    35   15   38 1   
    36   16   17 1   
    37   18   19 ar  
    38   18   21 ar  
    39   19   20 ar  
    40   19   39 1   
    41   20   23 ar  
    42   20   40 1   
    43   21   22 ar  
    44   21   41 1   
    45   22   23 ar  
    46   22   42 1   
    47   23   24 1   
@<TRIPOS>SUBSTRUCTURE
     1 QI1         1 TEMP              0 ****  ****    0 ROOT
