@<TRIPOS>MOLECULE
QI1
   46    47     1     0     0
SMALL
bcc


@<TRIPOS>ATOM
      1 O1          1.9950    0.4360   -0.9340 oh        1 QI1     -0.369300
      2 N1          1.2480   -0.3480   -0.1270 n4        1 QI1     -0.470300
      3 C1          1.9190   -0.3710    1.2800 c         1 QI1      0.582100
      4 O2          1.1250   -0.5710    2.1750 o         1 QI1     -0.367100
      5 C2          3.3970   -0.1430    1.3050 c3        1 QI1     -0.134400
      6 C3          3.9060   -0.1920    2.7370 c3        1 QI1     -0.110400
      7 C4          5.4060    0.0930    2.7500 c3        1 QI1      0.102800
      8 N2          6.0180    0.0370    4.1110 n4        1 QI1     -0.695400
      9 C5          7.5020   -0.2440    4.0170 c3        1 QI1      0.179600
     10 C6          7.7830   -1.6550    3.6370 ca        1 QI1     -0.201800
     11 C7          7.6390   -2.6750    4.5860 ca        1 QI1     -0.095750
     12 C8          7.9640   -3.9880    4.2590 ca        1 QI1     -0.117000
     13 C9          5.7690    1.3110    4.8850 c3        1 QI1      0.179600
     14 C10         8.2650   -1.9570    2.3580 ca        1 QI1     -0.095750
     15 C11         8.5980   -3.2670    2.0260 ca        1 QI1     -0.117000
     16 C12         8.4440   -4.2870    2.9760 ca        1 QI1      0.058400
     17 CL1         8.8460   -5.8750    2.5770 cl        1 QI1     -0.006900
     18 C13         5.9790    1.1210    6.3460 ca        1 QI1     -0.201800
     19 C14         7.1360    1.6160    6.9620 ca        1 QI1     -0.095750
     20 C15         7.3040    1.4890    8.3380 ca        1 QI1     -0.117000
     21 C16         4.9900    0.4980    7.1190 ca        1 QI1     -0.095750
     22 C17         5.1550    0.3650    8.4940 ca        1 QI1     -0.117000
     23 C18         6.3150    0.8610    9.1080 ca        1 QI1      0.058400
     24 CL2         6.5160    0.7040   10.7730 cl        1 QI1     -0.006900
     25 H1          3.9050   -0.9250    0.6730 hc        1 QI1      0.127200
     26 H2          3.6140    0.8600    0.8350 hc        1 QI1      0.127200
     27 H3          3.3510    0.5630    3.3570 hc        1 QI1      0.090200
     28 H4          3.6950   -1.2060    3.1750 hc        1 QI1      0.090200
     29 H5          5.6100    1.1160    2.3210 hx        1 QI1      0.109200
     30 H6          5.9370   -0.6740    2.1090 hx        1 QI1      0.109200
     31 H7          7.9340   -0.0220    5.0400 hx        1 QI1      0.106950
     32 H8          7.9420    0.4790    3.2730 hx        1 QI1      0.106950
     33 H9          7.2960   -2.4420    5.6070 ha        1 QI1      0.140250
     34 H10         7.8620   -4.7870    5.0130 ha        1 QI1      0.177500
     35 H11         6.4630    2.1010    4.4750 hx        1 QI1      0.106950
     36 H12         4.7040    1.6230    4.6870 hx        1 QI1      0.106950
     37 H13         8.4160   -1.1570    1.6160 ha        1 QI1      0.140250
     38 H14         9.0000   -3.4980    1.0250 ha        1 QI1      0.177500
     39 H15         7.9110    2.1250    6.3680 ha        1 QI1      0.140250
     40 H16         8.2120    1.8900    8.8220 ha        1 QI1      0.177500
     41 H17         4.0670    0.1290    6.6490 ha        1 QI1      0.140250
     42 H18         4.3710   -0.1200    9.1010 ha        1 QI1      0.177500
     43 H19         1.5250    0.5650   -1.7930 ho        1 QI1      0.494000
     44 H20         0.2780    0.0140   -0.0300 hn        1 QI1      0.479800
     45 H121        1.2080   -1.3180   -0.4960 hn        1 QI1      0.479800
     46 H21         5.5930   -0.7420    4.6360 hn        1 QI1      0.449800
@<TRIPOS>BOND
     1    1    2 1   
     2    1   43 1   
     3    2    3 1   
     4    2   44 1   
     5    2   45 1   
     6    3    4 2   
     7    3    5 1   
     8    5    6 1   
     9    5   25 1   
    10    5   26 1   
    11    6    7 1   
    12    6   27 1   
    13    6   28 1   
    14    7    8 1   
    15    7   29 1   
    16    7   30 1   
    17    8    9 1   
    18    8   13 1   
    19    8   46 1   
    20    9   10 1   
    21    9   31 1   
    22    9   32 1   
    23   10   11 ar  
    24   10   14 ar  
    25   11   12 ar  
    26   11   33 1   
    27   12   16 ar  
    28   12   34 1   
    29   13   18 1   
    30   13   35 1   
    31   13   36 1   
    32   14   15 ar  
    33   14   37 1   
    34   15   16 ar  
    35   15   38 1   
    36   16   17 1   
    37   18   19 ar  
    38   18   21 ar  
    39   19   20 ar  
    40   19   39 1   
    41   20   23 ar  
    42   20   40 1   
    43   21   22 ar  
    44   21   41 1   
    45   22   23 ar  
    46   22   42 1   
    47   23   24 1   
@<TRIPOS>SUBSTRUCTURE
     1 QI1         1 TEMP              0 ****  ****    0 ROOT
