@<TRIPOS>MOLECULE
QI1
   46    47     1     0     0
SMALL
bcc


@<TRIPOS>ATOM
      1 O1          2.0090    0.4610   -0.9400 oh        1 QI1     -0.369300
      2 N1          1.2550   -0.3180   -0.1340 ny        1 QI1     -0.470300
      3 C1          1.9240   -0.3450    1.2740 c         1 QI1      0.582100
      4 O2          1.1270   -0.5390    2.1680 o         1 QI1     -0.367100
      5 C2          3.4040   -0.1290    1.3010 c3        1 QI1     -0.134400
      6 C3          3.9100   -0.1800    2.7330 c3        1 QI1     -0.110400
      7 C4          5.4130    0.0930    2.7490 c3        1 QI1      0.102800
      8 N2          6.0220    0.0340    4.1110 nx        1 QI1     -0.695400
      9 C5          7.5040   -0.2590    4.0200 c3        1 QI1      0.179600
     10 C6          7.7730   -1.6730    3.6420 ca        1 QI1     -0.201800
     11 C7          7.6200   -2.6910    4.5930 ca        1 QI1     -0.095750
     12 C8          7.9350   -4.0070    4.2680 ca        1 QI1     -0.117000
     13 C9          5.7830    1.3110    4.8830 c3        1 QI1      0.179600
     14 C10         8.2550   -1.9810    2.3640 ca        1 QI1     -0.095750
     15 C11         8.5780   -3.2940    2.0350 ca        1 QI1     -0.117000
     16 C12         8.4140   -4.3120    2.9860 ca        1 QI1      0.058400
     17 Cl1         8.8030   -5.9030    2.5900 cl        1 QI1     -0.006900
     18 C13         5.9890    1.1220    6.3440 ca        1 QI1     -0.201800
     19 C14         7.1480    1.6080    6.9610 ca        1 QI1     -0.095750
     20 C15         7.3140    1.4820    8.3380 ca        1 QI1     -0.117000
     21 C16         4.9940    0.5080    7.1170 ca        1 QI1     -0.095750
     22 C17         5.1550    0.3760    8.4920 ca        1 QI1     -0.117000
     23 C18         6.3190    0.8630    9.1070 ca        1 QI1      0.058400
     24 Cl2         6.5150    0.7080   10.7730 cl        1 QI1     -0.006900
     25 H1          3.9060   -0.9150    0.6700 hc        1 QI1      0.127200
     26 H2          3.6300    0.8730    0.8310 hc        1 QI1      0.127200
     27 H3          3.3610    0.5800    3.3520 hc        1 QI1      0.090200
     28 H4          3.6910   -1.1920    3.1730 hc        1 QI1      0.090200
     29 H5          5.6250    1.1130    2.3180 hx        1 QI1      0.109200
     30 H6          5.9380   -0.6800    2.1100 hx        1 QI1      0.109200
     31 H7          7.9360   -0.0400    5.0430 hx        1 QI1      0.106950
     32 H8          7.9510    0.4580    3.2750 hx        1 QI1      0.106950
     33 H9          7.2770   -2.4530    5.6120 ha        1 QI1      0.140250
     34 H10         7.8250   -4.8040    5.0230 ha        1 QI1      0.177500
     35 H11         6.4830    2.0940    4.4720 hx        1 QI1      0.106950
     36 H12         4.7200    1.6320    4.6820 hx        1 QI1      0.106950
     37 H13         8.4150   -1.1830    1.6210 ha        1 QI1      0.140250
     38 H14         8.9790   -3.5310    1.0350 ha        1 QI1      0.177500
     39 H15         7.9290    2.1090    6.3670 ha        1 QI1      0.140250
     40 H16         8.2250    1.8760    8.8220 ha        1 QI1      0.177500
     41 H17         4.0680    0.1460    6.6450 ha        1 QI1      0.140250
     42 H18         4.3670   -0.1010    9.0980 ha        1 QI1      0.177500
     43 H19         1.5400    0.5940   -1.8000 ho        1 QI1      0.494000
     44 H20         0.2870    0.0510   -0.0380 hn        1 QI1      0.479800
     45 H121        1.2090   -1.2870   -0.5030 hn        1 QI1      0.479800
     46 H21         5.5900   -0.7410    4.6360 hn        1 QI1      0.449800
@<TRIPOS>BOND
     1    1    2 1   
     2    1   43 1   
     3    2    3 1   
     4    2   44 1   
     5    2   45 1   
     6    3    4 2   
     7    3    5 1   
     8    5    6 1   
     9    5   25 1   
    10    5   26 1   
    11    6    7 1   
    12    6   27 1   
    13    6   28 1   
    14    7    8 1   
    15    7   29 1   
    16    7   30 1   
    17    8    9 1   
    18    8   13 1   
    19    8   46 1   
    20    9   10 1   
    21    9   31 1   
    22    9   32 1   
    23   10   11 ar  
    24   10   14 ar  
    25   11   12 ar  
    26   11   33 1   
    27   12   16 ar  
    28   12   34 1   
    29   13   18 1   
    30   13   35 1   
    31   13   36 1   
    32   14   15 ar  
    33   14   37 1   
    34   15   16 ar  
    35   15   38 1   
    36   16   17 1   
    37   18   19 ar  
    38   18   21 ar  
    39   19   20 ar  
    40   19   39 1   
    41   20   23 ar  
    42   20   40 1   
    43   21   22 ar  
    44   21   41 1   
    45   22   23 ar  
    46   22   42 1   
    47   23   24 1   
@<TRIPOS>SUBSTRUCTURE
     1 QI1         1 TEMP              0 ****  ****    0 ROOT
