@<TRIPOS>MOLECULE
QI2
   63    64     1     0     0
SMALL
bcc


@<TRIPOS>ATOM
      1 OAA        -1.4290   -4.1050   -0.9190 oh        1 QI2     -0.440100
      2 NAB        -1.8370   -3.2100   -0.0150 n         1 QI2     -0.355400
      3 CAC        -2.0940   -1.9020   -0.5390 c         1 QI2      0.590100
      4 OAD        -2.4030   -1.7690   -1.7340 o         1 QI2     -0.564100
      5 CAE        -2.1050   -0.7510    0.4570 c3        1 QI2     -0.136700
      6 CAF        -3.2920    0.1620    0.1850 c3        1 QI2     -0.068400
      7 CAG        -4.6180   -0.5120    0.5450 c3        1 QI2      0.183400
      8 CAH        -5.7720    0.2970    0.0280 ca        1 QI2     -0.134300
      9 CAI        -6.1650    0.1470   -1.3080 ca        1 QI2     -0.092500
     10 CAJ        -7.2200    0.8910   -1.8240 ca        1 QI2     -0.168000
     11 CAK        -0.8070    0.0360    0.3370 c3        1 QI2     -0.080400
     12 OAL        -4.6340   -0.6250    1.9720 os        1 QI2     -0.425600
     13 CAM        -6.4480    1.2060    0.8480 ca        1 QI2     -0.092500
     14 CAN        -7.5080    1.9580    0.3520 ca        1 QI2     -0.168000
     15 CAO        -7.8970    1.8010   -0.9910 ca        1 QI2      0.127900
     16 FAP        -8.9280    2.5280   -1.4840 f         1 QI2     -0.140900
     17 CAQ         0.3980   -0.8180    0.7380 c3        1 QI2      0.168800
     18 CAR        -5.6160   -1.5270    2.4540 c3        1 QI2      0.111700
     19 CAS         1.7730    0.6910    2.0390 c3        1 QI2      0.155100
     20 NAT         1.6340   -0.0490    0.8060 n3        1 QI2     -0.737600
     21 CAU         2.8000   -0.8590    0.4760 c3        1 QI2      0.173800
     22 CAV         4.1160   -0.0830    0.4620 c3        1 QI2     -0.079400
     23 CAW         5.2130   -0.9510   -0.1280 c3        1 QI2     -0.036100
     24 CAX         6.5330   -0.2640   -0.0850 ca        1 QI2     -0.088300
     25 CAY         7.0760    0.3010   -1.2420 ca        1 QI2     -0.105000
     26 CAZ         8.3170    0.9430   -1.2220 ca        1 QI2     -0.104300
     27 CBA         8.8760    1.5480   -2.4510 c3        1 QI2     -0.053800
     28 CBB         7.2460   -0.1870    1.1180 ca        1 QI2     -0.110000
     29 CBC         8.4820    0.4450    1.1680 ca        1 QI2     -0.160000
     30 CBD         9.0230    1.0120   -0.0010 ca        1 QI2      0.117900
     31 FBE        10.2310    1.6240    0.0560 f         1 QI2     -0.141900
     32 HAE        -2.2060   -1.1450    1.5090 hc        1 QI2      0.084700
     33 HAF        -3.1830    1.0980    0.7920 hc        1 QI2      0.073200
     34 HAFA       -3.3180    0.4380   -0.9020 hc        1 QI2      0.073200
     35 HAG        -4.6530   -1.5450    0.0910 h1        1 QI2      0.053700
     36 HAI        -5.6290   -0.5620   -1.9590 ha        1 QI2      0.149000
     37 HAJ        -7.5300    0.7770   -2.8720 ha        1 QI2      0.149500
     38 HAK        -0.6810    0.3990   -0.7170 hc        1 QI2      0.066200
     39 HAM        -6.1320    1.3210    1.8980 ha        1 QI2      0.149000
     40 HAN        -8.0410    2.6720    0.9950 ha        1 QI2      0.149500
     41 HAQ         0.1730   -1.3240    1.7230 h1        1 QI2      0.028200
     42 HAR        -6.6390   -1.1940    2.1500 h1        1 QI2      0.037700
     43 HARA       -5.4210   -2.5610    2.0740 h1        1 QI2      0.037700
     44 HARB       -5.5030   -1.4900    3.5670 h1        1 QI2      0.037700
     45 HAS         2.0300    0.0390    2.9200 h1        1 QI2      0.033033
     46 HASA        2.5850    1.4540    1.9090 h1        1 QI2      0.033033
     47 HASB        0.8150    1.2280    2.2640 h1        1 QI2      0.033033
     48 HAU         2.9110   -1.7310    1.1870 h1        1 QI2      0.030700
     49 HAV         4.0100    0.8540   -0.1430 hc        1 QI2      0.053700
     50 HAW         5.2770   -1.9150    0.4470 hc        1 QI2      0.049700
     51 HAWA        4.9520   -1.2140   -1.1880 hc        1 QI2      0.049700
     52 HAY         6.5200    0.2410   -2.1910 ha        1 QI2      0.138000
     53 HBA         8.6900    2.6520   -2.4510 hc        1 QI2      0.050367
     54 HBAA        9.9820    1.3850   -2.5000 hc        1 QI2      0.050367
     55 HBAB        8.4080    1.1100   -3.3660 hc        1 QI2      0.050367
     56 HBB         6.8230   -0.6310    2.0310 ha        1 QI2      0.136000
     57 HBC         9.0460    0.5060    2.1100 ha        1 QI2      0.147000
     58 H27        -2.2120   -4.3050   -1.4700 ho        1 QI2      0.435000
     59 H28        -1.1530   -3.1990    0.7340 hn        1 QI2      0.296500
     60 H29        -0.8810    0.9410    0.9970 hc        1 QI2      0.066200
     61 H30         0.5180   -1.6300   -0.0360 h1        1 QI2      0.028200
     62 H31         2.6270   -1.2820   -0.5560 h1        1 QI2      0.030700
     63 H32         4.3990    0.2160    1.5050 hc        1 QI2      0.053700
@<TRIPOS>BOND
     1    1    2 1   
     2    1   58 1   
     3    2    3 1   
     4    2   59 1   
     5    3    4 2   
     6    3    5 1   
     7    5    6 1   
     8    5   11 1   
     9    5   32 1   
    10    6    7 1   
    11    6   33 1   
    12    6   34 1   
    13    7    8 1   
    14    7   12 1   
    15    7   35 1   
    16    8    9 ar  
    17    8   13 ar  
    18    9   10 ar  
    19    9   36 1   
    20   10   15 ar  
    21   10   37 1   
    22   11   17 1   
    23   11   38 1   
    24   11   60 1   
    25   12   18 1   
    26   13   14 ar  
    27   13   39 1   
    28   14   15 ar  
    29   14   40 1   
    30   15   16 1   
    31   17   20 1   
    32   17   41 1   
    33   17   61 1   
    34   18   42 1   
    35   18   43 1   
    36   18   44 1   
    37   19   20 1   
    38   19   45 1   
    39   19   46 1   
    40   19   47 1   
    41   20   21 1   
    42   21   22 1   
    43   21   48 1   
    44   21   62 1   
    45   22   23 1   
    46   22   49 1   
    47   22   63 1   
    48   23   24 1   
    49   23   50 1   
    50   23   51 1   
    51   24   25 ar  
    52   24   28 ar  
    53   25   26 ar  
    54   25   52 1   
    55   26   27 1   
    56   26   30 ar  
    57   27   53 1   
    58   27   54 1   
    59   27   55 1   
    60   28   29 ar  
    61   28   56 1   
    62   29   30 ar  
    63   29   57 1   
    64   30   31 1   
@<TRIPOS>SUBSTRUCTURE
     1 QI2         1 TEMP              0 ****  ****    0 ROOT
