@<TRIPOS>MOLECULE
QI2
   65    66     1     0     0
SMALL
bcc


@<TRIPOS>ATOM
      1 OAA         0.1290   -1.0570   -1.4170 oh        1 QI2     -0.342300
      2 NAB         0.7470   -1.2030   -0.2270 ny        1 QI2     -0.448300
      3 CAC         1.3730    0.0830    0.2970 c         1 QI2      0.535100
      4 OAD         0.9170    1.1110   -0.1810 o         1 QI2     -0.423100
      5 CAE         2.4760   -0.0760    1.3170 c3        1 QI2     -0.117700
      6 CAF         2.0040   -0.8960    2.5200 c3        1 QI2     -0.098400
      7 CAG         2.4900   -2.3510    2.5220 c3        1 QI2      0.194400
      8 CAH         3.9820   -2.4510    2.4430 ca        1 QI2     -0.188300
      9 CAI         4.7330   -2.2770    3.6140 ca        1 QI2     -0.101500
     10 CAJ         6.1190   -2.3780    3.5890 ca        1 QI2     -0.161000
     11 CAK         2.9680    1.2990    1.7660 c3        1 QI2     -0.107400
     12 OAL         1.8380   -3.0010    1.4260 os        1 QI2     -0.528600
     13 CAM         4.6370   -2.7530    1.2440 ca        1 QI2     -0.101500
     14 CAN         6.0220   -2.8610    1.1960 ca        1 QI2     -0.161000
     15 CAO         6.7730   -2.6680    2.3740 ca        1 QI2      0.166900
     16 FAP         8.1170   -2.7620    2.3370 f         1 QI2     -0.103900
     17 CAQ         3.7760    1.9980    0.6740 c3        1 QI2      0.096800
     18 CAR         1.8290   -4.4280    1.5290 c3        1 QI2      0.115700
     19 CAS         5.3030    3.3290    2.0810 c3        1 QI2      0.078100
     20 NAT         4.2340    3.3730    1.0500 nx        1 QI2     -0.681400
     21 CAU         4.7000    4.1220   -0.1750 c3        1 QI2      0.107800
     22 CAV         4.8330    5.6220    0.0560 c3        1 QI2     -0.110400
     23 CAW         5.1610    6.3030   -1.2670 c3        1 QI2     -0.017100
     24 CAX         5.3550    7.7640   -1.0600 ca        1 QI2     -0.137300
     25 CAY         4.3160    8.6580   -1.3310 ca        1 QI2     -0.100000
     26 CAZ         4.4840   10.0340   -1.1610 ca        1 QI2     -0.094300
     27 CBA         3.3890   10.9810   -1.4660 c3        1 QI2     -0.063800
     28 CBB         6.5900    8.2500   -0.6170 ca        1 QI2     -0.105000
     29 CBC         6.7860    9.6140   -0.4360 ca        1 QI2     -0.153000
     30 CBD         5.7350   10.5110   -0.7030 ca        1 QI2      0.151900
     31 FBE         5.9300   11.8350   -0.5200 f         1 QI2     -0.115900
     32 HAE         3.3300   -0.6330    0.8180 hc        1 QI2      0.133700
     33 HAF         2.3990   -0.4310    3.4650 hc        1 QI2      0.085200
     34 HAFA        0.8860   -0.8820    2.5950 hc        1 QI2      0.085200
     35 HAG         2.1360   -2.8280    3.4860 h1        1 QI2      0.095700
     36 HAI         4.2240   -2.0790    4.5710 ha        1 QI2      0.139500
     37 HAJ         6.7110   -2.2590    4.5110 ha        1 QI2      0.175500
     38 HAK         2.0890    1.9290    2.0710 hc        1 QI2      0.095700
     39 HAM         4.0480   -2.9470    0.3340 ha        1 QI2      0.139500
     40 HAN         6.5390   -3.1210    0.2590 ha        1 QI2      0.175500
     41 HAQ         4.6920    1.3900    0.4190 hx        1 QI2      0.107200
     42 HAR         1.2420   -4.7400    2.4280 h1        1 QI2      0.066367
     43 HARA        1.3290   -4.7670    0.5870 h1        1 QI2      0.066367
     44 HARB        2.8760   -4.8140    1.5880 h1        1 QI2      0.066367
     45 HAS         6.1940    2.7720    1.6830 hx        1 QI2      0.110367
     46 HASA        5.6100    4.3800    2.3400 hx        1 QI2      0.110367
     47 HASB        4.9190    2.8200    3.0040 hx        1 QI2      0.110367
     48 HAU         5.6920    3.6860   -0.4860 hx        1 QI2      0.104200
     49 HAV         3.8790    6.0510    0.4630 hc        1 QI2      0.074200
     50 HAW         4.3290    6.1250   -1.9990 hc        1 QI2      0.059700
     51 HAWA        6.0960    5.8540   -1.6980 hc        1 QI2      0.059700
     52 HAY         3.3480    8.2810   -1.6980 ha        1 QI2      0.133000
     53 HBA         3.6040   11.5120   -2.4290 hc        1 QI2      0.061700
     54 HBAA        2.4090   10.4550   -1.5620 hc        1 QI2      0.061700
     55 HBAB        3.3070   11.7540   -0.6600 hc        1 QI2      0.061700
     56 HBB         7.4200    7.5540   -0.4220 ha        1 QI2      0.131000
     57 HBC         7.7570   10.0050   -0.0930 ha        1 QI2      0.166000
     58 H27        -0.4720   -0.2730   -1.3810 ho        1 QI2      0.485000
     59 H28         0.0980   -1.5970    0.4870 hn        1 QI2      0.507800
     60 H29         3.6150    1.1480    2.6750 hc        1 QI2      0.095700
     61 H30         3.1360    2.0930   -0.2530 hx        1 QI2      0.107200
     62 H31         3.9480    3.9410   -0.9960 hx        1 QI2      0.104200
     63 H32         5.6530    5.8430    0.7900 hc        1 QI2      0.074200
     64 HAB2        1.4950   -1.9250   -0.3790 hn        1 QI2      0.507800
     65 HAT1        3.4320    3.8880    1.4420 hn        1 QI2      0.452800
@<TRIPOS>BOND
     1    1    2 1   
     2    1   58 1   
     3    2    3 1   
     4    2   59 1   
     5    2   64 1   
     6    3    4 2   
     7    3    5 1   
     8    5    6 1   
     9    5   11 1   
    10    5   32 1   
    11    6    7 1   
    12    6   33 1   
    13    6   34 1   
    14    7    8 1   
    15    7   12 1   
    16    7   35 1   
    17    8    9 ar  
    18    8   13 ar  
    19    9   10 ar  
    20    9   36 1   
    21   10   15 ar  
    22   10   37 1   
    23   11   17 1   
    24   11   38 1   
    25   11   60 1   
    26   12   18 1   
    27   13   14 ar  
    28   13   39 1   
    29   14   15 ar  
    30   14   40 1   
    31   15   16 1   
    32   17   20 1   
    33   17   41 1   
    34   17   61 1   
    35   18   42 1   
    36   18   43 1   
    37   18   44 1   
    38   19   20 1   
    39   19   45 1   
    40   19   46 1   
    41   19   47 1   
    42   20   21 1   
    43   20   65 1   
    44   21   22 1   
    45   21   48 1   
    46   21   62 1   
    47   22   23 1   
    48   22   49 1   
    49   22   63 1   
    50   23   24 1   
    51   23   50 1   
    52   23   51 1   
    53   24   25 ar  
    54   24   28 ar  
    55   25   26 ar  
    56   25   52 1   
    57   26   27 1   
    58   26   30 ar  
    59   27   53 1   
    60   27   54 1   
    61   27   55 1   
    62   28   29 ar  
    63   28   56 1   
    64   29   30 ar  
    65   29   57 1   
    66   30   31 1   
@<TRIPOS>SUBSTRUCTURE
     1 QI2         1 TEMP              0 ****  ****    0 ROOT
