@<TRIPOS>MOLECULE
QI2
   65    66     1     0     0
SMALL
bcc


@<TRIPOS>ATOM
      1 OAA         0.1440   -1.0530   -1.4700 oh        1 QI2     -0.342300
      2 NAB         0.7500   -1.2000   -0.2730 n4        1 QI2     -0.448300
      3 CAC         1.3720    0.0850    0.2570 c         1 QI2      0.535100
      4 OAD         0.9230    1.1130   -0.2260 o         1 QI2     -0.423100
      5 CAE         2.4630   -0.0760    1.2890 c3        1 QI2     -0.117700
      6 CAF         1.9760   -0.8940    2.4870 c3        1 QI2     -0.098400
      7 CAG         2.4600   -2.3500    2.4960 c3        1 QI2      0.194400
      8 CAH         3.9530   -2.4520    2.4370 ca        1 QI2     -0.188300
      9 CAI         4.6880   -2.2790    3.6170 ca        1 QI2     -0.101500
     10 CAJ         6.0740   -2.3820    3.6110 ca        1 QI2     -0.161000
     11 CAK         2.9540    1.2980    1.7440 c3        1 QI2     -0.107400
     12 OAL         1.8210   -2.9990    1.3920 os        1 QI2     -0.528600
     13 CAM         4.6230   -2.7540    1.2460 ca        1 QI2     -0.101500
     14 CAN         6.0090   -2.8650    1.2170 ca        1 QI2     -0.161000
     15 CAO         6.7440   -2.6720    2.4050 ca        1 QI2      0.166900
     16 FAP         8.0890   -2.7680    2.3860 f         1 QI2     -0.103900
     17 CAQ         3.7730    1.9950    0.6590 c3        1 QI2      0.096800
     18 CAR         1.8100   -4.4260    1.4940 c3        1 QI2      0.115700
     19 CAS         5.3060    3.3150    2.0710 c3        1 QI2      0.078100
     20 NAT         4.2350    3.3680    1.0420 n4        1 QI2     -0.681400
     21 CAU         4.7010    4.1240   -0.1790 c3        1 QI2      0.107800
     22 CAV         4.8480    5.6200    0.0650 c3        1 QI2     -0.110400
     23 CAW         5.1680    6.3100   -1.2560 c3        1 QI2     -0.017100
     24 CAX         5.3780    7.7670   -1.0380 ca        1 QI2     -0.138300
     25 CAY         4.3410    8.6720   -1.2830 ca        1 QI2     -0.100000
     26 CAZ         4.5230   10.0440   -1.1010 ca        1 QI2     -0.094300
     27 CBA         3.4310   11.0030   -1.3790 c3        1 QI2     -0.063800
     28 CBB         6.6240    8.2390   -0.6110 ca        1 QI2     -0.105000
     29 CBC         6.8340    9.5990   -0.4190 ca        1 QI2     -0.153000
     30 CBD         5.7850   10.5080   -0.6600 ca        1 QI2      0.151900
     31 FBE         5.9930   11.8280   -0.4670 f         1 QI2     -0.115900
     32 HAE         3.3220   -0.6350    0.8000 hc        1 QI2      0.133700
     33 HAF         0.8570   -0.8790    2.5500 hc        1 QI2      0.085200
     34 HAFA        2.3610   -0.4290    3.4370 hc        1 QI2      0.085200
     35 HAG         2.0920   -2.8260    3.4550 h1        1 QI2      0.095700
     36 HAI         4.1670   -2.0800    4.5680 ha        1 QI2      0.139500
     37 HAJ         6.6540   -2.2640    4.5410 ha        1 QI2      0.175500
     38 HAK         2.0730    1.9300    2.0390 hc        1 QI2      0.095700
     39 HAM         4.0460   -2.9470    0.3290 ha        1 QI2      0.139500
     40 HAN         6.5380   -3.1250    0.2870 ha        1 QI2      0.175500
     41 HAQ         4.6880    1.3840    0.4100 hx        1 QI2      0.107700
     42 HAR         1.3220   -4.7640    0.5460 h1        1 QI2      0.066367
     43 HARA        1.2110   -4.7370    2.3850 h1        1 QI2      0.066367
     44 HARB        2.8550   -4.8130    1.5670 h1        1 QI2      0.066367
     45 HAS         4.9250    2.7930    2.9890 hx        1 QI2      0.110367
     46 HASA        5.6100    4.3640    2.3420 hx        1 QI2      0.110367
     47 HASB        6.1980    2.7660    1.6650 hx        1 QI2      0.110367
     48 HAU         3.9420    3.9560   -0.9970 hx        1 QI2      0.104200
     49 HAV         5.6780    5.8270    0.7910 hc        1 QI2      0.074200
     50 HAW         6.0940    5.8570   -1.7020 hc        1 QI2      0.059700
     51 HAWA        4.3270    6.1460   -1.9800 hc        1 QI2      0.059700
     52 HAY         3.3640    8.3070   -1.6370 ha        1 QI2      0.133000
     53 HBA         3.6310   11.5390   -2.3420 hc        1 QI2      0.061700
     54 HBAA        2.4440   10.4860   -1.4600 hc        1 QI2      0.061700
     55 HBAB        3.3700   11.7710   -0.5660 hc        1 QI2      0.061700
     56 HBB         7.4510    7.5350   -0.4370 ha        1 QI2      0.131000
     57 HBC         7.8130    9.9790   -0.0890 ha        1 QI2      0.166000
     58 H27        -0.4550   -0.2680   -1.4400 ho        1 QI2      0.485000
     59 H28         0.0920   -1.5930    0.4340 hn        1 QI2      0.507800
     60 H29         3.5910    1.1450    2.6590 hc        1 QI2      0.095700
     61 H30         3.1420    2.0960   -0.2730 hx        1 QI2      0.107700
     62 H31         5.6860    3.6810   -0.5000 hx        1 QI2      0.104200
     63 H32         3.9030    6.0530    0.4860 hc        1 QI2      0.074200
     64 HAB2        1.4980   -1.9240   -0.4170 hn        1 QI2      0.507800
     65 HAT1        3.4350    3.8810    1.4390 hn        1 QI2      0.452800
@<TRIPOS>BOND
     1    1    2 1   
     2    1   58 1   
     3    2    3 1   
     4    2   59 1   
     5    2   64 1   
     6    3    4 2   
     7    3    5 1   
     8    5    6 1   
     9    5   11 1   
    10    5   32 1   
    11    6    7 1   
    12    6   33 1   
    13    6   34 1   
    14    7    8 1   
    15    7   12 1   
    16    7   35 1   
    17    8    9 ar  
    18    8   13 ar  
    19    9   10 ar  
    20    9   36 1   
    21   10   15 ar  
    22   10   37 1   
    23   11   17 1   
    24   11   38 1   
    25   11   60 1   
    26   12   18 1   
    27   13   14 ar  
    28   13   39 1   
    29   14   15 ar  
    30   14   40 1   
    31   15   16 1   
    32   17   20 1   
    33   17   41 1   
    34   17   61 1   
    35   18   42 1   
    36   18   43 1   
    37   18   44 1   
    38   19   20 1   
    39   19   45 1   
    40   19   46 1   
    41   19   47 1   
    42   20   21 1   
    43   20   65 1   
    44   21   22 1   
    45   21   48 1   
    46   21   62 1   
    47   22   23 1   
    48   22   49 1   
    49   22   63 1   
    50   23   24 1   
    51   23   50 1   
    52   23   51 1   
    53   24   25 ar  
    54   24   28 ar  
    55   25   26 ar  
    56   25   52 1   
    57   26   27 1   
    58   26   30 ar  
    59   27   53 1   
    60   27   54 1   
    61   27   55 1   
    62   28   29 ar  
    63   28   56 1   
    64   29   30 ar  
    65   29   57 1   
    66   30   31 1   
@<TRIPOS>SUBSTRUCTURE
     1 QI2         1 TEMP              0 ****  ****    0 ROOT
