@<TRIPOS>MOLECULE
QI2
   65    66     1     0     0
SMALL
bcc


@<TRIPOS>ATOM
      1 OAA         0.0640   -0.9630   -1.4270 oh        1 QI2     -0.342300
      2 NAB         0.6780   -1.1270   -0.2370 n4        1 QI2     -0.448300
      3 CAC         1.3300    0.1430    0.2930 c         1 QI2      0.535100
      4 OAD         0.8970    1.1830   -0.1810 o         1 QI2     -0.423100
      5 CAE         2.4280   -0.0440    1.3140 c3        1 QI2     -0.117700
      6 CAF         1.9370   -0.8590    2.5130 c3        1 QI2     -0.098400
      7 CAG         2.3920   -2.3250    2.5080 c3        1 QI2      0.194400
      8 CAH         3.8810   -2.4560    2.4290 ca        1 QI2     -0.188300
      9 CAI         4.6360   -2.3040    3.6000 ca        1 QI2     -0.101500
     10 CAJ         6.0190   -2.4350    3.5750 ca        1 QI2     -0.161000
     11 CAK         2.9480    1.3190    1.7710 c3        1 QI2     -0.107400
     12 OAL         1.7260   -2.9560    1.4100 os        1 QI2     -0.528600
     13 CAM         4.5290   -2.7670    1.2280 ca        1 QI2     -0.101500
     14 CAN         5.9120   -2.9050    1.1800 ca        1 QI2     -0.161000
     15 CAO         6.6660   -2.7330    2.3580 ca        1 QI2      0.166900
     16 FAP         8.0090   -2.8570    2.3220 f         1 QI2     -0.103900
     17 CAQ         3.7730    2.0040    0.6830 c3        1 QI2      0.096800
     18 CAR         1.6860   -4.3820    1.5070 c3        1 QI2      0.115700
     19 CAS         5.3110    3.3050    2.1080 c3        1 QI2      0.078100
     20 NAT         4.2550    3.3700    1.0630 n4        1 QI2     -0.681400
     21 CAU         4.7520    4.1090   -0.1560 c3        1 QI2      0.107800
     22 CAV         4.9020    5.6070    0.0730 c3        1 QI2     -0.110400
     23 CAW         5.2660    6.2780   -1.2460 c3        1 QI2     -0.017100
     24 CAX         5.4760    7.7370   -1.0410 ca        1 QI2     -0.137300
     25 CAY         4.4560    8.6440   -1.3410 ca        1 QI2     -0.100000
     26 CAZ         4.6400   10.0180   -1.1720 ca        1 QI2     -0.094300
     27 CBA         3.5660   10.9790   -1.5070 c3        1 QI2     -0.063800
     28 CBB         6.7070    8.2080   -0.5710 ca        1 QI2     -0.105000
     29 CBC         6.9180    9.5690   -0.3910 ca        1 QI2     -0.153000
     30 CBD         5.8860   10.4800   -0.6870 ca        1 QI2      0.151900
     31 FBE         6.0960   11.8020   -0.5050 f         1 QI2     -0.115900
     32 HAE         3.2710   -0.6160    0.8140 hc        1 QI2      0.133700
     33 HAF         0.8190   -0.8220    2.5870 hc        1 QI2      0.085200
     34 HAFA        2.3410   -0.4070    3.4610 hc        1 QI2      0.085200
     35 HAG         2.0270   -2.7980    3.4700 h1        1 QI2      0.095700
     36 HAI         4.1310   -2.0990    4.5590 ha        1 QI2      0.139500
     37 HAJ         6.6140   -2.3330    4.4970 ha        1 QI2      0.175500
     38 HAK         3.5890    1.1490    2.6800 hc        1 QI2      0.095700
     39 HAM         3.9360   -2.9440    0.3170 ha        1 QI2      0.139500
     40 HAN         6.4230   -3.1720    0.2420 ha        1 QI2      0.175500
     41 HAQ         4.6780    1.3800    0.4310 hx        1 QI2      0.107200
     42 HAR         1.1790   -4.7060    0.5630 h1        1 QI2      0.066367
     43 HARA        2.7240   -4.7910    1.5640 h1        1 QI2      0.066367
     44 HARB        1.0920   -4.6850    2.4040 h1        1 QI2      0.066367
     45 HAS         5.6420    4.3500    2.3640 hx        1 QI2      0.110367
     46 HASA        6.1920    2.7230    1.7230 hx        1 QI2      0.110367
     47 HASB        4.9030    2.8110    3.0290 hx        1 QI2      0.110367
     48 HAU         5.7420    3.6570   -0.4500 hx        1 QI2      0.104200
     49 HAV         3.9460    6.0510    0.4590 hc        1 QI2      0.074200
     50 HAW         4.4470    6.1080   -1.9940 hc        1 QI2      0.059700
     51 HAWA        6.2030    5.8150   -1.6570 hc        1 QI2      0.059700
     52 HAY         3.4920    8.2800   -1.7280 ha        1 QI2      0.133000
     53 HBA         2.5810   10.4670   -1.6230 hc        1 QI2      0.061700
     54 HBAA        3.4760   11.7580   -0.7080 hc        1 QI2      0.061700
     55 HBAB        3.8110   11.5020   -2.4680 hc        1 QI2      0.061700
     56 HBB         7.5220    7.5010   -0.3530 ha        1 QI2      0.131000
     57 HBC         7.8860    9.9480   -0.0270 ha        1 QI2      0.166000
     58 H27        -0.5190   -0.1650   -1.3890 ho        1 QI2      0.485000
     59 H28         0.0190   -1.5100    0.4740 hn        1 QI2      0.507800
     60 H29         2.0810    1.9660    2.0760 hc        1 QI2      0.095700
     61 H30         3.1390    2.1140   -0.2460 hx        1 QI2      0.107200
     62 H31         4.0100    3.9350   -0.9890 hx        1 QI2      0.104200
     63 H32         5.7100    5.8190    0.8220 hc        1 QI2      0.074200
     64 HAB2        1.4110   -1.8650   -0.3910 hn        1 QI2      0.507800
     65 HAT1        3.4600    3.9020    1.4460 hn        1 QI2      0.452800
@<TRIPOS>BOND
     1    1    2 1   
     2    1   58 1   
     3    2    3 1   
     4    2   59 1   
     5    2   64 1   
     6    3    4 2   
     7    3    5 1   
     8    5    6 1   
     9    5   11 1   
    10    5   32 1   
    11    6    7 1   
    12    6   33 1   
    13    6   34 1   
    14    7    8 1   
    15    7   12 1   
    16    7   35 1   
    17    8    9 ar  
    18    8   13 ar  
    19    9   10 ar  
    20    9   36 1   
    21   10   15 ar  
    22   10   37 1   
    23   11   17 1   
    24   11   38 1   
    25   11   60 1   
    26   12   18 1   
    27   13   14 ar  
    28   13   39 1   
    29   14   15 ar  
    30   14   40 1   
    31   15   16 1   
    32   17   20 1   
    33   17   41 1   
    34   17   61 1   
    35   18   42 1   
    36   18   43 1   
    37   18   44 1   
    38   19   20 1   
    39   19   45 1   
    40   19   46 1   
    41   19   47 1   
    42   20   21 1   
    43   20   65 1   
    44   21   22 1   
    45   21   48 1   
    46   21   62 1   
    47   22   23 1   
    48   22   49 1   
    49   22   63 1   
    50   23   24 1   
    51   23   50 1   
    52   23   51 1   
    53   24   25 ar  
    54   24   28 ar  
    55   25   26 ar  
    56   25   52 1   
    57   26   27 1   
    58   26   30 ar  
    59   27   53 1   
    60   27   54 1   
    61   27   55 1   
    62   28   29 ar  
    63   28   56 1   
    64   29   30 ar  
    65   29   57 1   
    66   30   31 1   
@<TRIPOS>SUBSTRUCTURE
     1 QI2         1 TEMP              0 ****  ****    0 ROOT
