@<TRIPOS>MOLECULE
QI3
   44    46     1     0     0
SMALL
bcc


@<TRIPOS>ATOM
      1 C1         -0.2510   -0.8330    0.2400 c         1 QI3      0.511100
      2 N1          1.1220    1.0550   -0.6650 n3        1 QI3     -0.802500
      3 O1         -0.6790   -1.4440    1.2040 o         1 QI3     -0.413100
      4 C2          1.1330   -0.1730    0.0770 c3        1 QI3      0.209500
      5 C3          1.7060    0.1140    1.4900 c3        1 QI3     -0.099400
      6 C4          1.8440    1.6430    1.5810 c3        1 QI3      0.134100
      7 O2         -2.2550   -1.6260   -0.8670 oh        1 QI3     -0.357300
      8 N2         -1.1960   -0.7910   -0.9580 n4        1 QI3     -0.464300
      9 C5          3.5730    3.0250    2.4640 ca        1 QI3      0.078100
     10 C6          4.7690    2.9200    3.1890 ca        1 QI3     -0.151000
     11 C7          5.2120    4.0150    3.9240 ca        1 QI3     -0.094500
     12 C8          2.8180    4.2030    2.4730 ca        1 QI3     -0.151000
     13 C9          3.2650    5.2920    3.2190 ca        1 QI3     -0.094500
     14 C10         4.4590    5.1970    3.9420 ca        1 QI3      0.007400
     15 CL1         5.0000    6.5230    4.8470 cl        1 QI3     -0.058400
     16 O3          1.0460    2.4890   -2.6960 o         1 QI3     -0.655300
     17 S1          1.3790    1.1880   -2.3110 sy        1 QI3      1.531200
     18 C11         2.9710    0.8560   -2.5310 ca        1 QI3     -0.466500
     19 C12         3.9360    1.8710   -2.4040 ca        1 QI3      0.007000
     20 C13         5.2830    1.6230   -2.6340 ca        1 QI3     -0.147000
     21 O4          0.5700    0.1280   -2.8200 o         1 QI3     -0.655300
     22 C14         3.4080   -0.4250   -2.9150 ca        1 QI3      0.007000
     23 C15         4.7480   -0.6910   -3.1510 ca        1 QI3     -0.147000
     24 C16         5.6950    0.3360   -3.0070 ca        1 QI3      0.104400
     25 CL2         7.3260    0.0200   -3.2880 cl        1 QI3     -0.018400
     26 O5          3.2400    1.9200    1.6850 os        1 QI3     -0.333900
     27 C17         1.3040    2.1840    0.2320 c3        1 QI3      0.174800
     28 H1          1.7500   -0.9620   -0.4550 h1        1 QI3      0.109700
     29 H2          2.7120   -0.3720    1.5850 hc        1 QI3      0.105200
     30 H3          1.0480   -0.2770    2.3030 hc        1 QI3      0.105200
     31 H4          1.2760    2.0680    2.4470 h1        1 QI3      0.093700
     32 H5          5.3480    1.9850    3.1630 ha        1 QI3      0.145500
     33 H6          6.1520    3.9470    4.4950 ha        1 QI3      0.162000
     34 H7          1.8860    4.2770    1.8950 ha        1 QI3      0.145500
     35 H8          2.6790    6.2240    3.2340 ha        1 QI3      0.162000
     36 H9          3.6150    2.8940   -2.1310 ha        1 QI3      0.156500
     37 H10         6.0210    2.4360   -2.5300 ha        1 QI3      0.175000
     38 H11         2.6630   -1.2290   -3.0560 ha        1 QI3      0.156500
     39 H12         5.0680   -1.7010   -3.4590 ha        1 QI3      0.175000
     40 H13         2.0310    2.9200   -0.2150 h1        1 QI3      0.081700
     41 H14         0.3200    2.7050    0.3910 h1        1 QI3      0.081700
     42 H15        -2.5140   -1.7280    0.0810 ho        1 QI3      0.477000
     43 H16        -0.6830   -1.0760   -1.8360 hn        1 QI3      0.506800
     44 H22        -1.5360    0.1790   -1.1010 hn        1 QI3      0.506800
@<TRIPOS>BOND
     1    1    3 2   
     2    1    4 1   
     3    1    8 1   
     4    2    4 1   
     5    2   17 1   
     6    2   27 1   
     7    4    5 1   
     8    4   28 1   
     9    5    6 1   
    10    5   29 1   
    11    5   30 1   
    12    6   26 1   
    13    6   27 1   
    14    6   31 1   
    15    7    8 1   
    16    7   42 1   
    17    8   43 1   
    18    8   44 1   
    19    9   10 ar  
    20    9   12 ar  
    21    9   26 1   
    22   10   11 ar  
    23   10   32 1   
    24   11   14 ar  
    25   11   33 1   
    26   12   13 ar  
    27   12   34 1   
    28   13   14 ar  
    29   13   35 1   
    30   14   15 1   
    31   16   17 2   
    32   17   18 1   
    33   17   21 2   
    34   18   19 ar  
    35   18   22 ar  
    36   19   20 ar  
    37   19   36 1   
    38   20   24 ar  
    39   20   37 1   
    40   22   23 ar  
    41   22   38 1   
    42   23   24 ar  
    43   23   39 1   
    44   24   25 1   
    45   27   40 1   
    46   27   41 1   
@<TRIPOS>SUBSTRUCTURE
     1 QI3         1 TEMP              0 ****  ****    0 ROOT
