@<TRIPOS>MOLECULE
QI3
   44    46     1     0     0
SMALL
bcc


@<TRIPOS>ATOM
      1 C1         -0.2680   -0.8100    0.2050 c         1 QI3      0.511100
      2 N1          1.1230    1.0780   -0.6710 n3        1 QI3     -0.802500
      3 O1         -0.7030   -1.4300    1.1600 o         1 QI3     -0.413100
      4 C2          1.1220   -0.1600    0.0530 c3        1 QI3      0.209500
      5 C3          1.6970    0.1010    1.4700 c3        1 QI3     -0.099400
      6 C4          1.8480    1.6270    1.5840 c3        1 QI3      0.134100
      7 O2         -2.2760   -1.5710   -0.9160 oh        1 QI3     -0.357300
      8 N2         -1.2100   -0.7440   -0.9930 n4        1 QI3     -0.464300
      9 C5          3.5870    2.9820    2.4890 ca        1 QI3      0.078100
     10 C6          4.7810    2.8560    3.2140 ca        1 QI3     -0.151000
     11 C7          5.2320    3.9370    3.9650 ca        1 QI3     -0.094500
     12 C8          2.8430    4.1660    2.5130 ca        1 QI3     -0.151000
     13 C9          3.2980    5.2400    3.2750 ca        1 QI3     -0.094500
     14 C10         4.4900    5.1250    3.9990 ca        1 QI3      0.007400
     15 CL1         5.0410    6.4340    4.9230 cl        1 QI3     -0.058400
     16 O3          1.0600    2.5420   -2.6810 o         1 QI3     -0.655300
     17 S1          1.3830    1.2330   -2.3150 sy        1 QI3      1.531200
     18 C11         2.9730    0.8920   -2.5380 ca        1 QI3     -0.466500
     19 C12         3.9450    1.8980   -2.3960 ca        1 QI3      0.007000
     20 C13         5.2900    1.6420   -2.6290 ca        1 QI3     -0.147000
     21 O4          0.5660    0.1860   -2.8400 o         1 QI3     -0.655300
     22 C14         3.4000   -0.3870   -2.9390 ca        1 QI3      0.007000
     23 C15         4.7380   -0.6600   -3.1780 ca        1 QI3     -0.147000
     24 C16         5.6930    0.3570   -3.0190 ca        1 QI3      0.104400
     25 CL2         7.3220    0.0330   -3.3030 cl        1 QI3     -0.018400
     26 O5          3.2450    1.8910    1.6940 os        1 QI3     -0.333900
     27 C17         1.3140    2.1930    0.2420 c3        1 QI3      0.174800
     28 H1          1.7330   -0.9470   -0.4890 h1        1 QI3      0.109700
     29 H2          2.6980   -0.3950    1.5590 hc        1 QI3      0.105200
     30 H3          1.0340   -0.2950    2.2770 hc        1 QI3      0.105200
     31 H4          1.2820    2.0450    2.4550 h1        1 QI3      0.093700
     32 H5          5.3520    1.9170    3.1760 ha        1 QI3      0.145500
     33 H6          6.1710    3.8530    4.5370 ha        1 QI3      0.162000
     34 H7          1.9120    4.2570    1.9350 ha        1 QI3      0.145500
     35 H8          2.7200    6.1770    3.3030 ha        1 QI3      0.162000
     36 H9          3.6320    2.9190   -2.1100 ha        1 QI3      0.156500
     37 H10         6.0350    2.4480   -2.5130 ha        1 QI3      0.175000
     38 H11         2.6490   -1.1830   -3.0910 ha        1 QI3      0.156500
     39 H12         5.0510   -1.6680   -3.4990 ha        1 QI3      0.175000
     40 H13         2.0480    2.9290   -0.1930 h1        1 QI3      0.081700
     41 H14         0.3350    2.7200    0.4080 h1        1 QI3      0.081700
     42 H15        -2.5380   -1.6820    0.0300 ho        1 QI3      0.477000
     43 H16        -1.5420    0.2310   -1.1240 hn        1 QI3      0.506800
     44 H22        -0.6990   -1.0210   -1.8750 hn        1 QI3      0.506800
@<TRIPOS>BOND
     1    1    3 2   
     2    1    4 1   
     3    1    8 1   
     4    2    4 1   
     5    2   17 1   
     6    2   27 1   
     7    4    5 1   
     8    4   28 1   
     9    5    6 1   
    10    5   29 1   
    11    5   30 1   
    12    6   26 1   
    13    6   27 1   
    14    6   31 1   
    15    7    8 1   
    16    7   42 1   
    17    8   43 1   
    18    8   44 1   
    19    9   10 ar  
    20    9   12 ar  
    21    9   26 1   
    22   10   11 ar  
    23   10   32 1   
    24   11   14 ar  
    25   11   33 1   
    26   12   13 ar  
    27   12   34 1   
    28   13   14 ar  
    29   13   35 1   
    30   14   15 1   
    31   16   17 2   
    32   17   18 1   
    33   17   21 2   
    34   18   19 ar  
    35   18   22 ar  
    36   19   20 ar  
    37   19   36 1   
    38   20   24 ar  
    39   20   37 1   
    40   22   23 ar  
    41   22   38 1   
    42   23   24 ar  
    43   23   39 1   
    44   24   25 1   
    45   27   40 1   
    46   27   41 1   
@<TRIPOS>SUBSTRUCTURE
     1 QI3         1 TEMP              0 ****  ****    0 ROOT
