@<TRIPOS>MOLECULE
QI3
   43    45     1     0     0
SMALL
bcc


@<TRIPOS>ATOM
      1 C1         -0.7720    3.7680    0.5490 c         1 QI3      0.580100
      2 N1         -0.6180    1.5060   -0.4740 n3        1 QI3     -0.805500
      3 O1          0.2110    4.5050    0.7270 o         1 QI3     -0.564100
      4 C2         -0.6950    2.2390    0.7750 c3        1 QI3      0.178500
      5 C3          0.5640    1.8890    1.6020 c3        1 QI3     -0.086400
      6 C4          1.5050    1.1490    0.6400 c3        1 QI3      0.133100
      7 O2         -2.0570    5.5680   -0.1510 oh        1 QI3     -0.425100
      8 N2         -2.0590    4.3170    0.3130 n         1 QI3     -0.361400
      9 C5          2.8460   -0.8280    0.7940 ca        1 QI3      0.116100
     10 C6          3.2430   -1.8830    1.6370 ca        1 QI3     -0.168000
     11 C7          4.3440   -2.6550    1.2880 ca        1 QI3     -0.092000
     12 C8          3.5480   -0.5500   -0.3850 ca        1 QI3     -0.168000
     13 C9          4.6550   -1.3270   -0.7230 ca        1 QI3     -0.092000
     14 C10         5.0500   -2.3760    0.1120 ca        1 QI3     -0.012600
     15 CL1         6.3990   -3.3220   -0.3040 cl        1 QI3     -0.090400
     16 O3         -1.4440    0.5000   -2.5900 o         1 QI3     -0.649800
     17 S1         -1.8900    0.9550   -1.3340 sy        1 QI3      1.519200
     18 C11        -2.4370   -0.3620   -0.4390 ca        1 QI3     -0.398500
     19 C12        -1.9060   -1.6400   -0.6550 ca        1 QI3     -0.005000
     20 C13        -2.3660   -2.7420    0.0590 ca        1 QI3     -0.151500
     21 O4         -2.8960    1.9490   -1.3160 o         1 QI3     -0.649800
     22 C14        -3.4560   -0.2140    0.5100 ca        1 QI3     -0.005000
     23 C15        -3.9310   -1.3020    1.2340 ca        1 QI3     -0.151500
     24 C16        -3.3800   -2.5690    1.0080 ca        1 QI3      0.080400
     25 CL2        -3.9460   -3.9020    1.8890 cl        1 QI3     -0.069400
     26 O5          1.7140   -0.1500    1.2060 os        1 QI3     -0.330900
     27 C17         0.7370    1.0460   -0.7010 c3        1 QI3      0.194800
     28 H1         -1.6210    1.9190    1.3390 h1        1 QI3      0.072700
     29 H2          1.0590    2.8110    1.9970 hc        1 QI3      0.089200
     30 H3          0.2870    1.2300    2.4620 hc        1 QI3      0.089200
     31 H4          2.4800    1.6840    0.5110 h1        1 QI3      0.080700
     32 H5          2.6760   -2.0850    2.5570 ha        1 QI3      0.149000
     33 H6          4.6600   -3.4830    1.9420 ha        1 QI3      0.151000
     34 H7          3.2340    0.2670   -1.0510 ha        1 QI3      0.149000
     35 H8          5.2110   -1.1120   -1.6480 ha        1 QI3      0.151000
     36 H9         -1.1170   -1.7770   -1.4170 ha        1 QI3      0.158000
     37 H10        -1.9370   -3.7400   -0.1240 ha        1 QI3      0.159000
     38 H11        -3.9030    0.7840    0.6720 ha        1 QI3      0.158000
     39 H12        -4.7350   -1.1680    1.9740 ha        1 QI3      0.159000
     40 H13         0.7300   -0.0170   -1.0730 h1        1 QI3      0.068200
     41 H14         1.2340    1.6970   -1.4730 h1        1 QI3      0.068200
     42 H15        -1.7680    6.1330    0.5940 ho        1 QI3      0.428000
     43 H16        -2.6550    3.7600   -0.2970 hn        1 QI3      0.343500
@<TRIPOS>BOND
     1    1    3 2   
     2    1    4 1   
     3    1    8 1   
     4    2    4 1   
     5    2   17 1   
     6    2   27 1   
     7    4    5 1   
     8    4   28 1   
     9    5    6 1   
    10    5   29 1   
    11    5   30 1   
    12    6   26 1   
    13    6   27 1   
    14    6   31 1   
    15    7    8 1   
    16    7   42 1   
    17    8   43 1   
    18    9   10 ar  
    19    9   12 ar  
    20    9   26 1   
    21   10   11 ar  
    22   10   32 1   
    23   11   14 ar  
    24   11   33 1   
    25   12   13 ar  
    26   12   34 1   
    27   13   14 ar  
    28   13   35 1   
    29   14   15 1   
    30   16   17 2   
    31   17   18 1   
    32   17   21 2   
    33   18   19 ar  
    34   18   22 ar  
    35   19   20 ar  
    36   19   36 1   
    37   20   24 ar  
    38   20   37 1   
    39   22   23 ar  
    40   22   38 1   
    41   23   24 ar  
    42   23   39 1   
    43   24   25 1   
    44   27   40 1   
    45   27   41 1   
@<TRIPOS>SUBSTRUCTURE
     1 QI3         1 TEMP              0 ****  ****    0 ROOT
