@<TRIPOS>MOLECULE
QI3
   44    46     1     0     0
SMALL
bcc


@<TRIPOS>ATOM
      1 C1         -0.2410   -0.8430    0.2240 c         1 QI3      0.511100
      2 N1          1.1230    1.0610   -0.6620 n3        1 QI3     -0.802500
      3 O1         -0.6630   -1.4650    1.1830 o         1 QI3     -0.413100
      4 C2          1.1400   -0.1760    0.0630 c3        1 QI3      0.209500
      5 C3          1.7200    0.0930    1.4770 c3        1 QI3     -0.099400
      6 C4          1.8550    1.6210    1.5870 c3        1 QI3      0.134100
      7 O2         -2.2460   -1.6290   -0.8850 oh        1 QI3     -0.357300
      8 N2         -1.1910   -0.7890   -0.9700 ny        1 QI3     -0.464300
      9 C5          3.5840    2.9970    2.4790 ca        1 QI3      0.078100
     10 C6          4.7850    2.8850    3.1970 ca        1 QI3     -0.151000
     11 C7          5.2280    3.9730    3.9440 ca        1 QI3     -0.094500
     12 C8          2.8270    4.1730    2.5070 ca        1 QI3     -0.151000
     13 C9          3.2750    5.2530    3.2650 ca        1 QI3     -0.094500
     14 C10         4.4730    5.1520    3.9810 ca        1 QI3      0.007400
     15 Cl1         5.0150    6.4680    4.9000 cl        1 QI3     -0.058400
     16 O3          1.0300    2.5200   -2.6750 o         1 QI3     -0.655300
     17 S1          1.3720    1.2160   -2.3080 sy        1 QI3      1.531200
     18 C11         2.9650    0.8950   -2.5400 ca        1 QI3     -0.466500
     19 C12         3.9250    1.9140   -2.4060 ca        1 QI3      0.007000
     20 C13         5.2720    1.6750   -2.6450 ca        1 QI3     -0.147000
     21 O4          0.5650    0.1590   -2.8270 o         1 QI3     -0.655300
     22 C14         3.4060   -0.3790   -2.9400 ca        1 QI3      0.007000
     23 C15         4.7460   -0.6360   -3.1850 ca        1 QI3     -0.147000
     24 C16         5.6880    0.3940   -3.0340 ca        1 QI3      0.104400
     25 Cl2         7.3200    0.0890   -3.3270 cl        1 QI3     -0.018400
     26 O5          3.2500    1.9010    1.6880 os        1 QI3     -0.333900
     27 C17         1.3060    2.1790    0.2480 c3        1 QI3      0.174800
     28 H1          1.7580   -0.9570   -0.4820 h1        1 QI3      0.109700
     29 H2          2.7280   -0.3920    1.5610 hc        1 QI3      0.105200
     30 H3          1.0670   -0.3090    2.2880 hc        1 QI3      0.105200
     31 H4          1.2900    2.0340    2.4620 h1        1 QI3      0.093700
     32 H5          5.3660    1.9530    3.1560 ha        1 QI3      0.145500
     33 H6          6.1710    3.9000    4.5090 ha        1 QI3      0.162000
     34 H7          1.8910    4.2520    1.9360 ha        1 QI3      0.145500
     35 H8          2.6860    6.1830    3.2960 ha        1 QI3      0.162000
     36 H9          3.6000    2.9310   -2.1190 ha        1 QI3      0.156500
     37 H10         6.0060    2.4900   -2.5360 ha        1 QI3      0.175000
     38 H11         2.6640   -1.1850   -3.0860 ha        1 QI3      0.156500
     39 H12         5.0690   -1.6400   -3.5060 ha        1 QI3      0.175000
     40 H13         2.0290    2.9230   -0.1920 h1        1 QI3      0.081700
     41 H14         0.3210    2.6950    0.4190 h1        1 QI3      0.081700
     42 H15        -2.5010   -1.7420    0.0630 ho        1 QI3      0.477000
     43 H16        -0.6800   -1.0620   -1.8530 hn        1 QI3      0.506800
     44 H22        -1.5340    0.1810   -1.1000 hn        1 QI3      0.506800
@<TRIPOS>BOND
     1    1    3 2   
     2    1    4 1   
     3    1    8 1   
     4    2    4 1   
     5    2   17 1   
     6    2   27 1   
     7    4    5 1   
     8    4   28 1   
     9    5    6 1   
    10    5   29 1   
    11    5   30 1   
    12    6   26 1   
    13    6   27 1   
    14    6   31 1   
    15    7    8 1   
    16    7   42 1   
    17    8   43 1   
    18    8   44 1   
    19    9   10 ar  
    20    9   12 ar  
    21    9   26 1   
    22   10   11 ar  
    23   10   32 1   
    24   11   14 ar  
    25   11   33 1   
    26   12   13 ar  
    27   12   34 1   
    28   13   14 ar  
    29   13   35 1   
    30   14   15 1   
    31   16   17 2   
    32   17   18 1   
    33   17   21 2   
    34   18   19 ar  
    35   18   22 ar  
    36   19   20 ar  
    37   19   36 1   
    38   20   24 ar  
    39   20   37 1   
    40   22   23 ar  
    41   22   38 1   
    42   23   24 ar  
    43   23   39 1   
    44   24   25 1   
    45   27   40 1   
    46   27   41 1   
@<TRIPOS>SUBSTRUCTURE
     1 QI3         1 TEMP              0 ****  ****    0 ROOT
