@<TRIPOS>MOLECULE
QIC
   24    23     1     0     0
SMALL
bcc


@<TRIPOS>ATOM
      1 C1          0.1410   -0.7950   -0.1370 ce        1 QIC     -0.156400
      2 O1         -0.6900    2.2240    0.3730 oh        1 QIC     -0.857000
      3 C2          1.4850   -0.1750   -0.0140 c3        1 QIC     -0.072200
      4 O2          1.5410    1.0750    2.0990 oh        1 QIC     -0.638800
      5 C3          2.0040   -0.0790    1.4130 c3        1 QIC      0.120100
      6 O3          2.0990   -1.2300    3.5620 oh        1 QIC     -0.624800
      7 C4          1.6380   -1.3320    2.2230 c3        1 QIC      0.079100
      8 O4         -0.1970   -2.8340    2.7810 oh        1 QIC     -0.600800
      9 C5          0.1170   -1.5640    2.2200 c3        1 QIC      0.156300
     10 C6         -0.4540   -1.4800    0.8460 c2        1 QIC     -0.202200
     11 C7         -0.5440   -0.5230   -1.4690 c         1 QIC      0.909800
     12 HO1        -0.2700    2.3440   -0.4870 ho        1 QIC      0.424000
     13 H2          1.4420    0.8600   -0.4570 hc        1 QIC      0.069200
     14 H2A        -1.2480    1.4500    0.2180 ho        1 QIC      0.424000
     15 HO2         0.6760    1.3180    1.7280 ho        1 QIC      0.443000
     16 H3          2.2070   -0.7800   -0.6260 hc        1 QIC      0.069200
     17 HO3         1.8750   -0.3400    3.8660 ho        1 QIC      0.413000
     18 H4          3.1270    0.0320    1.4170 h1        1 QIC      0.052700
     19 HO4         0.3540   -2.9180    3.5700 ho        1 QIC      0.397000
     20 H5          2.1640   -2.2330    1.8040 h1        1 QIC      0.081700
     21 H6         -1.4200   -1.9840    0.7000 ha        1 QIC      0.146000
     22 H6A        -0.3620   -0.7680    2.8670 h1        1 QIC      0.028700
     23 O5         -0.7870   -1.4730   -2.2530 o         1 QIC     -0.831300
     24 O6         -0.8260    0.6940   -1.7070 o         1 QIC     -0.831300
@<TRIPOS>BOND
     1    1    3 1   
     2    1   10 2   
     3    1   11 1   
     4    2   12 1   
     5    2   14 1   
     6    3    5 1   
     7    3   13 1   
     8    3   16 1   
     9    4    5 1   
    10    4   15 1   
    11    5    7 1   
    12    5   18 1   
    13    6    7 1   
    14    6   17 1   
    15    7    9 1   
    16    7   20 1   
    17    8    9 1   
    18    8   19 1   
    19    9   10 1   
    20    9   22 1   
    21   10   21 1   
    22   11   23 1   
    23   11   24 1   
@<TRIPOS>SUBSTRUCTURE
     1 QIC         1 TEMP              0 ****  ****    0 ROOT
