@<TRIPOS>MOLECULE
QIC
   24    23     1     0     0
SMALL
bcc


@<TRIPOS>ATOM
      1 C1         -1.0200   -0.1640   -0.0050 ce        1 QIC      0.036900
      2 O1         -0.6860    1.1390    0.2920 oh        1 QIC     -0.569100
      3 C2          2.5170    0.0500    0.1280 c3        1 QIC     -0.132100
      4 O2          1.8280    1.2150    2.1340 oh        1 QIC     -0.623800
      5 C3          2.3430   -0.0060    1.6340 c3        1 QIC      0.127100
      6 O3          1.9860   -1.7540    3.2660 oh        1 QIC     -0.616800
      7 C4          1.4940   -1.2260    2.0420 c3        1 QIC      0.079100
      8 O4         -0.5440   -1.7750    3.1880 oh        1 QIC     -0.610800
      9 C5         -0.0210   -0.9400    2.1580 c3        1 QIC      0.168300
     10 C6         -0.7080   -1.1470    0.8590 c2        1 QIC     -0.321200
     11 C7         -1.7200   -0.3640   -1.3500 c         1 QIC      0.893800
     12 HO1        -1.0220    1.6880   -0.4440 ho        1 QIC      0.452000
     13 H2          3.0490   -0.8610   -0.2350 hc        1 QIC      0.047700
     14 H2A         1.5160    0.1090   -0.3700 hc        1 QIC      0.047700
     15 HO2         1.0540    1.4450    1.5980 ho        1 QIC      0.428000
     16 H3          3.1100    0.9530   -0.1520 hc        1 QIC      0.047700
     17 HO3         1.5660   -1.2570    3.9800 ho        1 QIC      0.409000
     18 H4          3.3480   -0.1000    2.1420 h1        1 QIC      0.061700
     19 HO4        -0.4860   -2.6840    2.8720 ho        1 QIC      0.397000
     20 H5          1.6680   -2.0550    1.2990 h1        1 QIC      0.072700
     21 H6         -0.9900   -2.1770    0.5970 ha        1 QIC      0.148000
     22 H6A        -0.1980    0.1000    2.5580 h1        1 QIC      0.084700
     23 O5         -2.0340   -1.5230   -1.7140 o         1 QIC     -0.813800
     24 O6         -1.9200    0.7010   -2.0060 o         1 QIC     -0.813800
@<TRIPOS>BOND
     1    1    2 1   
     2    1   10 2   
     3    1   11 1   
     4    2   12 1   
     5    3    5 1   
     6    3   13 1   
     7    3   14 1   
     8    3   16 1   
     9    4    5 1   
    10    4   15 1   
    11    5    7 1   
    12    5   18 1   
    13    6    7 1   
    14    6   17 1   
    15    7    9 1   
    16    7   20 1   
    17    8    9 1   
    18    8   19 1   
    19    9   10 1   
    20    9   22 1   
    21   10   21 1   
    22   11   23 1   
    23   11   24 1   
@<TRIPOS>SUBSTRUCTURE
     1 QIC         1 TEMP              0 ****  ****    0 ROOT
