@<TRIPOS>MOLECULE
QIC
   24    24     1     0     0
SMALL
bcc


@<TRIPOS>ATOM
      1 C1         -0.8330   -0.0170   -0.2640 c3        1 QIC      0.016800
      2 O1         -0.6930   -0.4220   -1.6220 oh        1 QIC     -0.659800
      3 C2         -0.3110   -1.1360    0.6370 c3        1 QIC     -0.104900
      4 O2          1.6290   -1.9200   -0.6420 oh        1 QIC     -0.618300
      5 C3          1.1940   -1.3290    0.5740 c3        1 QIC      0.116600
      6 O3          3.3380   -0.1930    0.6950 oh        1 QIC     -0.605800
      7 C4          1.9380    0.0020    0.7900 c3        1 QIC      0.084100
      8 O4          2.1700    2.2710   -0.0710 oh        1 QIC     -0.618300
      9 C5          1.4510    1.0560   -0.2160 c3        1 QIC      0.116600
     10 C6         -0.0470    1.2750   -0.0620 c3        1 QIC     -0.104900
     11 C7         -2.3370    0.2450    0.0940 c         1 QIC      0.904600
     12 HO1        -1.5880   -0.4700   -1.9990 ho        1 QIC      0.438000
     13 H2         -0.6100   -0.8890    1.6900 hc        1 QIC      0.062700
     14 H2A        -0.8100   -2.0940    0.3410 hc        1 QIC      0.062700
     15 HO2         1.0870   -1.5530   -1.3540 ho        1 QIC      0.411000
     16 H3          1.5310   -2.0580    1.3650 h1        1 QIC      0.066200
     17 HO3         3.4970   -0.6250   -0.1550 ho        1 QIC      0.407000
     18 H4          1.7730    0.3650    1.8420 h1        1 QIC      0.067700
     19 HO4         2.0120    2.5840    0.8270 ho        1 QIC      0.411000
     20 H5          1.6910    0.7190   -1.2640 h1        1 QIC      0.066200
     21 H6         -0.3840    2.0310   -0.8160 hc        1 QIC      0.062700
     22 H6A        -0.2820    1.6700    0.9600 hc        1 QIC      0.062700
     23 O5         -2.6110    0.6280    1.2590 o         1 QIC     -0.822300
     24 O6         -3.1700    0.0410   -0.8340 o         1 QIC     -0.822300
@<TRIPOS>BOND
     1    1    2 1   
     2    1    3 1   
     3    1   10 1   
     4    1   11 1   
     5    2   12 1   
     6    3    5 1   
     7    3   13 1   
     8    3   14 1   
     9    4    5 1   
    10    4   15 1   
    11    5    7 1   
    12    5   16 1   
    13    6    7 1   
    14    6   17 1   
    15    7    9 1   
    16    7   18 1   
    17    8    9 1   
    18    8   19 1   
    19    9   10 1   
    20    9   20 1   
    21   10   21 1   
    22   10   22 1   
    23   11   23 1   
    24   11   24 1   
@<TRIPOS>SUBSTRUCTURE
     1 QIC         1 TEMP              0 ****  ****    0 ROOT
