@<TRIPOS>MOLECULE
QID
   32    34     1     0     0
SMALL
bcc


@<TRIPOS>ATOM
      1 C01         0.0220   -0.0330   -0.1700 ca        1 QID     -0.412500
      2 C02         1.4230   -0.1290   -0.1170 ca        1 QID      0.042000
      3 C03         2.1100   -0.1320    1.0840 ca        1 QID     -0.219000
      4 C04         1.3940   -0.0410    2.3040 ca        1 QID      0.176600
      5 C05        -0.0220    0.0560    2.2600 ca        1 QID     -0.239600
      6 C06        -0.6840    0.0520    1.0300 ca        1 QID      0.085000
      7 C07        -0.8050    0.1870    3.5040 c         1 QID      0.720100
      8 N08         2.0470   -0.0400    3.5250 n         1 QID     -0.459100
      9 N09        -0.0810   -0.0230    4.7260 n         1 QID     -0.336900
     10 O10        -2.0220    0.3970    3.5390 o         1 QID     -0.554500
     11 C11         1.3540    0.0350    4.7490 c         1 QID      0.792500
     12 O12         1.9900    0.0640    5.8170 o         1 QID     -0.592500
     13 O13        -0.6510    0.4790    5.8140 oh        1 QID     -0.370100
     14 S14        -0.7780   -0.0660   -1.6540 sy        1 QID      1.447600
     15 C15        -1.0590    1.5690   -1.8940 ca        1 QID     -0.382500
     16 O16         0.1140   -0.5410   -2.6300 o         1 QID     -0.654300
     17 O17        -2.0000   -0.7360   -1.4980 o         1 QID     -0.654300
     18 C18        -0.1520    2.3550   -2.6170 ca        1 QID     -0.017000
     19 C19        -0.3940    3.7070   -2.8390 ca        1 QID     -0.154500
     20 C20        -1.5570    4.2960   -2.3390 ca        1 QID     -0.064000
     21 C21        -2.4760    3.5260   -1.6260 ca        1 QID     -0.154500
     22 C22        -2.2260    2.1730   -1.4090 ca        1 QID     -0.017000
     23 H02         1.9870   -0.2180   -1.0650 ha        1 QID      0.167000
     24 H03         3.2080   -0.2110    1.0900 ha        1 QID      0.152000
     25 H06        -1.7910    0.1080    1.0230 ha        1 QID      0.177000
     26 HN08        3.0420   -0.0810    3.5650 hn        1 QID      0.357500
     27 HO13       -0.8390   -0.2890    6.3950 ho        1 QID      0.433000
     28 H18         0.7590    1.8840   -3.0290 ha        1 QID      0.153000
     29 H19         0.3280    4.3090   -3.4100 ha        1 QID      0.143500
     30 H20        -1.7510    5.3660   -2.5120 ha        1 QID      0.139000
     31 H21        -3.3980    3.9840   -1.2380 ha        1 QID      0.143500
     32 H22        -2.9620    1.5590   -0.8590 ha        1 QID      0.153000
@<TRIPOS>BOND
     1    1    2 ar  
     2    1    6 ar  
     3    1   14 1   
     4    2    3 ar  
     5    2   23 1   
     6    3    4 ar  
     7    3   24 1   
     8    4    5 ar  
     9    4    8 1   
    10    5    6 ar  
    11    5    7 1   
    12    6   25 1   
    13    7    9 1   
    14    7   10 2   
    15    8   11 1   
    16    8   26 1   
    17    9   11 1   
    18    9   13 1   
    19   11   12 2   
    20   13   27 1   
    21   14   15 1   
    22   14   16 2   
    23   14   17 2   
    24   15   18 ar  
    25   15   22 ar  
    26   18   19 ar  
    27   18   28 1   
    28   19   20 ar  
    29   19   29 1   
    30   20   21 ar  
    31   20   30 1   
    32   21   22 ar  
    33   21   31 1   
    34   22   32 1   
@<TRIPOS>SUBSTRUCTURE
     1 QID         1 TEMP              0 ****  ****    0 ROOT
