@<TRIPOS>MOLECULE
QID
   32    34     1     0     0
SMALL
bcc


@<TRIPOS>ATOM
      1 C01         0.6940   -0.9440   -0.5130 ca        1 QID     -0.412500
      2 C02         0.3020   -2.0760    0.2240 ca        1 QID      0.042000
      3 C03        -0.9730   -2.2030    0.7450 ca        1 QID     -0.219000
      4 C04        -1.9210   -1.1690    0.5430 ca        1 QID      0.176600
      5 C05        -1.5370   -0.0260   -0.2050 ca        1 QID     -0.239600
      6 C06        -0.2450    0.0640   -0.7280 ca        1 QID      0.085000
      7 C07        -2.4990    1.0640   -0.4610 c         1 QID      0.720100
      8 N08        -3.2040   -1.2600    1.0550 n         1 QID     -0.459100
      9 N09        -3.7460    0.9820    0.2480 n         1 QID     -0.338900
     10 O10        -2.2630    2.0470   -1.1710 o         1 QID     -0.553500
     11 C11        -4.1640   -0.2480    0.8610 c         1 QID      0.792500
     12 O12        -5.3180   -0.3980    1.3000 o         1 QID     -0.593500
     13 O13        -4.7420    1.6810   -0.2780 oh        1 QID     -0.369100
     14 S14         2.2500   -0.8450   -1.1540 sy        1 QID      1.447600
     15 C15         2.9930    0.1410   -0.0190 ca        1 QID     -0.381500
     16 O16         2.8280   -2.1240   -1.1200 o         1 QID     -0.653800
     17 O17         2.1940   -0.1810   -2.3870 o         1 QID     -0.653800
     18 C18         3.6700   -0.4110    1.0770 ca        1 QID     -0.017500
     19 C19         4.3090    0.4050    2.0070 ca        1 QID     -0.155000
     20 C20         4.2820    1.7910    1.8510 ca        1 QID     -0.064000
     21 C21         3.6210    2.3560    0.7590 ca        1 QID     -0.155000
     22 C22         2.9840    1.5340   -0.1670 ca        1 QID     -0.017500
     23 H02         1.0360   -2.8910    0.3760 ha        1 QID      0.167000
     24 H03        -1.2480   -3.1060    1.3120 ha        1 QID      0.152000
     25 H06         0.0220    0.9540   -1.3330 ha        1 QID      0.177000
     26 HN08       -3.4960   -2.0780    1.5440 hn        1 QID      0.357500
     27 HO13       -4.9950    2.3400    0.4040 ho        1 QID      0.432000
     28 H18         3.7080   -1.5090    1.1890 ha        1 QID      0.153000
     29 H19         4.8380   -0.0450    2.8610 ha        1 QID      0.143000
     30 H20         4.7860    2.4380    2.5850 ha        1 QID      0.139000
     31 H21         3.6050    3.4480    0.6270 ha        1 QID      0.143000
     32 H22         2.4760    1.9800   -1.0410 ha        1 QID      0.153000
@<TRIPOS>BOND
     1    1    2 ar  
     2    1    6 ar  
     3    1   14 1   
     4    2    3 ar  
     5    2   23 1   
     6    3    4 ar  
     7    3   24 1   
     8    4    5 ar  
     9    4    8 1   
    10    5    6 ar  
    11    5    7 1   
    12    6   25 1   
    13    7    9 1   
    14    7   10 2   
    15    8   11 1   
    16    8   26 1   
    17    9   11 1   
    18    9   13 1   
    19   11   12 2   
    20   13   27 1   
    21   14   15 1   
    22   14   16 2   
    23   14   17 2   
    24   15   18 ar  
    25   15   22 ar  
    26   18   19 ar  
    27   18   28 1   
    28   19   20 ar  
    29   19   29 1   
    30   20   21 ar  
    31   20   30 1   
    32   21   22 ar  
    33   21   31 1   
    34   22   32 1   
@<TRIPOS>SUBSTRUCTURE
     1 QID         1 TEMP              0 ****  ****    0 ROOT
