@<TRIPOS>MOLECULE
QID
   32    34     1     0     0
SMALL
bcc


@<TRIPOS>ATOM
      1 C01         0.0260   -0.0330   -0.1690 ca        1 QID     -0.412500
      2 C02         1.4270   -0.1220   -0.1150 ca        1 QID      0.042000
      3 C03         2.1140   -0.1220    1.0860 ca        1 QID     -0.219000
      4 C04         1.3970   -0.0330    2.3050 ca        1 QID      0.176600
      5 C05        -0.0190    0.0570    2.2600 ca        1 QID     -0.239600
      6 C06        -0.6800    0.0500    1.0310 ca        1 QID      0.085000
      7 C07        -0.8030    0.1850    3.5040 c         1 QID      0.720100
      8 N08         2.0500   -0.0290    3.5260 ns        1 QID     -0.459100
      9 N09        -0.0790   -0.0210    4.7270 n         1 QID     -0.336900
     10 O10        -2.0210    0.3890    3.5390 o         1 QID     -0.554500
     11 C11         1.3570    0.0440    4.7500 c         1 QID      0.792500
     12 O12         1.9920    0.0760    5.8180 o         1 QID     -0.592500
     13 O13        -0.6510    0.4790    5.8150 oh        1 QID     -0.370100
     14 S14        -0.7730   -0.0700   -1.6540 sy        1 QID      1.447600
     15 C15        -1.0600    1.5640   -1.8950 ca        1 QID     -0.382500
     16 O16         0.1200   -0.5420   -2.6290 o         1 QID     -0.654300
     17 O17        -1.9920   -0.7440   -1.4970 o         1 QID     -0.654300
     18 C18        -0.1550    2.3520   -2.6190 ca        1 QID     -0.017000
     19 C19        -0.4030    3.7040   -2.8410 ca        1 QID     -0.154500
     20 C20        -1.5680    4.2890   -2.3420 ca        1 QID     -0.064000
     21 C21        -2.4840    3.5160   -1.6280 ca        1 QID     -0.154500
     22 C22        -2.2300    2.1650   -1.4100 ca        1 QID     -0.017000
     23 H02         1.9920   -0.2100   -1.0640 ha        1 QID      0.167000
     24 H03         3.2120   -0.1960    1.0920 ha        1 QID      0.152000
     25 H06        -1.7880    0.1010    1.0230 ha        1 QID      0.177000
     26 HN08        3.0450   -0.0650    3.5670 hn        1 QID      0.357500
     27 HO13       -0.8360   -0.2890    6.3960 ho        1 QID      0.433000
     28 H18         0.7570    1.8850   -3.0300 ha        1 QID      0.153000
     29 H19         0.3170    4.3080   -3.4130 ha        1 QID      0.143500
     30 H20        -1.7660    5.3580   -2.5160 ha        1 QID      0.139000
     31 H21        -3.4080    3.9710   -1.2400 ha        1 QID      0.143500
     32 H22        -2.9630    1.5480   -0.8600 ha        1 QID      0.153000
@<TRIPOS>BOND
     1    1    2 ar  
     2    1    6 ar  
     3    1   14 1   
     4    2    3 ar  
     5    2   23 1   
     6    3    4 ar  
     7    3   24 1   
     8    4    5 ar  
     9    4    8 1   
    10    5    6 ar  
    11    5    7 1   
    12    6   25 1   
    13    7    9 1   
    14    7   10 2   
    15    8   11 1   
    16    8   26 1   
    17    9   11 1   
    18    9   13 1   
    19   11   12 2   
    20   13   27 1   
    21   14   15 1   
    22   14   16 2   
    23   14   17 2   
    24   15   18 ar  
    25   15   22 ar  
    26   18   19 ar  
    27   18   28 1   
    28   19   20 ar  
    29   19   29 1   
    30   20   21 ar  
    31   20   30 1   
    32   21   22 ar  
    33   21   31 1   
    34   22   32 1   
@<TRIPOS>SUBSTRUCTURE
     1 QID         1 TEMP              0 ****  ****    0 ROOT
