@<TRIPOS>MOLECULE
QIG
   43    47     1     0     0
SMALL
bcc


@<TRIPOS>ATOM
      1 C1          0.9050   -1.7900    0.7960 c3        1 QIG     -0.148400
      2 C2          1.8930   -0.7370    0.4100 ca        1 QIG      0.412600
      3 C3          2.1400    0.3310    1.3020 ca        1 QIG     -0.243300
      4 C4          3.0680    1.3090    0.9500 ca        1 QIG     -0.095000
      5 C5          3.7250    1.2120   -0.2760 ca        1 QIG     -0.219300
      6 C6          3.4120    0.1180   -1.1080 cp        1 QIG      0.377300
      7 N7          2.5210   -0.8450   -0.7880 nb        1 QIG     -0.637000
      8 C8          4.1140    0.0140   -2.4350 cp        1 QIG      0.634000
      9 N9          3.3090    0.1910   -3.5490 nb        1 QIG     -0.737000
     10 C10         3.9090    0.1130   -4.7550 ca        1 QIG      0.689200
     11 N11         3.1790    0.3440   -5.9300 nh        1 QIG     -0.716300
     12 C12         1.7680    0.4900   -5.9320 ca        1 QIG      0.102600
     13 C13         1.1610    1.5330   -5.1760 ca        1 QIG     -0.071000
     14 C14        -0.2040    1.7610   -5.2130 ca        1 QIG     -0.128000
     15 C15        -0.9870    0.9320   -6.0250 ca        1 QIG     -0.062200
     16 N16        -2.3600    0.9190   -6.3440 na        1 QIG     -0.016100
     17 N18        -2.6550   -0.1050   -7.1620 nc        1 QIG     -0.512100
     18 C19        -1.5140   -0.7350   -7.4970 cd        1 QIG      0.348800
     19 C20        -0.3850   -0.1260   -6.8000 ca        1 QIG     -0.199900
     20 C21         0.9850   -0.3450   -6.7470 ca        1 QIG     -0.102000
     21 C22         5.3460   -0.1520   -4.8710 ca        1 QIG     -0.285600
     22 C23         6.0490   -0.2330   -6.0950 ca        1 QIG     -0.093000
     23 C24         7.4010   -0.4900   -6.1110 ca        1 QIG     -0.140000
     24 C25         8.1070   -0.6750   -4.9030 ca        1 QIG     -0.105000
     25 C26         7.4620   -0.5930   -3.6940 ca        1 QIG     -0.177300
     26 C27         6.0570   -0.3240   -3.6430 ca        1 QIG      0.436600
     27 N28         5.4290   -0.2380   -2.4140 nb        1 QIG     -0.702000
     28 H1          0.1060   -1.8860    0.0190 hc        1 QIG      0.054033
     29 H1A         1.4150   -2.7810    0.8960 hc        1 QIG      0.054033
     30 H1B         0.4270   -1.5330    1.7720 hc        1 QIG      0.054033
     31 H3          1.6070    0.3810    2.2610 ha        1 QIG      0.142000
     32 H4          3.2820    2.1470    1.6300 ha        1 QIG      0.139000
     33 H5          4.4700    1.9550   -0.5880 ha        1 QIG      0.152000
     34 HN11        3.5300   -0.1520   -6.7230 hn        1 QIG      0.424800
     35 H13         1.7880    2.1760   -4.5380 ha        1 QIG      0.155000
     36 H14        -0.6540    2.5700   -4.6220 ha        1 QIG      0.143000
     37 HN16       -3.0780    1.3100   -5.7800 hn        1 QIG      0.315700
     38 H19        -1.4860   -1.5740   -8.1930 h4        1 QIG      0.054800
     39 H21         1.4330   -1.1560   -7.3410 ha        1 QIG      0.137000
     40 H23         5.5300   -0.0770   -7.0530 ha        1 QIG      0.131000
     41 H24         7.9440   -0.5510   -7.0660 ha        1 QIG      0.138000
     42 H25         9.1880   -0.8830   -4.9420 ha        1 QIG      0.139000
     43 H26         8.0110   -0.7340   -2.7490 ha        1 QIG      0.156000
@<TRIPOS>BOND
     1    1    2 1   
     2    1   28 1   
     3    1   29 1   
     4    1   30 1   
     5    2    3 ar  
     6    2    7 ar  
     7    3    4 ar  
     8    3   31 1   
     9    4    5 ar  
    10    4   32 1   
    11    5    6 ar  
    12    5   33 1   
    13    6    7 ar  
    14    6    8 1   
    15    8    9 ar  
    16    8   27 ar  
    17    9   10 ar  
    18   10   11 1   
    19   10   21 ar  
    20   11   12 1   
    21   11   34 1   
    22   12   13 ar  
    23   12   20 ar  
    24   13   14 ar  
    25   13   35 1   
    26   14   15 ar  
    27   14   36 1   
    28   15   16 1   
    29   15   19 ar  
    30   16   17 1   
    31   16   37 1   
    32   17   18 2   
    33   18   19 1   
    34   18   38 1   
    35   19   20 ar  
    36   20   39 1   
    37   21   22 ar  
    38   21   26 ar  
    39   22   23 ar  
    40   22   40 1   
    41   23   24 ar  
    42   23   41 1   
    43   24   25 ar  
    44   24   42 1   
    45   25   26 ar  
    46   25   43 1   
    47   26   27 ar  
@<TRIPOS>SUBSTRUCTURE
     1 QIG         1 TEMP              0 ****  ****    0 ROOT
