@<TRIPOS>MOLECULE
QIG
   43    47     1     0     0
SMALL
bcc


@<TRIPOS>ATOM
      1 C1         -0.2690    4.9020   -1.9290 c3        1 QIG     -0.148400
      2 C2         -1.0200    4.1630   -0.8690 ca        1 QIG      0.412600
      3 C3         -1.6380    4.8960    0.1700 ca        1 QIG     -0.243300
      4 C4         -2.3480    4.2120    1.1550 ca        1 QIG     -0.095000
      5 C5         -2.4280    2.8210    1.0920 ca        1 QIG     -0.219300
      6 C6         -1.7760    2.1700    0.0250 cp        1 QIG      0.377300
      7 N7         -1.0860    2.8100   -0.9440 nb        1 QIG     -0.637000
      8 C8         -1.8530    0.6680   -0.0420 cp        1 QIG      0.634000
      9 N9         -0.6590    0.0020    0.1740 nb        1 QIG     -0.737000
     10 C10        -0.6960   -1.3470    0.1300 ca        1 QIG      0.689200
     11 N11         0.4570   -2.1000    0.4010 nh        1 QIG     -0.716300
     12 C12         1.7350   -1.5040    0.5540 ca        1 QIG      0.102600
     13 C13         1.9500   -0.5370    1.5760 ca        1 QIG     -0.071000
     14 C14         3.2000    0.0090    1.8130 ca        1 QIG     -0.128000
     15 C15         4.2660   -0.4190    1.0140 ca        1 QIG     -0.062200
     16 N16         5.6460   -0.1320    1.0170 na        1 QIG     -0.016100
     17 N18         6.2750   -0.7750    0.0200 nc        1 QIG     -0.512100
     18 C19         5.3920   -1.5750   -0.6050 cd        1 QIG      0.348800
     19 C20         4.0640   -1.4030   -0.0240 ca        1 QIG     -0.199900
     20 C21         2.8030   -1.9360   -0.2520 ca        1 QIG     -0.102000
     21 C22        -1.9450   -2.0630   -0.1400 ca        1 QIG     -0.285600
     22 C23        -2.0670   -3.4700   -0.1860 ca        1 QIG     -0.093000
     23 C24        -3.2830   -4.0600   -0.4500 ca        1 QIG     -0.140000
     24 C25        -4.4280   -3.2660   -0.6750 ca        1 QIG     -0.105000
     25 C26        -4.3520   -1.8970   -0.6280 ca        1 QIG     -0.177300
     26 C27        -3.1030   -1.2520   -0.3530 ca        1 QIG      0.436600
     27 N28        -3.0510    0.1280   -0.3010 nb        1 QIG     -0.702000
     28 H1          0.7800    4.5240   -2.0050 hc        1 QIG      0.054033
     29 H1A        -0.7640    4.7610   -2.9230 hc        1 QIG      0.054033
     30 H1B        -0.2420    5.9930   -1.6940 hc        1 QIG      0.054033
     31 H3         -1.5580    5.9910    0.1940 ha        1 QIG      0.142000
     32 H4         -2.8420    4.7610    1.9700 ha        1 QIG      0.139000
     33 H5         -2.9850    2.2440    1.8410 ha        1 QIG      0.152000
     34 HN11        0.4800   -2.9800   -0.0730 hn        1 QIG      0.424800
     35 H13         1.1010   -0.2060    2.1960 ha        1 QIG      0.155000
     36 H14         3.3460    0.7560    2.6060 ha        1 QIG      0.143000
     37 HN16        6.0540    0.6920    1.3950 hn        1 QIG      0.315700
     38 H19         5.6740   -2.2390   -1.4220 h4        1 QIG      0.054800
     39 H21         2.6610   -2.6840   -1.0460 ha        1 QIG      0.137000
     40 H23        -1.1980   -4.1170    0.0020 ha        1 QIG      0.131000
     41 H24        -3.3740   -5.1560   -0.4840 ha        1 QIG      0.138000
     42 H25        -5.3880   -3.7610   -0.8880 ha        1 QIG      0.139000
     43 H26        -5.2440   -1.2740   -0.8000 ha        1 QIG      0.156000
@<TRIPOS>BOND
     1    1    2 1   
     2    1   28 1   
     3    1   29 1   
     4    1   30 1   
     5    2    3 ar  
     6    2    7 ar  
     7    3    4 ar  
     8    3   31 1   
     9    4    5 ar  
    10    4   32 1   
    11    5    6 ar  
    12    5   33 1   
    13    6    7 ar  
    14    6    8 1   
    15    8    9 ar  
    16    8   27 ar  
    17    9   10 ar  
    18   10   11 1   
    19   10   21 ar  
    20   11   12 1   
    21   11   34 1   
    22   12   13 ar  
    23   12   20 ar  
    24   13   14 ar  
    25   13   35 1   
    26   14   15 ar  
    27   14   36 1   
    28   15   16 1   
    29   15   19 ar  
    30   16   17 1   
    31   16   37 1   
    32   17   18 2   
    33   18   19 1   
    34   18   38 1   
    35   19   20 ar  
    36   20   39 1   
    37   21   22 ar  
    38   21   26 ar  
    39   22   23 ar  
    40   22   40 1   
    41   23   24 ar  
    42   23   41 1   
    43   24   25 ar  
    44   24   42 1   
    45   25   26 ar  
    46   25   43 1   
    47   26   27 ar  
@<TRIPOS>SUBSTRUCTURE
     1 QIG         1 TEMP              0 ****  ****    0 ROOT
