@<TRIPOS>MOLECULE
QIG
   44    48     1     0     0
SMALL
bcc


@<TRIPOS>ATOM
      1 C1          0.4460    0.3090    1.2350 c3        1 QIG     -0.155400
      2 C2          1.8920    0.4430    0.8800 ca        1 QIG      0.420600
      3 C3          2.8150    0.6900    1.9290 ca        1 QIG     -0.216300
      4 C4          4.1680    0.8010    1.6320 ca        1 QIG     -0.089000
      5 C5          4.5870    0.6660    0.3030 ca        1 QIG     -0.197300
      6 C6          3.6040    0.4270   -0.6730 cp        1 QIG      0.335300
      7 N7          2.2780    0.3150   -0.4080 nb        1 QIG     -0.648000
      8 C8          4.0370    0.2710   -2.1020 cp        1 QIG      0.638000
      9 N9          3.3210    1.0050   -3.0470 nb        1 QIG     -0.654000
     10 C10         3.6810    0.8490   -4.3210 ca        1 QIG      0.529200
     11 N11         2.9080    1.6350   -5.3230 n4        1 QIG     -0.615100
     12 C12         1.7380    0.9050   -5.8280 ca        1 QIG     -0.098400
     13 C13         0.6500    0.6690   -4.9430 ca        1 QIG     -0.073000
     14 C14        -0.4840    0.0090   -5.3730 ca        1 QIG     -0.108000
     15 C15        -0.5280   -0.4240   -6.7100 ca        1 QIG     -0.012200
     16 N16        -1.4840   -1.1000   -7.4640 na        1 QIG      0.003900
     17 N18        -1.0760   -1.3000   -8.7260 nc        1 QIG     -0.462100
     18 C19         0.1540   -0.7730   -8.8710 cd        1 QIG      0.366800
     19 C20         0.5890   -0.1830   -7.6100 ca        1 QIG     -0.220900
     20 C21         1.7210    0.4780   -7.1620 ca        1 QIG     -0.019000
     21 C22         4.7520   -0.0080   -4.7570 ca        1 QIG     -0.241600
     22 C23         5.1640   -0.2080   -6.0950 ca        1 QIG     -0.139000
     23 C24         6.2170   -1.0450   -6.3800 ca        1 QIG     -0.076000
     24 C25         6.9020   -1.7200   -5.3400 ca        1 QIG     -0.093000
     25 C26         6.5290   -1.5590   -4.0300 ca        1 QIG     -0.147300
     26 C27         5.4350   -0.6950   -3.6920 ca        1 QIG      0.433600
     27 N28         5.0610   -0.5530   -2.3760 nb        1 QIG     -0.624000
     28 H1          0.1450    1.1620    1.8930 hc        1 QIG      0.062367
     29 H1A        -0.2150    0.3010    0.3350 hc        1 QIG      0.062367
     30 H1B         0.2940   -0.6470    1.7950 hc        1 QIG      0.062367
     31 H3          2.4500    0.7880    2.9620 ha        1 QIG      0.160000
     32 H4          4.9060    0.9890    2.4270 ha        1 QIG      0.157000
     33 H5          5.6500    0.7380    0.0370 ha        1 QIG      0.160000
     34 HN11        3.5380    1.8660   -6.1000 hn        1 QIG      0.467300
     35 H13         0.7030    1.0090   -3.8930 ha        1 QIG      0.179000
     36 H14        -1.3250   -0.1720   -4.6860 ha        1 QIG      0.174000
     37 HN16       -2.3770   -1.4240   -7.1630 hn        1 QIG      0.350700
     38 H19         0.7020   -0.8090   -9.8160 h4        1 QIG      0.076800
     39 H21         2.5630    0.6530   -7.8520 ha        1 QIG      0.152000
     40 H23         4.6380    0.2870   -6.9250 ha        1 QIG      0.123000
     41 H24         6.5400   -1.2030   -7.4220 ha        1 QIG      0.162000
     42 H25         7.7440   -2.3840   -5.6000 ha        1 QIG      0.168000
     43 H26         7.0580   -2.0890   -3.2180 ha        1 QIG      0.181000
     44 H112        2.5720    2.5100   -4.8900 hn        1 QIG      0.467300
@<TRIPOS>BOND
     1    1    2 1   
     2    1   28 1   
     3    1   29 1   
     4    1   30 1   
     5    2    3 ar  
     6    2    7 ar  
     7    3    4 ar  
     8    3   31 1   
     9    4    5 ar  
    10    4   32 1   
    11    5    6 ar  
    12    5   33 1   
    13    6    7 ar  
    14    6    8 1   
    15    8    9 ar  
    16    8   27 ar  
    17    9   10 ar  
    18   10   11 1   
    19   10   21 ar  
    20   11   12 1   
    21   11   34 1   
    22   11   44 1   
    23   12   13 ar  
    24   12   20 ar  
    25   13   14 ar  
    26   13   35 1   
    27   14   15 ar  
    28   14   36 1   
    29   15   16 1   
    30   15   19 ar  
    31   16   17 1   
    32   16   37 1   
    33   17   18 2   
    34   18   19 1   
    35   18   38 1   
    36   19   20 ar  
    37   20   39 1   
    38   21   22 ar  
    39   21   26 ar  
    40   22   23 ar  
    41   22   40 1   
    42   23   24 ar  
    43   23   41 1   
    44   24   25 ar  
    45   24   42 1   
    46   25   26 ar  
    47   25   43 1   
    48   26   27 ar  
@<TRIPOS>SUBSTRUCTURE
     1 QIG         1 TEMP              0 ****  ****    0 ROOT
