@<TRIPOS>MOLECULE
QIG
   43    47     1     0     0
SMALL
bcc


@<TRIPOS>ATOM
      1 C1          0.8790   -1.7490    0.8040 c3        1 QIG     -0.148400
      2 C2          1.8740   -0.7050    0.4120 ca        1 QIG      0.412600
      3 C3          2.1260    0.3670    1.2980 ca        1 QIG     -0.243300
      4 C4          3.0620    1.3370    0.9420 ca        1 QIG     -0.095000
      5 C5          3.7230    1.2260   -0.2820 ca        1 QIG     -0.219300
      6 C6          3.4040    0.1280   -1.1070 cp        1 QIG      0.377300
      7 N7          2.5060   -0.8260   -0.7820 nb        1 QIG     -0.637000
      8 C8          4.1090    0.0100   -2.4310 cp        1 QIG      0.634000
      9 N9          3.3100    0.1870   -3.5480 nb        1 QIG     -0.737000
     10 C10         3.9130    0.0960   -4.7520 ca        1 QIG      0.689200
     11 N11         3.1890    0.3260   -5.9310 nu        1 QIG     -0.716300
     12 C12         1.7800    0.4850   -5.9380 ca        1 QIG      0.102600
     13 C13         1.1790    1.5370   -5.1910 ca        1 QIG     -0.071000
     14 C14        -0.1840    1.7780   -5.2340 ca        1 QIG     -0.128000
     15 C15        -0.9710    0.9510   -6.0430 ca        1 QIG     -0.062200
     16 N16        -2.3430    0.9470   -6.3660 na        1 QIG     -0.016100
     17 N18        -2.6450   -0.0790   -7.1780 nc        1 QIG     -0.512100
     18 C19        -1.5090   -0.7210   -7.5050 cd        1 QIG      0.348800
     19 C20        -0.3760   -0.1180   -6.8090 ca        1 QIG     -0.199900
     20 C21         0.9920   -0.3490   -6.7500 ca        1 QIG     -0.102000
     21 C22         5.3480   -0.1830   -4.8610 ca        1 QIG     -0.285600
     22 C23         6.0540   -0.2770   -6.0820 ca        1 QIG     -0.093000
     23 C24         7.4030   -0.5460   -6.0930 ca        1 QIG     -0.140000
     24 C25         8.1050   -0.7300   -4.8810 ca        1 QIG     -0.105000
     25 C26         7.4560   -0.6350   -3.6750 ca        1 QIG     -0.177300
     26 C27         6.0540   -0.3530   -3.6300 ca        1 QIG      0.436600
     27 N28         5.4230   -0.2530   -2.4040 nb        1 QIG     -0.702000
     28 H1          0.0900   -1.8570    0.0180 hc        1 QIG      0.054033
     29 H1A         0.3890   -1.4730    1.7680 hc        1 QIG      0.054033
     30 H1B         1.3860   -2.7390    0.9280 hc        1 QIG      0.054033
     31 H3          1.5910    0.4280    2.2550 ha        1 QIG      0.142000
     32 H4          3.2800    2.1770    1.6170 ha        1 QIG      0.139000
     33 H5          4.4730    1.9620   -0.5970 ha        1 QIG      0.152000
     34 HN11        3.5380   -0.1790   -6.7200 hn        1 QIG      0.424800
     35 H13         1.8100    2.1790   -4.5550 ha        1 QIG      0.155000
     36 H14        -0.6280    2.5950   -4.6490 ha        1 QIG      0.143000
     37 HN16       -3.0600    1.3490   -5.8070 hn        1 QIG      0.315700
     38 H19        -1.4860   -1.5650   -8.1950 h4        1 QIG      0.054800
     39 H21         1.4330   -1.1680   -7.3380 ha        1 QIG      0.138000
     40 H23         5.5400   -0.1230   -7.0430 ha        1 QIG      0.131000
     41 H24         7.9490   -0.6180   -7.0450 ha        1 QIG      0.138000
     42 H25         9.1840   -0.9480   -4.9150 ha        1 QIG      0.139000
     43 H26         8.0010   -0.7740   -2.7270 ha        1 QIG      0.156000
@<TRIPOS>BOND
     1    1    2 1   
     2    1   28 1   
     3    1   29 1   
     4    1   30 1   
     5    2    3 ar  
     6    2    7 ar  
     7    3    4 ar  
     8    3   31 1   
     9    4    5 ar  
    10    4   32 1   
    11    5    6 ar  
    12    5   33 1   
    13    6    7 ar  
    14    6    8 1   
    15    8    9 ar  
    16    8   27 ar  
    17    9   10 ar  
    18   10   11 1   
    19   10   21 ar  
    20   11   12 1   
    21   11   34 1   
    22   12   13 ar  
    23   12   20 ar  
    24   13   14 ar  
    25   13   35 1   
    26   14   15 ar  
    27   14   36 1   
    28   15   16 1   
    29   15   19 ar  
    30   16   17 1   
    31   16   37 1   
    32   17   18 2   
    33   18   19 1   
    34   18   38 1   
    35   19   20 ar  
    36   20   39 1   
    37   21   22 ar  
    38   21   26 ar  
    39   22   23 ar  
    40   22   40 1   
    41   23   24 ar  
    42   23   41 1   
    43   24   25 ar  
    44   24   42 1   
    45   25   26 ar  
    46   25   43 1   
    47   26   27 ar  
@<TRIPOS>SUBSTRUCTURE
     1 QIG         1 TEMP              0 ****  ****    0 ROOT
