@<TRIPOS>MOLECULE
QIG
   43    35     1     0     0
SMALL
bcc


@<TRIPOS>ATOM
      1 C1         -0.8760    1.4300    5.1190 c3        1 QIG     -0.172000
      2 C2         -0.7040    0.1120    4.3940 c2        1 QIG     -0.010000
      3 C3         -1.2710   -1.0420    4.9120 c2        1 QIG     -0.177000
      4 C4         -1.1660   -2.2190    4.2300 c1        1 QIG     -0.094000
      5 C5         -0.5040   -2.2590    3.0380 c1        1 QIG     -0.153000
      6 C6          0.0630   -1.1030    2.5210 c1        1 QIG      0.050000
      7 N7         -0.0430    0.0710    3.2040 n1        1 QIG     -0.115000
      8 C8          0.7030   -1.1350    1.2930 c1        1 QIG      0.093000
      9 N9          0.0670   -1.1020    0.0800 n1        1 QIG     -0.225000
     10 C10         0.7850   -1.0720   -1.0580 c1        1 QIG      0.144000
     11 N11        -0.0030   -0.9060   -2.2260 n2        1 QIG     -0.226000
     12 C12        -0.7150    0.3040   -2.4350 c2        1 QIG     -0.024000
     13 C13        -0.1550    1.4320   -3.0080 c2        1 QIG     -0.116000
     14 C14        -0.9660    2.4820   -3.4060 c1        1 QIG     -0.126000
     15 C15        -2.3600    2.4020   -3.2280 c1        1 QIG     -0.009000
     16 N16        -3.3730    3.2760   -3.5170 n1        1 QIG     -0.196000
     17 N18        -4.5590    2.6980   -3.1260 n2        1 QIG     -0.038000
     18 C19        -4.2810    1.4810   -2.6030 c1        1 QIG     -0.154000
     19 C20        -2.9120    1.2920   -2.6640 c1        1 QIG     -0.127000
     20 C21        -2.0870    0.2250   -2.2590 c1        1 QIG     -0.060000
     21 C22         2.1700   -1.0770   -1.0030 c2        1 QIG     -0.128000
     22 C23         2.9270   -1.0480   -2.1950 c2        1 QIG     -0.080000
     23 C24         4.3110   -1.0540   -2.1370 c1        1 QIG     -0.142000
     24 C25         4.9530   -1.0880   -0.9110 c1        1 QIG     -0.109000
     25 C26         4.2110   -1.1160    0.2590 c1        1 QIG     -0.109000
     26 C27         2.8000   -1.1110    0.2010 c1        1 QIG      0.028000
     27 N28         2.0680   -1.1400    1.3500 n2        1 QIG     -0.144000
     28 H1         -0.0980    1.5910    5.6930 hc        1 QIG      0.093333
     29 H1A        -0.9540    2.1550    4.4640 hc        1 QIG      0.093333
     30 H1B        -1.6870    1.3970    5.6680 hc        1 QIG      0.093333
     31 H3         -1.7450   -1.0130    5.7650 ha        1 QIG      0.142000
     32 H4         -1.5650   -3.0320    4.5940 ha        1 QIG      0.139000
     33 H5         -0.4280   -3.1000    2.5480 ha        1 QIG      0.152000
     34 HN11       -0.0520   -1.5760   -2.8430 hn        1 QIG      0.213000
     35 H13         0.8090    1.4790   -3.1500 ha        1 QIG      0.149000
     36 H14        -0.5700    3.2780   -3.8110 ha        1 QIG      0.145000
     37 HN16       -3.2780    4.0980   -3.9000 DU        1 QIG      0.231000
     38 H19        -4.9320    0.8480   -2.2450 DU        1 QIG      0.231000
     39 H21        -2.4810   -0.5650   -1.8420 ha        1 QIG      0.153000
     40 H23         2.4740   -1.0230   -3.0590 ha        1 QIG      0.152000
     41 H24         4.8340   -1.0330   -2.9610 ha        1 QIG      0.138000
     42 H25         5.9280   -1.0920   -0.8700 ha        1 QIG      0.147000
     43 H26         4.6640   -1.1410    1.1240 ha        1 QIG      0.147000
@<TRIPOS>BOND
     1    1    2 1   
     2    1   28 1   
     3    1   29 1   
     4    1   30 1   
     5    2    3 1   
     6    2    7 1   
     7    3    4 1   
     8    3   31 1   
     9    4   32 1   
    10    5    6 1   
    11    5   33 1   
    12    8   27 1   
    13    9   10 1   
    14   10   21 1   
    15   11   12 1   
    16   11   34 1   
    17   12   13 1   
    18   12   20 1   
    19   13   14 1   
    20   13   35 1   
    21   14   36 1   
    22   15   19 1   
    23   16   17 1   
    24   17   18 1   
    25   18   19 1   
    26   20   39 1   
    27   21   22 1   
    28   21   26 1   
    29   22   23 1   
    30   22   40 1   
    31   23   41 1   
    32   24   25 1   
    33   24   42 1   
    34   25   43 1   
    35   26   27 1   
@<TRIPOS>SUBSTRUCTURE
     1 QIG         1 TEMP              0 ****  ****    0 ROOT
