@<TRIPOS>MOLECULE
QIL
   23    22     1     0     0
SMALL
bcc


@<TRIPOS>ATOM
      1 C           0.2050   -1.5580   -0.0530 c         1 QIL      0.913600
      2 N           1.4810    0.5450   -0.3980 n         1 QIL     -0.533900
      3 O           0.6780   -1.9940   -1.1410 o         1 QIL     -0.833800
      4 CA          0.3140   -0.0170    0.2450 c3        1 QIL     -0.037300
      5 CB         -1.0000    0.6910   -0.1610 c3        1 QIL     -0.056700
      6 CG1        -2.1500    0.0850    0.6320 c3        1 QIL     -0.079400
      7 CG2        -1.2410    0.5830   -1.6510 c3        1 QIL     -0.090100
      8 O1          1.8140    2.3960    0.9570 o         1 QIL     -0.670100
      9 OXT        -0.3490   -2.2650    0.8290 o         1 QIL     -0.833800
     10 H           1.8280   -0.0020   -1.1590 hn        1 QIL      0.330500
     11 HA          0.4350    0.1110    1.3610 h1        1 QIL      0.058700
     12 HB         -0.9100    1.7800    0.1160 hc        1 QIL      0.030700
     13 HD11       -3.1040    1.9690    1.1370 hc        1 QIL      0.015700
     14 HD12       -3.7560    1.1740   -0.3500 hc        1 QIL      0.015700
     15 HD13       -4.1680    0.5110    1.2820 hc        1 QIL      0.015700
     16 HG12       -2.4150   -0.9100    0.1850 hc        1 QIL      0.061700
     17 HG13       -1.8020   -0.1250    1.6790 hc        1 QIL      0.061700
     18 HG21       -2.2840    0.8920   -1.9060 hc        1 QIL      0.028700
     19 HG22       -0.5360    1.2430   -2.2110 hc        1 QIL      0.028700
     20 HG23       -1.0800   -0.4720   -1.9880 hc        1 QIL      0.028700
     21 HN          3.0530    1.8800   -0.6090 h5        1 QIL     -0.016800
     22 CD1        -3.3580    0.9840    0.6760 c3        1 QIL     -0.085100
     23 CN          2.1440    1.6550    0.0040 c         1 QIL      0.644900
@<TRIPOS>BOND
     1    1    3 1   
     2    1    4 1   
     3    1    9 1   
     4    2    4 1   
     5    2   10 1   
     6    2   23 1   
     7    4    5 1   
     8    4   11 1   
     9    5    6 1   
    10    5    7 1   
    11    5   12 1   
    12    6   16 1   
    13    6   17 1   
    14    6   22 1   
    15    7   18 1   
    16    7   19 1   
    17    7   20 1   
    18    8   23 2   
    19   13   22 1   
    20   14   22 1   
    21   15   22 1   
    22   21   23 1   
@<TRIPOS>SUBSTRUCTURE
     1 QIL         1 TEMP              0 ****  ****    0 ROOT
