@<TRIPOS>MOLECULE
QIN
   71    73     1     0     0
SMALL
bcc


@<TRIPOS>ATOM
      1 C15        -1.3160    1.3220    1.7930 ca        1 QIN      0.659200
      2 C16        -2.1680    1.2330    0.6510 ca        1 QIN     -0.280300
      3 C17        -2.1470    2.2720   -0.2740 ca        1 QIN     -0.048600
      4 C18        -1.3180    3.3780   -0.0820 ca        1 QIN     -0.262300
      5 C19        -0.4880    3.3990    1.0720 ca        1 QIN      0.689200
      6 N3         -0.4870    2.3870    1.9890 nb        1 QIN     -0.791000
      7 N4          0.3800    4.4770    1.3430 nh        1 QIN     -0.763200
      8 S1          1.1730    4.6380    2.7980 s6        1 QIN      1.460900
      9 O1          0.2900    4.5770    3.8840 o         1 QIN     -0.645300
     10 C29         0.5100    5.4810    0.3230 c3        1 QIN      0.188100
     11 C34        -3.0200    2.2530   -1.4910 c         1 QIN      0.665700
     12 N35        -3.1320    1.0560   -2.1610 n         1 QIN     -0.559900
     13 C36        -3.8590    0.9460   -3.4090 c3        1 QIN      0.115700
     14 C28        -5.4090    0.8610   -3.1730 c3        1 QIN      0.156500
     15 C56        -3.3760   -0.2420   -4.2560 c3        1 QIN     -0.027100
     16 O4         -3.6170    3.2800   -1.8750 o         1 QIN     -0.602100
     17 C22         2.2340    3.3140    2.8530 c3        1 QIN     -0.355300
     18 O2          1.9620    5.8090    2.7320 o         1 QIN     -0.645300
     19 C61        -1.4700    0.8950   -5.5380 cc        1 QIN     -0.146000
     20 C62        -1.9570   -0.1150   -4.6410 cc        1 QIN     -0.113300
     21 C63        -0.9350   -0.9450   -4.2230 cd        1 QIN     -0.180100
     22 S2          0.5300   -0.5090   -4.8940 ss        1 QIN      0.019200
     23 C64        -0.1150    0.7760   -5.7480 cd        1 QIN     -0.167100
     24 C8         -5.8010   -0.4990   -2.5830 c3        1 QIN     -0.080400
     25 N1         -6.1120    1.1450   -4.4150 n3        1 QIN     -0.917800
     26 C10        -7.1840   -0.4690   -1.9660 c3        1 QIN     -0.083400
     27 C11        -7.4940   -1.7730   -1.2610 c3        1 QIN     -0.079400
     28 C13        -8.8750   -1.7600   -0.6570 c3        1 QIN     -0.093100
     29 N2         -1.2430    0.2330    2.7020 nh        1 QIN     -0.806900
     30 C5         -2.4930   -0.2570    3.2490 c3        1 QIN      0.200800
     31 C1         -3.8490   -0.0910    5.4520 cx        1 QIN     -0.120400
     32 C2         -2.5150    0.5430    5.7310 cx        1 QIN     -0.109700
     33 C3         -3.1020    0.5890    4.3390 cx        1 QIN     -0.172700
     34 H16        -2.8240    0.3630    0.5130 ha        1 QIN      0.154000
     35 H18        -1.3400    4.2060   -0.8050 ha        1 QIN      0.171000
     36 H291       -0.4620    6.0260    0.1740 h1        1 QIN      0.060367
     37 H292        0.8140    5.0170   -0.6540 h1        1 QIN      0.060367
     38 H293        1.2960    6.2260    0.6270 h1        1 QIN      0.060367
     39 HN35       -2.5810    0.2810   -1.8800 hn        1 QIN      0.318500
     40 H36        -3.6590    1.8990   -3.9920 h1        1 QIN      0.071700
     41 H28        -5.6510    1.6490   -2.3900 h1        1 QIN      0.035700
     42 H561       -3.5350   -1.2040   -3.6980 hc        1 QIN      0.070200
     43 H562       -4.0110   -0.2800   -5.1830 hc        1 QIN      0.070200
     44 H221        1.8550    2.5100    3.5360 h1        1 QIN      0.121367
     45 H222        2.4360    2.8130    1.8760 h1        1 QIN      0.121367
     46 H223        3.2330    3.6290    3.2500 h1        1 QIN      0.121367
     47 H61        -2.1180    1.6520   -5.9850 ha        1 QIN      0.158000
     48 H63        -1.0460   -1.7930   -3.5490 h4        1 QIN      0.168000
     49 H64         0.4860    1.4210   -6.3860 h4        1 QIN      0.172000
     50 H81        -5.7610   -1.2940   -3.3740 hc        1 QIN      0.047700
     51 H82        -5.0550   -0.7750   -1.7920 hc        1 QIN      0.047700
     52 HN11       -5.9710    2.1020   -4.6760 hn        1 QIN      0.354800
     53 HN12       -7.0900    0.9720   -4.3040 hn        1 QIN      0.354800
     54 H101       -7.9570   -0.2880   -2.7580 hc        1 QIN      0.040700
     55 H102       -7.2550    0.3780   -1.2330 hc        1 QIN      0.040700
     56 H111       -6.7330   -1.9540   -0.4560 hc        1 QIN      0.038200
     57 H112       -7.4100   -2.6210   -1.9910 hc        1 QIN      0.038200
     58 H131       -8.9720   -0.9330    0.0870 hc        1 QIN      0.033700
     59 H132       -9.6490   -1.6110   -1.4480 hc        1 QIN      0.033700
     60 H133       -9.0810   -2.7270   -0.1400 hc        1 QIN      0.033700
     61 HN2        -0.5720    0.3890    3.4350 hn        1 QIN      0.401800
     62 H51        -3.2470   -0.3730    2.4210 h1        1 QIN      0.060200
     63 H52        -2.2650   -1.2870    3.6540 h1        1 QIN      0.060200
     64 H11        -3.9280   -1.1930    5.4520 hc        1 QIN      0.072700
     65 H12        -4.7640    0.3890    5.8440 hc        1 QIN      0.072700
     66 H2         -1.6510   -0.1330    5.8990 hc        1 QIN      0.074700
     67 H3         -3.4820    1.5630    3.9720 hc        1 QIN      0.093700
     68 C4         -2.4350    1.7940    6.5320 c3        1 QIN     -0.074100
     69 H41        -2.3520    1.5500    7.6200 hc        1 QIN      0.044700
     70 H42        -1.5380    2.3900    6.2310 hc        1 QIN      0.044700
     71 H43        -3.3420    2.4290    6.3830 hc        1 QIN      0.044700
@<TRIPOS>BOND
     1    1    2 ar  
     2    1    6 ar  
     3    1   29 1   
     4    2    3 ar  
     5    2   34 1   
     6    3    4 ar  
     7    3   11 1   
     8    4    5 ar  
     9    4   35 1   
    10    5    6 ar  
    11    5    7 1   
    12    7    8 1   
    13    7   10 1   
    14    8    9 2   
    15    8   17 1   
    16    8   18 2   
    17   10   36 1   
    18   10   37 1   
    19   10   38 1   
    20   11   12 1   
    21   11   16 2   
    22   12   13 1   
    23   12   39 1   
    24   13   14 1   
    25   13   15 1   
    26   13   40 1   
    27   14   24 1   
    28   14   25 1   
    29   14   41 1   
    30   15   20 1   
    31   15   42 1   
    32   15   43 1   
    33   17   44 1   
    34   17   45 1   
    35   17   46 1   
    36   19   20 1   
    37   19   23 2   
    38   19   47 1   
    39   20   21 2   
    40   21   22 1   
    41   21   48 1   
    42   22   23 1   
    43   23   49 1   
    44   24   26 1   
    45   24   50 1   
    46   24   51 1   
    47   25   52 1   
    48   25   53 1   
    49   26   27 1   
    50   26   54 1   
    51   26   55 1   
    52   27   28 1   
    53   27   56 1   
    54   27   57 1   
    55   28   58 1   
    56   28   59 1   
    57   28   60 1   
    58   29   30 1   
    59   29   61 1   
    60   30   33 1   
    61   30   62 1   
    62   30   63 1   
    63   31   32 1   
    64   31   33 1   
    65   31   64 1   
    66   31   65 1   
    67   32   33 1   
    68   32   66 1   
    69   32   68 1   
    70   33   67 1   
    71   68   69 1   
    72   68   70 1   
    73   68   71 1   
@<TRIPOS>SUBSTRUCTURE
     1 QIN         1 TEMP              0 ****  ****    0 ROOT
