@<TRIPOS>MOLECULE
QIN
   75    72     1     0     0
SMALL
bcc


@<TRIPOS>ATOM
      1 C15      -393.4380   90.0170  484.2140 c2        1 QIN      0.280000
      2 C16      -393.2400   91.4100  484.6150 c2        1 QIN     -0.255000
      3 C17      -392.0900   91.7370  485.2470 c2        1 QIN      0.045000
      4 C18      -391.0560   90.7810  485.5410 c2        1 QIN     -1.185000
      5 C19      -391.3220   89.4200  485.0760 c2        1 QIN      0.350000
      6 N3       -392.4810   89.0700  484.4420 n2        1 QIN     -0.301000
      7 N4       -390.4040   88.4300  485.3030 nh        1 QIN     -0.294000
      8 S1       -389.8020   91.2880  486.3030 s6        1 QIN      2.886000
      9 O1       -389.3440   92.6920  485.6170 oh        1 QIN     -0.736000
     10 C29      -390.5970   87.0660  484.8880 c3        1 QIN     -0.083000
     11 C34      -387.1510   92.8030  483.8030 c1        1 QIN      0.139000
     12 N35       513.5890 -912.6330   57.2430 n3        1 QIN     -0.169000
     13 C36       514.5370 -912.4880   58.1270 c2        1 QIN      0.160000
     14 C28       638.1480  648.8920 -164.0750 c2        1 QIN     -0.623000
     15 C56       514.9530 -913.5380   59.1000 c3        1 QIN     -0.122000
     16 O4       -386.2420   93.0030  483.1030 o         1 QIN     -0.101000
     17 C22      -390.2810   91.8510  487.7830 c3        1 QIN     -0.951000
     18 O2       -388.6670   90.4830  486.3160 o         1 QIN     -0.893000
     19 C61       512.9200 -915.0970   59.1360 c2        1 QIN     -0.180000
     20 C62       514.3090 -914.8450   58.8980 c2        1 QIN     -0.210000
     21 C63       514.9700 -916.0060   58.5170 c2        1 QIN     -0.446000
     22 S2        513.9500 -917.3010   58.4680 ss        1 QIN      0.753000
     23 C64       512.6140 -916.4260   58.9190 c2        1 QIN     -0.450000
     24 C8        637.4540  648.4660 -162.8850 c3        1 QIN     -0.027000
     25 N1        638.2830  648.0730 -165.2310 n4        1 QIN      0.083000
     26 C10       636.0460  649.0980 -162.9280 c3        1 QIN     -0.142000
     27 C11       635.3080  648.7390 -161.5890 c3        1 QIN     -0.233000
     28 C13       634.0640  649.4180 -161.7100 c2        1 QIN      0.097000
     29 N2       -394.5910   89.6540  483.5970 nh        1 QIN     -0.311000
     30 C5       -636.7230   35.8920 -795.8040 c2        1 QIN     -0.212000
     31 C1       -638.7690   34.2230 -795.3520 c3        1 QIN     -0.185000
     32 C2       -640.1580   34.8150 -795.5480 c3        1 QIN     -0.164000
     33 C3       -637.6990   35.0970 -795.5920 c1        1 QIN      0.252000
     34 H16      -394.0160   92.1580  484.3960 ha        1 QIN      0.174000
     35 H18      -391.9100   92.7870  485.5490 ha        1 QIN      0.154000
     36 H291     -390.6730   86.9930  483.7690 h1        1 QIN      0.108333
     37 H292     -391.5360   86.6500  485.3410 h1        1 QIN      0.108333
     38 H293     -389.7170   86.4640  485.2410 h1        1 QIN      0.108333
     39 HN35     -388.5970   92.6870  484.9710 ho        1 QIN      0.347000
     40 H36       513.3340 -911.9020   56.6040 hn        1 QIN      0.287000
     41 H28       515.0810 -911.5120   58.1760 h4        1 QIN      0.202000
     42 H561      516.0780 -913.6340   59.0360 hc        1 QIN      0.171500
     43 H562      514.7200 -913.1410   60.1350 hc        1 QIN      0.171500
     44 H221     -391.2960   91.5050  488.1180 h1        1 QIN      0.208333
     45 H222     -389.5720   91.5420  488.6030 h1        1 QIN      0.208333
     46 H223     -390.3220   92.9770  487.8470 h1        1 QIN      0.208333
     47 H63       516.0370 -916.0730   58.2950 h4        1 QIN      0.189000
     48 H64       511.6220 -916.8660   59.0450 h4        1 QIN      0.198000
     49 H81       638.6230  649.8740 -164.1410 hx        1 QIN      0.179000
     50 H82       637.9770  648.8570 -161.9690 hc        1 QIN      0.095500
     51 HN11      639.2090  648.2220 -165.6440 hn        1 QIN      0.211667
     52 HN12      637.5800  648.3040 -165.9440 hn        1 QIN      0.211667
     53 H101      637.3470  647.3540 -162.7780 hc        1 QIN      0.095500
     54 H102      635.4670  648.6990 -163.7960 hc        1 QIN      0.101500
     55 H111      636.1400  650.2080 -163.0210 hc        1 QIN      0.101500
     56 H112      635.2230  647.6200 -161.5320 hc        1 QIN      0.157500
     57 H131      635.9540  649.1050 -160.7440 hc        1 QIN      0.157500
     58 H132      633.9560  650.4710 -161.4030 ha        1 QIN      0.160500
     59 H133      633.1880  648.9340 -162.1710 ha        1 QIN      0.160500
     60 HN2      -636.2410   36.5220 -795.0170 ha        1 QIN      0.280000
     61 H51      -395.2830   90.3410  483.4140 hn        1 QIN      0.262000
     62 H52      -636.2420   36.0430 -796.8020 ha        1 QIN      0.280000
     63 H11      -640.2530   35.7670 -794.9630 hc        1 QIN      0.124500
     64 H12      -638.6600   33.8130 -794.2890 hc        1 QIN      0.220500
     65 H2       -638.6390   33.2980 -796.0110 hc        1 QIN      0.220500
     66 H3       -639.7480   35.7860 -797.4490 hc        1 QIN      0.097333
     67 C4       -640.4680   35.0600 -797.0010 c3        1 QIN     -0.233000
     68 H41      -641.4980   35.4870 -797.0980 hc        1 QIN      0.097333
     69 H42      -640.4310   34.1100 -797.5880 hc        1 QIN      0.097333
     70 H43      -640.9010   34.0860 -795.1210 hc        1 QIN      0.124500
     71 H411     -389.4880   88.6710  485.6170 hn        1 QIN      0.262000
     72 H352      513.0740 -913.5010   57.1720 hn        1 QIN      0.287000
     73 H13       638.1810  647.0840 -164.9910 hn        1 QIN      0.211667
     74 H22      -394.7540   88.7160  483.3080 hn        1 QIN      0.262000
     75 H61       512.2140 -914.3430   59.4890 ha        1 QIN      0.157000
@<TRIPOS>BOND
     1    1    2 1   
     2    1    6 1   
     3    1   29 1   
     4    2    3 1   
     5    2   34 1   
     6    3    4 1   
     7    3   35 1   
     8    4    5 1   
     9    4    8 1   
    10    5    6 1   
    11    5    7 1   
    12    7   10 1   
    13    7   71 1   
    14    8    9 1   
    15    8   17 1   
    16    8   18 1   
    17    9   39 1   
    18   10   36 1   
    19   10   37 1   
    20   10   38 1   
    21   11   16 1   
    22   12   13 1   
    23   12   40 1   
    24   12   72 1   
    25   13   15 1   
    26   13   41 1   
    27   14   24 1   
    28   14   25 1   
    29   14   49 1   
    30   15   20 1   
    31   15   42 1   
    32   15   43 1   
    33   17   44 1   
    34   17   45 1   
    35   17   46 1   
    36   19   20 1   
    37   19   23 1   
    38   19   75 1   
    39   20   21 1   
    40   21   22 1   
    41   21   47 1   
    42   22   23 1   
    43   23   48 1   
    44   24   26 1   
    45   24   50 1   
    46   24   53 1   
    47   25   51 1   
    48   25   52 1   
    49   25   73 1   
    50   26   27 1   
    51   26   54 1   
    52   26   55 1   
    53   27   28 1   
    54   27   56 1   
    55   27   57 1   
    56   28   58 1   
    57   28   59 1   
    58   29   61 1   
    59   29   74 1   
    60   30   33 1   
    61   30   60 1   
    62   30   62 1   
    63   31   32 1   
    64   31   33 1   
    65   31   64 1   
    66   31   65 1   
    67   32   63 1   
    68   32   67 1   
    69   32   70 1   
    70   66   67 1   
    71   67   68 1   
    72   67   69 1   
@<TRIPOS>SUBSTRUCTURE
     1 QIN         1 TEMP              0 ****  ****    0 ROOT
