@<TRIPOS>MOLECULE
QIX
   73    66     1     0     0
SMALL
bcc


@<TRIPOS>ATOM
      1 C10        -1.5820   -0.3300   -0.7520 c1        1 QIX      0.304000
      2 C13        -2.2270   -1.7940   -2.6760 c3        1 QIX     -0.181000
      3 C20        -4.1050    1.3360   -3.9580 c1        1 QIX     -0.124250
      4 C21        -4.7660    2.3820   -4.5700 c1        1 QIX     -0.124250
      5 C22        -5.5610    3.2510   -3.8070 c1        1 QIX     -0.035500
      6 C24        -6.9690    5.2510   -3.6620 c1        1 QIX     -0.124250
      7 C26        -6.4560    3.9730   -1.6670 c1        1 QIX     -0.116500
      8 C28        -5.0060    1.9940   -1.8270 c1        1 QIX     -0.109000
      9 O54         8.0970    3.0840    2.9530 o         1 QIX     -0.377000
     10 C52         7.9670    2.0940    3.6350 c1        1 QIX      0.273000
     11 N53         9.0960    1.5160    4.2550 n2        1 QIX     -0.426000
     12 C46         6.6160    1.6090    3.9720 c3        1 QIX     -0.055000
     13 N45         5.7150    1.9610    2.9300 n         1 QIX     -0.349000
     14 C43         4.3780    1.4000    2.9040 c2        1 QIX      0.270000
     15 O44         3.9480    0.7860    3.8840 o         1 QIX     -0.379000
     16 C32         3.4270    1.6920    1.6760 c3        1 QIX     -0.056000
     17 N31         2.2890    0.8180    1.7330 n         1 QIX     -0.344000
     18 C29         1.5120    0.5520    0.5170 c2        1 QIX      0.273000
     19 O30         1.7250    1.1780   -0.4740 o         1 QIX     -0.359000
     20 C08         0.5210   -0.5800    0.4900 c3        1 QIX      0.006000
     21 C07         1.2580   -1.9200    0.6320 c3        1 QIX     -0.168000
     22 C06         0.8330   -2.5960    1.9270 c3        1 QIX     -0.161000
     23 C05         1.8910   -3.6220    2.3270 c3        1 QIX     -0.058000
     24 N04         2.0920   -3.5850    3.7710 n3        1 QIX     -0.329000
     25 C02         2.9090   -4.5940    4.4110 c2        1 QIX      0.152000
     26 N03         4.0490   -4.1930    5.2540 n3        1 QIX     -0.321000
     27 N01         2.6320   -5.8750    4.2390 n1        1 QIX     -0.344000
     28 N09        -0.1870   -0.5600   -0.7420 n2        1 QIX     -0.357000
     29 O11        -2.1670   -0.0710    0.2930 o         1 QIX     -0.375000
     30 C12        -2.3790   -0.4160   -2.0920 c3        1 QIX     -0.109000
     31 C14        -2.1790   -1.7040   -4.1980 c2        1 QIX      0.235000
     32 N16        -2.5120   -2.8460   -4.9910 n         1 QIX     -0.193000
     33 O17        -2.7610   -2.7030   -6.3170 oh        1 QIX     -0.239000
     34 O15        -1.8080   -0.7020   -4.7230 o         1 QIX     -0.325000
     35 C18        -3.8140   -0.1370   -1.8240 c3        1 QIX     -0.119000
     36 C19        -4.2300    1.1440   -2.5680 c1        1 QIX     -0.084000
     37 C27        -5.6800    3.0610   -2.4550 c1        1 QIX     -0.035500
     38 C25        -7.0890    5.0500   -2.2710 c1        1 QIX     -0.124250
     39 C23        -6.2150    4.3650   -4.4320 c1        1 QIX     -0.116500
     40 H131       -1.4160   -2.1840   -2.3560 hc        1 QIX      0.123500
     41 H132       -3.0170   -2.3730   -2.3970 hc        1 QIX      0.123500
     42 H20        -3.5550    0.7340   -4.4860 ha        1 QIX      0.137250
     43 H21        -4.6760    2.5230   -5.5710 ha        1 QIX      0.137250
     44 H24        -7.4350    6.0440   -4.1050 ha        1 QIX      0.137250
     45 H26        -6.5430    3.8300   -0.6790 ha        1 QIX      0.132000
     46 H28        -5.0980    1.8540   -0.8050 ha        1 QIX      0.136000
     47 H531        8.9830    0.8540    4.9110 hn        1 QIX      0.229000
     48 H532        9.9520    1.8520    4.0730 hn        1 QIX      0.229000
     49 H461        6.6330    0.6060    4.0790 h1        1 QIX      0.124000
     50 H462        6.3250    2.0160    4.8030 h1        1 QIX      0.124000
     51 HN45        5.9830    2.4840    2.2770 hn        1 QIX      0.243000
     52 H321        3.1160    2.6490    1.7120 h1        1 QIX      0.133000
     53 H322        3.9200    1.5370    0.8320 h1        1 QIX      0.133000
     54 HN31        1.9980    0.5360    2.5040 hn        1 QIX      0.236000
     55 H08        -0.1140   -0.4770    1.2340 h1        1 QIX      0.142000
     56 H071        2.2380   -1.7630    0.6470 hc        1 QIX      0.104500
     57 H072        1.0260   -2.5100   -0.1420 hc        1 QIX      0.104500
     58 H061        0.7420   -1.9230    2.6370 hc        1 QIX      0.094500
     59 H062       -0.0600   -3.0620    1.7870 hc        1 QIX      0.094500
     60 H051        1.5880   -4.5500    2.0510 h1        1 QIX      0.081500
     61 H052        2.7330   -3.4080    1.8770 h1        1 QIX      0.081500
     62 HN04        1.6530   -2.9900    4.2660 hn        1 QIX      0.196000
     63 H031        4.3750   -3.3140    5.2140 hn        1 QIX      0.187000
     64 H032        4.4580   -4.8160    5.8110 hn        1 QIX      0.187000
     65 HN01        1.9180   -6.1250    3.7100 DU        1 QIX      0.149000
     66 HN09        0.2370   -0.6950   -1.4880 hn        1 QIX      0.244000
     67 H12        -2.0200    0.2660   -2.7420 hc        1 QIX      0.133000
     68 HN16       -2.5160   -3.6610   -4.6210 hn        1 QIX      0.213000
     69 HO17       -2.6520   -3.4850   -6.7260 ho        1 QIX      0.235000
     70 H181       -4.3450   -0.8670   -2.1240 hc        1 QIX      0.106500
     71 H182       -3.9420   -0.0120   -0.8710 hc        1 QIX      0.106500
     72 H25        -7.6090    5.6640   -1.7380 ha        1 QIX      0.137250
     73 H23        -6.1340    4.4980   -5.3690 ha        1 QIX      0.132000
@<TRIPOS>BOND
     1    1   29 1   
     2    1   30 1   
     3    2   30 1   
     4    2   31 1   
     5    2   40 1   
     6    2   41 1   
     7    3    4 1   
     8    3   42 1   
     9    4   43 1   
    10    5   37 1   
    11    5   39 1   
    12    6   38 1   
    13    6   44 1   
    14    7   37 1   
    15    7   45 1   
    16    8   36 1   
    17    8   46 1   
    18    9   10 1   
    19   10   12 1   
    20   11   47 1   
    21   11   48 1   
    22   12   13 1   
    23   12   49 1   
    24   12   50 1   
    25   13   14 1   
    26   13   51 1   
    27   14   15 1   
    28   14   16 1   
    29   16   17 1   
    30   16   52 1   
    31   16   53 1   
    32   17   18 1   
    33   17   54 1   
    34   18   19 1   
    35   18   20 1   
    36   20   21 1   
    37   20   28 1   
    38   20   55 1   
    39   21   22 1   
    40   21   56 1   
    41   21   57 1   
    42   22   23 1   
    43   22   58 1   
    44   22   59 1   
    45   23   24 1   
    46   23   60 1   
    47   23   61 1   
    48   24   25 1   
    49   24   62 1   
    50   25   26 1   
    51   25   27 1   
    52   26   63 1   
    53   26   64 1   
    54   28   66 1   
    55   30   35 1   
    56   30   67 1   
    57   31   32 1   
    58   31   34 1   
    59   32   33 1   
    60   32   68 1   
    61   33   69 1   
    62   35   36 1   
    63   35   70 1   
    64   35   71 1   
    65   38   72 1   
    66   39   73 1   
@<TRIPOS>SUBSTRUCTURE
     1 QIX         1 TEMP              0 ****  ****    0 ROOT
