@<TRIPOS>MOLECULE
QIX
   73    74     1     0     0
SMALL
bcc


@<TRIPOS>ATOM
      1 C10        -2.1130   -0.0860    0.6550 c         1 QIX      0.662100
      2 C13        -4.5120   -0.0870    0.0890 c3        1 QIX     -0.154400
      3 C20        -2.7510    3.7330   -0.7380 ca        1 QIX     -0.127000
      4 C21        -1.9650    4.7780   -1.1500 ca        1 QIX     -0.115000
      5 C22        -0.9240    5.2750   -0.3180 ca        1 QIX     -0.034000
      6 C24         0.9020    6.8170    0.1040 ca        1 QIX     -0.127000
      7 C26         0.3280    5.1710    1.7840 ca        1 QIX     -0.117000
      8 C28        -1.5370    3.5920    1.3540 ca        1 QIX     -0.110000
      9 O54         8.4980   -0.0240    0.1850 o         1 QIX     -0.620100
     10 C52         8.2930   -1.2340   -0.0440 c         1 QIX      0.629100
     11 N53         9.2170   -2.1780    0.3130 n         1 QIX     -0.666000
     12 C46         7.0300   -1.7140   -0.7780 c3        1 QIX      0.010000
     13 N45         5.9410   -0.7850   -0.7000 n         1 QIX     -0.534900
     14 C43         4.8110   -1.0630    0.0520 c         1 QIX      0.624100
     15 O44         4.5880   -2.2040    0.5030 o         1 QIX     -0.616100
     16 C32         3.8250    0.0990    0.2620 c3        1 QIX      0.007000
     17 C29         1.4370   -0.2850   -0.1620 c         1 QIX      0.634100
     18 O30         1.4740    0.3330   -1.2430 o         1 QIX     -0.596100
     19 C08         0.1530   -1.0060    0.3200 c3        1 QIX      0.039700
     20 C07         0.2590   -2.4650   -0.1650 c3        1 QIX     -0.092400
     21 C06        -0.6960   -3.3560    0.5980 c3        1 QIX     -0.088400
     22 C05        -0.6980   -4.7570   -0.0150 c3        1 QIX      0.178800
     23 N04        -1.5110   -5.6950    0.7270 nh        1 QIX     -0.841200
     24 C02        -1.8820   -6.9070    0.0450 c2        1 QIX      0.742100
     25 N03        -3.1130   -7.4980    0.4970 nh        1 QIX     -0.882800
     26 N01        -1.2000   -7.5000   -0.9030 n2        1 QIX     -0.875100
     27 N09        -1.0240   -0.3210   -0.1570 n         1 QIX     -0.554900
     28 O11        -2.1890   -0.5860    1.7980 o         1 QIX     -0.621100
     29 C12        -3.2490    0.7640    0.0870 c3        1 QIX     -0.117700
     30 O17        -7.8250    0.3580   -1.4290 oh        1 QIX     -0.435100
     31 C18        -3.4310    2.0120    0.9500 c3        1 QIX     -0.032100
     32 C19        -2.5370    3.1250    0.5300 ca        1 QIX     -0.091300
     33 C27        -0.7100    4.6750    0.9490 ca        1 QIX     -0.037000
     34 C25         1.1150    6.2180    1.3700 ca        1 QIX     -0.128000
     35 C23        -0.0950    6.3570   -0.7220 ca        1 QIX     -0.116000
     36 H131       -4.2880   -1.0970   -0.3490 hc        1 QIX      0.085200
     37 H132       -4.8510   -0.2410    1.1490 hc        1 QIX      0.085200
     38 H20        -3.5650    3.3480   -1.3750 ha        1 QIX      0.151000
     39 H21        -2.1280    5.2510   -2.1310 ha        1 QIX      0.135000
     40 H24         1.5450    7.6530   -0.2050 ha        1 QIX      0.132000
     41 H26         0.4860    4.7000    2.7650 ha        1 QIX      0.132000
     42 H28        -1.3610    3.1370    2.3410 ha        1 QIX      0.135000
     43 H531       10.0420   -1.9000    0.7850 hn        1 QIX      0.316000
     44 H532        9.0390   -3.1410    0.1920 hn        1 QIX      0.316000
     45 H461        7.3140   -1.8340   -1.8650 h1        1 QIX      0.087200
     46 H462        6.6950   -2.7150   -0.3800 h1        1 QIX      0.087200
     47 HN45        6.1830    0.1720   -0.8460 hn        1 QIX      0.325500
     48 H321        4.2660    0.7600    1.0650 h1        1 QIX      0.094700
     49 H322        3.7230    0.7000   -0.6880 h1        1 QIX      0.094700
     50 HN31        2.5210   -1.0200    1.4130 hn        1 QIX      0.320500
     51 H08         0.1150   -1.0130    1.4540 h1        1 QIX      0.099700
     52 H071        0.0520   -2.5210   -1.2660 hc        1 QIX      0.061700
     53 H072        1.3110   -2.8200   -0.0030 hc        1 QIX      0.061700
     54 H061       -0.3850   -3.4050    1.6750 hc        1 QIX      0.058700
     55 H062       -1.7300   -2.9200    0.5740 hc        1 QIX      0.058700
     56 H051       -1.0320   -4.6710   -1.0910 h1        1 QIX      0.040700
     57 H052        0.3590   -5.1530   -0.0200 h1        1 QIX      0.040700
     58 HN04       -2.2640   -5.2530    1.2140 hn        1 QIX      0.400800
     59 H031       -3.1500   -7.5760    1.4930 hn        1 QIX      0.390800
     60 H032       -3.2890   -8.3820    0.0620 hn        1 QIX      0.390800
     61 HN01       -0.4110   -7.0020   -1.2510 hn        1 QIX      0.393400
     62 HN09       -0.9390    0.1550   -1.0270 hn        1 QIX      0.336500
     63 H12        -3.0370    1.0860   -0.9730 hc        1 QIX      0.092700
     64 HN16       -7.0100   -0.8510   -0.2030 hn        1 QIX      0.299500
     65 HO17       -7.9750    1.3250   -1.4320 ho        1 QIX      0.436000
     66 H181       -4.4970    2.3570    0.8470 hc        1 QIX      0.068200
     67 H182       -3.2610    1.7470    2.0280 hc        1 QIX      0.068200
     68 H25         1.9180    6.6050    2.0140 ha        1 QIX      0.131000
     69 H23        -0.2680    6.8150   -1.7070 ha        1 QIX      0.133000
     70 C14        -5.6060    0.5390   -0.7450 c         1 QIX      0.591100
     71 N31         2.5250   -0.3240    0.6980 n         1 QIX     -0.530900
     72 N16        -6.9450    0.1300   -0.4520 n         1 QIX     -0.351400
     73 O15        -5.4010    1.4400   -1.5750 o         1 QIX     -0.565100
@<TRIPOS>BOND
     1    1   27 1   
     2    1   28 2   
     3    1   29 1   
     4    2   29 1   
     5    2   36 1   
     6    2   37 1   
     7    2   70 1   
     8    3    4 ar  
     9    3   32 ar  
    10    3   38 1   
    11    4    5 ar  
    12    4   39 1   
    13    5   33 ar  
    14    5   35 ar  
    15    6   34 ar  
    16    6   35 ar  
    17    6   40 1   
    18    7   33 ar  
    19    7   34 ar  
    20    7   41 1   
    21    8   32 ar  
    22    8   33 ar  
    23    8   42 1   
    24    9   10 2   
    25   10   11 1   
    26   10   12 1   
    27   11   43 1   
    28   11   44 1   
    29   12   13 1   
    30   12   45 1   
    31   12   46 1   
    32   13   14 1   
    33   13   47 1   
    34   14   15 2   
    35   14   16 1   
    36   16   48 1   
    37   16   49 1   
    38   16   71 1   
    39   17   18 2   
    40   17   19 1   
    41   17   71 1   
    42   19   20 1   
    43   19   27 1   
    44   19   51 1   
    45   20   21 1   
    46   20   52 1   
    47   20   53 1   
    48   21   22 1   
    49   21   54 1   
    50   21   55 1   
    51   22   23 1   
    52   22   56 1   
    53   22   57 1   
    54   23   24 1   
    55   23   58 1   
    56   24   25 1   
    57   24   26 2   
    58   25   59 1   
    59   25   60 1   
    60   26   61 1   
    61   27   62 1   
    62   29   31 1   
    63   29   63 1   
    64   30   65 1   
    65   30   72 1   
    66   31   32 1   
    67   31   66 1   
    68   31   67 1   
    69   34   68 1   
    70   35   69 1   
    71   50   71 1   
    72   64   72 1   
    73   70   72 1   
    74   70   73 2   
@<TRIPOS>SUBSTRUCTURE
     1 QIX         1 TEMP              0 ****  ****    0 ROOT
