@<TRIPOS>MOLECULE
QIX
   73    72     1     0     0
SMALL
bcc


@<TRIPOS>ATOM
      1 C10         1.3980   -0.6310    0.1710 c2        1 QIX      0.302000
      2 C13        -0.4060    0.0350   -1.4140 c3        1 QIX     -0.172000
      3 C20        -2.7070    4.2820   -3.9440 ca        1 QIX      0.016000
      4 C21        -3.1140    5.3980   -4.6700 ca        1 QIX     -0.193000
      5 C22        -3.1280    6.6580   -4.0750 ca        1 QIX     -0.009000
      6 C24        -2.2430   10.5280   -2.6400 c2        1 QIX     -0.543000
      7 C26        -2.7650    8.1610   -2.0910 c3        1 QIX     -0.167000
      8 C28        -2.3210    5.7060   -2.0090 ca        1 QIX     -0.050000
      9 O54        10.5560    1.3210    4.6750 o         1 QIX     -0.382000
     10 C52        10.3080    0.2640    5.2920 c2        1 QIX      0.273000
     11 N53        10.7950    0.0630    6.5560 n         1 QIX     -0.427000
     12 C46         9.4970   -0.8750    4.6510 c3        1 QIX     -0.056000
     13 N45         8.6530   -0.4360    3.5790 n         1 QIX     -0.344000
     14 C43         7.2750   -0.4090    3.7120 c2        1 QIX      0.268000
     15 O44         6.6980   -0.9660    4.6680 o         1 QIX     -0.377000
     16 C32         6.4910    0.3060    2.5970 c3        1 QIX     -0.057000
     17 C29         4.5770   -0.8330    1.5600 c2        1 QIX      0.269000
     18 O30         5.2180   -1.0780    0.5200 o         1 QIX     -0.364000
     19 C08         3.1340   -1.3620    1.7710 c3        1 QIX      0.009000
     20 C07         3.2760   -2.6950    2.5280 c3        1 QIX     -0.167000
     21 C06         1.9340   -3.2170    2.9890 c3        1 QIX     -0.165000
     22 C05         2.1400   -4.4630    3.8520 c3        1 QIX     -0.060000
     23 N04         0.9010   -5.0000    4.3700 n3        1 QIX     -0.326000
     24 C02         0.9540   -6.3300    4.9190 c2        1 QIX      0.151000
     25 N03        -0.2920   -7.0470    4.8740 n3        1 QIX     -0.320000
     26 N01         2.0020   -6.9050    5.4550 n2        1 QIX     -0.345000
     27 N09         2.4340   -1.4880    0.5190 n         1 QIX     -0.364000
     28 O11         0.9010    0.1480    1.0090 o         1 QIX     -0.376000
     29 C12         0.8870   -0.7320   -1.2520 c3        1 QIX     -0.173000
     30 O17        -2.2320    0.9400   -4.4710 oh        1 QIX     -0.256000
     31 C18        -1.8940    3.2660   -1.9000 c1        1 QIX     -0.107000
     32 C19        -2.3020    4.4180   -2.5960 ca        1 QIX     -0.205000
     33 C27        -2.7330    6.8170   -2.7360 ca        1 QIX     -0.110000
     34 C25        -2.6990    9.2540   -3.0600 c1        1 QIX     -0.030000
     35 C23        -2.1940   11.5480   -3.4910 c1        1 QIX      0.384000
     36 H131       -1.1940   -0.3970   -0.7410 hc        1 QIX      0.121000
     37 H132        0.7250   -1.8050   -1.5400 hc        1 QIX      0.124000
     38 H20        -2.6930    3.2780   -4.4090 ha        1 QIX      0.177000
     39 H21        -3.4240    5.2860   -5.7200 ha        1 QIX      0.148000
     40 H24        -1.9040   10.7040   -1.5940 ha        1 QIX      0.173000
     41 H26        -3.7600    8.2820   -1.5600 hc        1 QIX      0.113500
     42 H28        -2.0020    5.8180   -0.9600 ha        1 QIX      0.134000
     43 H531       10.5550   -0.7400    7.0760 hn        1 QIX      0.229500
     44 H532       11.3230    0.7770    6.9950 hn        1 QIX      0.229500
     45 H461        8.8690   -1.4010    5.4270 h1        1 QIX      0.126500
     46 H462       10.2460   -1.6090    4.2340 h1        1 QIX      0.126500
     47 HN45        9.0740    0.2000    2.9360 hn        1 QIX      0.239000
     48 H321        6.9520    0.0800    1.5920 h1        1 QIX      0.132000
     49 H322        6.5810    1.4140    2.7980 h1        1 QIX      0.132000
     50 HN31        4.6460   -0.0570    3.4550 hn        1 QIX      0.234000
     51 H08         2.5510   -0.6370    2.4200 h1        1 QIX      0.147000
     52 H071        3.9380   -2.5180    3.4170 hc        1 QIX      0.099000
     53 H072        3.7810   -3.4540    1.8750 hc        1 QIX      0.099000
     54 H061        1.3990   -2.4260    3.5780 hc        1 QIX      0.097500
     55 H062        1.2950   -3.4660    2.1020 hc        1 QIX      0.097500
     56 H051        2.7870   -4.1890    4.7350 h1        1 QIX      0.080500
     57 H052        2.7060   -5.2280    3.2420 h1        1 QIX      0.080500
     58 HN04        0.1270   -4.8440    3.7550 hn        1 QIX      0.196000
     59 H031       -1.0560   -6.5000    5.2150 hn        1 QIX      0.186000
     60 H032       -0.2390   -7.9260    5.3500 hn        1 QIX      0.186000
     61 HN01        2.8630   -6.4130    5.3690 hn        1 QIX      0.149000
     62 HN09        2.9260   -1.9590   -0.2070 hn        1 QIX      0.238000
     63 H12        -0.2600    1.1060   -1.1050 hc        1 QIX      0.121000
     64 HN16       -1.9980    1.7380   -2.7040 hn        1 QIX      0.298000
     65 HO17       -2.4430    0.0550   -4.8290 ho        1 QIX      0.220000
     66 H181       -1.5750    3.3710   -0.8540 ha        1 QIX      0.068000
     67 H182        1.6670   -0.3180   -1.9460 hc        1 QIX      0.124000
     68 H25        -1.9690    8.2170   -1.2950 hc        1 QIX      0.113500
     69 H23        -3.4390    7.5510   -4.6480 ha        1 QIX      0.173000
     70 C14        -0.8900   -0.0310   -2.8460 c2        1 QIX      0.232000
     71 N31         5.0990   -0.0340    2.5670 n         1 QIX     -0.342000
     72 N16        -2.0030    0.7770   -3.1680 n         1 QIX     -0.255000
     73 O15        -0.4220   -0.8450   -3.6690 o         1 QIX     -0.378000
@<TRIPOS>BOND
     1    1   27 1   
     2    1   28 1   
     3    1   29 1   
     4    2   29 1   
     5    2   36 1   
     6    2   63 1   
     7    2   70 1   
     8    3    4 1   
     9    3   32 1   
    10    3   38 1   
    11    4    5 1   
    12    4   39 1   
    13    5   33 1   
    14    5   69 1   
    15    6   34 1   
    16    6   35 1   
    17    6   40 1   
    18    7   33 1   
    19    7   34 1   
    20    7   41 1   
    21    7   68 1   
    22    8   32 1   
    23    8   33 1   
    24    8   42 1   
    25    9   10 1   
    26   10   11 1   
    27   10   12 1   
    28   11   43 1   
    29   11   44 1   
    30   12   13 1   
    31   12   45 1   
    32   12   46 1   
    33   13   14 1   
    34   13   47 1   
    35   14   15 1   
    36   14   16 1   
    37   16   48 1   
    38   16   49 1   
    39   16   71 1   
    40   17   18 1   
    41   17   19 1   
    42   17   71 1   
    43   19   20 1   
    44   19   27 1   
    45   19   51 1   
    46   20   21 1   
    47   20   52 1   
    48   20   53 1   
    49   21   22 1   
    50   21   54 1   
    51   21   55 1   
    52   22   23 1   
    53   22   56 1   
    54   22   57 1   
    55   23   24 1   
    56   23   58 1   
    57   24   25 1   
    58   24   26 1   
    59   25   59 1   
    60   25   60 1   
    61   26   61 1   
    62   27   62 1   
    63   29   37 1   
    64   29   67 1   
    65   30   65 1   
    66   30   72 1   
    67   31   32 1   
    68   31   66 1   
    69   50   71 1   
    70   64   72 1   
    71   70   72 1   
    72   70   73 1   
@<TRIPOS>SUBSTRUCTURE
     1 QIX         1 TEMP              0 ****  ****    0 ROOT
