@<TRIPOS>MOLECULE
QJ2
   45    46     1     0     0
SMALL
bcc


@<TRIPOS>ATOM
      1 N22        -5.4990    2.6410   -1.3800 nh        1 QJ2     -0.922500
      2 C22        -5.1530    1.4320   -0.7520 ca        1 QJ2      0.630200
      3 C23        -6.0510    0.3250   -0.8410 ca        1 QJ2     -0.301800
      4 C24        -5.7580   -0.8390   -0.1350 ca        1 QJ2     -0.006300
      5 C27        -6.6590   -2.0130   -0.2010 c3        1 QJ2     -0.060800
      6 C25        -4.5900   -0.8900    0.6350 ca        1 QJ2     -0.293300
      7 N21        -3.9990    1.3740   -0.0150 nb        1 QJ2     -0.728500
      8 C26        -3.7430    0.2360    0.6660 ca        1 QJ2      0.453600
      9 C12        -2.4880    0.1670    1.4950 c3        1 QJ2     -0.129700
     10 C11        -1.2500    0.0950    0.6240 c3        1 QJ2     -0.075900
     11 C10        -0.0020   -0.0360    1.4720 c3        1 QJ2     -0.080400
     12 C09         1.2380   -0.1140    0.6070 c3        1 QJ2     -0.075900
     13 C08         2.4840   -0.2370    1.4620 c3        1 QJ2     -0.129700
     14 C06         3.7300   -0.2570    0.6180 ca        1 QJ2      0.453600
     15 N01         3.9860   -1.3590   -0.1210 nb        1 QJ2     -0.728500
     16 C02         5.1180   -1.3620   -0.8930 ca        1 QJ2      0.630200
     17 N02         5.3500   -2.4490   -1.7550 nh        1 QJ2     -0.922500
     18 C03         6.0300   -0.2650   -0.9040 ca        1 QJ2     -0.301800
     19 C04         5.7460    0.8560   -0.1270 ca        1 QJ2     -0.006300
     20 C05         4.5790    0.8670    0.6460 ca        1 QJ2     -0.293300
     21 C07         6.6550    2.0260   -0.1270 c3        1 QJ2     -0.060800
     22 H1         -4.7690    3.3170   -1.4460 hn        1 QJ2      0.399300
     23 H2         -6.0040    2.5150   -2.2290 hn        1 QJ2      0.399300
     24 H3         -6.9650    0.3960   -1.4460 ha        1 QJ2      0.140000
     25 H4         -6.2150   -2.7950   -0.8670 hc        1 QJ2      0.048867
     26 H5         -6.7990   -2.4570    0.8150 hc        1 QJ2      0.048867
     27 H6         -7.6620   -1.7320   -0.6070 hc        1 QJ2      0.048867
     28 H7         -4.3360   -1.7930    1.2040 ha        1 QJ2      0.141500
     29 H8         -2.4260    1.0670    2.1630 hc        1 QJ2      0.053700
     30 H9         -2.5390   -0.7390    2.1550 hc        1 QJ2      0.053700
     31 H10        -1.3260   -0.7820   -0.0710 hc        1 QJ2      0.051450
     32 H11        -1.1790    1.0180   -0.0100 hc        1 QJ2      0.051450
     33 H12         0.0750    0.8430    2.1660 hc        1 QJ2      0.038200
     34 H13        -0.0730   -0.9560    2.1110 hc        1 QJ2      0.038200
     35 H14         1.1630   -0.9970   -0.0810 hc        1 QJ2      0.051450
     36 H15         1.3090    0.8040   -0.0340 hc        1 QJ2      0.051450
     37 H16         2.5410    0.6280    2.1740 hc        1 QJ2      0.053700
     38 H17         2.4260   -1.1750    2.0770 hc        1 QJ2      0.053700
     39 H18         4.8000   -3.2620   -1.5820 hn        1 QJ2      0.399300
     40 H19         6.3160   -2.6430   -1.8930 hn        1 QJ2      0.399300
     41 H20         6.9360   -0.2980   -1.5240 ha        1 QJ2      0.140000
     42 H21         4.3280    1.7370    1.2660 ha        1 QJ2      0.141500
     43 H22         6.2730    2.8000   -0.8400 hc        1 QJ2      0.048867
     44 H23         6.7100    2.4840    0.8910 hc        1 QJ2      0.048867
     45 H24         7.6870    1.7360   -0.4440 hc        1 QJ2      0.048867
@<TRIPOS>BOND
     1    1    2 1   
     2    1   22 1   
     3    1   23 1   
     4    2    3 ar  
     5    2    7 ar  
     6    3    4 ar  
     7    3   24 1   
     8    4    5 1   
     9    4    6 ar  
    10    5   25 1   
    11    5   26 1   
    12    5   27 1   
    13    6    8 ar  
    14    6   28 1   
    15    7    8 ar  
    16    8    9 1   
    17    9   10 1   
    18    9   29 1   
    19    9   30 1   
    20   10   11 1   
    21   10   31 1   
    22   10   32 1   
    23   11   12 1   
    24   11   33 1   
    25   11   34 1   
    26   12   13 1   
    27   12   35 1   
    28   12   36 1   
    29   13   14 1   
    30   13   37 1   
    31   13   38 1   
    32   14   15 ar  
    33   14   20 ar  
    34   15   16 ar  
    35   16   17 1   
    36   16   18 ar  
    37   17   39 1   
    38   17   40 1   
    39   18   19 ar  
    40   18   41 1   
    41   19   20 ar  
    42   19   21 1   
    43   20   42 1   
    44   21   43 1   
    45   21   44 1   
    46   21   45 1   
@<TRIPOS>SUBSTRUCTURE
     1 QJ2         1 TEMP              0 ****  ****    0 ROOT
