@<TRIPOS>MOLECULE
QJ2
   45    46     1     0     0
SMALL
bcc


@<TRIPOS>ATOM
      1 N22        -0.0470    0.7590    0.1070 nh        1 QJ2     -0.923500
      2 C22         1.3080    0.3950    0.0280 ca        1 QJ2      0.630200
      3 C23         2.0310    0.1560    1.2350 ca        1 QJ2     -0.301800
      4 C24         3.3980   -0.1030    1.1630 ca        1 QJ2     -0.006300
      5 C27         4.1900   -0.3330    2.3930 c3        1 QJ2     -0.060800
      6 C25         4.0170   -0.1310   -0.0920 ca        1 QJ2     -0.293300
      7 N21         1.9110    0.3500   -1.2020 nb        1 QJ2     -0.728500
      8 C26         3.2390    0.1010   -1.2430 ca        1 QJ2      0.453600
      9 C12         3.9170    0.0680   -2.5870 c3        1 QJ2     -0.129700
     10 C11         3.4980   -1.1450   -3.3940 c3        1 QJ2     -0.075400
     11 C10         4.2430   -1.1990   -4.7110 c3        1 QJ2     -0.081400
     12 C09         3.8270   -2.4080   -5.5220 c3        1 QJ2     -0.075400
     13 C08         4.5770   -2.4570   -6.8380 c3        1 QJ2     -0.129700
     14 C06         4.1260   -3.6130   -7.6900 ca        1 QJ2      0.453600
     15 N01         4.4440   -4.8650   -7.2920 nb        1 QJ2     -0.728500
     16 C02         4.0450   -5.9080   -8.0860 ca        1 QJ2      0.630200
     17 N02         4.4570   -7.2100   -7.7540 nh        1 QJ2     -0.923500
     18 C03         3.2870   -5.7060   -9.2790 ca        1 QJ2     -0.301800
     19 C04         2.9670   -4.4050   -9.6620 ca        1 QJ2     -0.006300
     20 C05         3.3930   -3.3380   -8.8610 ca        1 QJ2     -0.293300
     21 C07         2.1810   -4.1480  -10.8900 c3        1 QJ2     -0.060800
     22 H1         -0.5280    0.3280    0.8640 hn        1 QJ2      0.399300
     23 H2         -0.5520    0.7360   -0.7520 hn        1 QJ2      0.399300
     24 H3          1.5220    0.1890    2.2070 ha        1 QJ2      0.141000
     25 H4          4.7000    0.6160    2.6970 hc        1 QJ2      0.048700
     26 H5          3.5370   -0.6660    3.2370 hc        1 QJ2      0.048700
     27 H6          4.9730   -1.1120    2.2200 hc        1 QJ2      0.048700
     28 H7          5.0920   -0.3330   -0.1790 ha        1 QJ2      0.141000
     29 H8          3.6700    1.0030   -3.1580 hc        1 QJ2      0.054700
     30 H9          5.0290    0.0530   -2.4320 hc        1 QJ2      0.054700
     31 H10         3.7030   -2.0790   -2.8070 hc        1 QJ2      0.050700
     32 H11         2.3930   -1.1070   -3.5870 hc        1 QJ2      0.050700
     33 H12         4.0400   -0.2630   -5.2950 hc        1 QJ2      0.038700
     34 H13         5.3480   -1.2370   -4.5190 hc        1 QJ2      0.038700
     35 H14         4.0290   -3.3430   -4.9370 hc        1 QJ2      0.050700
     36 H15         2.7230   -2.3680   -5.7170 hc        1 QJ2      0.050700
     37 H16         4.4100   -1.5020   -7.4040 hc        1 QJ2      0.054700
     38 H17         5.6790   -2.5410   -6.6400 hc        1 QJ2      0.054700
     39 H18         3.8010   -7.9110   -8.0170 hn        1 QJ2      0.399300
     40 H19         4.8200   -7.3270   -6.8330 hn        1 QJ2      0.399300
     41 H20         2.9740   -6.5610   -9.8920 ha        1 QJ2      0.141000
     42 H21         3.1580   -2.3040   -9.1410 ha        1 QJ2      0.141000
     43 H22         2.1230   -5.0590  -11.5350 hc        1 QJ2      0.048700
     44 H23         2.6450   -3.3210  -11.4850 hc        1 QJ2      0.048700
     45 H24         1.1400   -3.8400  -10.6180 hc        1 QJ2      0.048700
@<TRIPOS>BOND
     1    1    2 1   
     2    1   22 1   
     3    1   23 1   
     4    2    3 ar  
     5    2    7 ar  
     6    3    4 ar  
     7    3   24 1   
     8    4    5 1   
     9    4    6 ar  
    10    5   25 1   
    11    5   26 1   
    12    5   27 1   
    13    6    8 ar  
    14    6   28 1   
    15    7    8 ar  
    16    8    9 1   
    17    9   10 1   
    18    9   29 1   
    19    9   30 1   
    20   10   11 1   
    21   10   31 1   
    22   10   32 1   
    23   11   12 1   
    24   11   33 1   
    25   11   34 1   
    26   12   13 1   
    27   12   35 1   
    28   12   36 1   
    29   13   14 1   
    30   13   37 1   
    31   13   38 1   
    32   14   15 ar  
    33   14   20 ar  
    34   15   16 ar  
    35   16   17 1   
    36   16   18 ar  
    37   17   39 1   
    38   17   40 1   
    39   18   19 ar  
    40   18   41 1   
    41   19   20 ar  
    42   19   21 1   
    43   20   42 1   
    44   21   43 1   
    45   21   44 1   
    46   21   45 1   
@<TRIPOS>SUBSTRUCTURE
     1 QJ2         1 TEMP              0 ****  ****    0 ROOT
