@<TRIPOS>MOLECULE
QJ2
   47    48     1     0     0
SMALL
bcc


@<TRIPOS>ATOM
      1 N22         0.7340    2.4760    0.2520 n4        1 QJ2     -0.818300
      2 C22         1.6630    1.3350    0.0750 ca        1 QJ2      0.450200
      3 C23         1.8730    0.4500    1.1450 ca        1 QJ2     -0.210300
      4 C24         2.7800   -0.6100    0.9390 ca        1 QJ2      0.005700
      5 C27         3.0540   -1.5650    2.0340 c3        1 QJ2     -0.082800
      6 C25         3.4110   -0.7180   -0.3000 ca        1 QJ2     -0.203300
      7 N21         2.2640    1.2410   -1.1460 nb        1 QJ2     -0.666000
      8 C26         3.1330    0.2260   -1.3230 ca        1 QJ2      0.465600
      9 C12         3.8610    0.1060   -2.6350 c3        1 QJ2     -0.145700
     10 C11         3.4320   -1.1270   -3.4080 c3        1 QJ2     -0.076400
     11 C10         4.2310   -1.2390   -4.6910 c3        1 QJ2     -0.082400
     12 C09         3.8510   -2.4770   -5.4790 c3        1 QJ2     -0.076400
     13 C08         4.6490   -2.5380   -6.7680 c3        1 QJ2     -0.145700
     14 C06         4.2620   -3.7220   -7.6100 ca        1 QJ2      0.465600
     15 N01         5.1570   -4.7130   -7.7990 nb        1 QJ2     -0.666000
     16 C02         4.7780   -5.7440   -8.6070 ca        1 QJ2      0.450200
     17 N02         5.7900   -6.8050   -8.8190 n4        1 QJ2     -0.818300
     18 C03         3.5290   -5.8520   -9.2400 ca        1 QJ2     -0.210300
     19 C04         2.6030   -4.8110   -9.0260 ca        1 QJ2      0.005700
     20 C05         2.9750   -3.7430   -8.2100 ca        1 QJ2     -0.203300
     21 C07         1.2770   -4.8610   -9.6790 c3        1 QJ2     -0.082800
     22 H1          0.2490    2.3800    1.1500 hn        1 QJ2      0.472800
     23 H2          1.2660    3.3560    0.2410 hn        1 QJ2      0.472800
     24 H3          1.3690    0.5560    2.1180 ha        1 QJ2      0.172000
     25 H4          3.5220   -2.5030    1.6450 hc        1 QJ2      0.078200
     26 H5          3.7600   -1.1030    2.7730 hc        1 QJ2      0.078200
     27 H6          2.1120   -1.8350    2.5750 hc        1 QJ2      0.078200
     28 H7          4.1320   -1.5290   -0.4940 ha        1 QJ2      0.178000
     29 H8          3.6990    1.0180   -3.2710 hc        1 QJ2      0.082200
     30 H9          4.9600    0.0500   -2.4060 hc        1 QJ2      0.082200
     31 H10         2.3380   -1.0650   -3.6470 hc        1 QJ2      0.050700
     32 H11         3.5880   -2.0450   -2.7820 hc        1 QJ2      0.050700
     33 H12         5.3270   -1.2710   -4.4500 hc        1 QJ2      0.054700
     34 H13         4.0560   -0.3260   -5.3200 hc        1 QJ2      0.054700
     35 H14         4.0520   -3.3930   -4.8640 hc        1 QJ2      0.050700
     36 H15         2.7530   -2.4590   -5.7080 hc        1 QJ2      0.050700
     37 H16         4.4580   -1.6130   -7.3790 hc        1 QJ2      0.082200
     38 H17         5.7460   -2.5550   -6.5250 hc        1 QJ2      0.082200
     39 H18         5.3620   -7.5820   -9.3330 hn        1 QJ2      0.472800
     40 H19         6.5770   -6.4260   -9.3620 hn        1 QJ2      0.472800
     41 H20         3.2560   -6.7010   -9.8860 ha        1 QJ2      0.172000
     42 H21         2.2810   -2.9070   -8.0270 ha        1 QJ2      0.178000
     43 H22         0.8530   -5.8960   -9.6450 hc        1 QJ2      0.078200
     44 H23         1.3720   -4.5580  -10.7550 hc        1 QJ2      0.078200
     45 H24         0.5550   -4.1650   -9.1830 hc        1 QJ2      0.078200
     46 H223        0.0460    2.4950   -0.5120 hn        1 QJ2      0.472800
     47 H023        6.1450   -7.1430   -7.9150 hn        1 QJ2      0.472800
@<TRIPOS>BOND
     1    1    2 1   
     2    1   22 1   
     3    1   23 1   
     4    1   46 1   
     5    2    3 ar  
     6    2    7 ar  
     7    3    4 ar  
     8    3   24 1   
     9    4    5 1   
    10    4    6 ar  
    11    5   25 1   
    12    5   26 1   
    13    5   27 1   
    14    6    8 ar  
    15    6   28 1   
    16    7    8 ar  
    17    8    9 1   
    18    9   10 1   
    19    9   29 1   
    20    9   30 1   
    21   10   11 1   
    22   10   31 1   
    23   10   32 1   
    24   11   12 1   
    25   11   33 1   
    26   11   34 1   
    27   12   13 1   
    28   12   35 1   
    29   12   36 1   
    30   13   14 1   
    31   13   37 1   
    32   13   38 1   
    33   14   15 ar  
    34   14   20 ar  
    35   15   16 ar  
    36   16   17 1   
    37   16   18 ar  
    38   17   39 1   
    39   17   40 1   
    40   17   47 1   
    41   18   19 ar  
    42   18   41 1   
    43   19   20 ar  
    44   19   21 1   
    45   20   42 1   
    46   21   43 1   
    47   21   44 1   
    48   21   45 1   
@<TRIPOS>SUBSTRUCTURE
     1 QJ2         1 TEMP              0 ****  ****    0 ROOT
