@<TRIPOS>MOLECULE
QJ2
   45    46     1     0     0
SMALL
bcc


@<TRIPOS>ATOM
      1 N22        -0.0910    0.6360    0.0700 nv        1 QJ2     -0.923500
      2 C22         1.2960    0.4110    0.0180 ca        1 QJ2      0.630200
      3 C23         1.9960    0.1300    1.2300 ca        1 QJ2     -0.302300
      4 C24         3.3490   -0.1940    1.1670 ca        1 QJ2     -0.006300
      5 C27         4.1170   -0.4920    2.3980 c3        1 QJ2     -0.060800
      6 C25         3.9810   -0.2270   -0.0820 ca        1 QJ2     -0.293300
      7 N21         1.9200    0.4000   -1.2020 nb        1 QJ2     -0.728000
      8 C26         3.2310    0.0750   -1.2350 ca        1 QJ2      0.453600
      9 C12         3.9250    0.0450   -2.5710 c3        1 QJ2     -0.129700
     10 C11         3.4960   -1.1560   -3.3900 c3        1 QJ2     -0.076400
     11 C10         4.2380   -1.1990   -4.7090 c3        1 QJ2     -0.080400
     12 C09         3.8260   -2.4060   -5.5260 c3        1 QJ2     -0.076400
     13 C08         4.5590   -2.4350   -6.8520 c3        1 QJ2     -0.129700
     14 C06         4.1230   -3.6040   -7.6940 ca        1 QJ2      0.453600
     15 N01         4.5310   -4.8410   -7.3350 nb        1 QJ2     -0.728000
     16 C02         4.1190   -5.8980   -8.1020 ca        1 QJ2      0.630200
     17 N02         4.4360   -7.2030   -7.6880 nv        1 QJ2     -0.923500
     18 C03         3.3160   -5.7190   -9.2690 ca        1 QJ2     -0.302300
     19 C04         2.9150   -4.4320   -9.6210 ca        1 QJ2     -0.006300
     20 C05         3.3200   -3.3540   -8.8250 ca        1 QJ2     -0.293300
     21 C07         2.0630   -4.2060  -10.8110 c3        1 QJ2     -0.060800
     22 H1         -0.3850    1.0990    0.9000 hn        1 QJ2      0.399300
     23 H2         -0.5000    1.0040   -0.7610 hn        1 QJ2      0.399300
     24 H3          1.4730    0.1550    2.1950 ha        1 QJ2      0.140000
     25 H4          4.8210    0.3490    2.6220 hc        1 QJ2      0.048700
     26 H5          3.4400   -0.6290    3.2770 hc        1 QJ2      0.048700
     27 H6          4.7190   -1.4250    2.2650 hc        1 QJ2      0.048700
     28 H7          5.0450   -0.4840   -0.1610 ha        1 QJ2      0.141000
     29 H8          3.6990    0.9880   -3.1390 hc        1 QJ2      0.053200
     30 H9          5.0340    0.0130   -2.4030 hc        1 QJ2      0.053200
     31 H10         3.6960   -2.0970   -2.8140 hc        1 QJ2      0.052700
     32 H11         2.3910   -1.1090   -3.5790 hc        1 QJ2      0.052700
     33 H12         4.0290   -0.2610   -5.2890 hc        1 QJ2      0.037700
     34 H13         5.3430   -1.2330   -4.5210 hc        1 QJ2      0.037700
     35 H14         4.0470   -3.3440   -4.9510 hc        1 QJ2      0.052700
     36 H15         2.7190   -2.3790   -5.7060 hc        1 QJ2      0.052700
     37 H16         5.6660   -2.4890   -6.6680 hc        1 QJ2      0.053200
     38 H17         4.3590   -1.4860   -7.4160 hc        1 QJ2      0.053200
     39 H18         4.5600   -7.8390   -8.4440 hn        1 QJ2      0.399300
     40 H19         5.1410   -7.2750   -6.9870 hn        1 QJ2      0.399300
     41 H20         3.0090   -6.5830   -9.8730 ha        1 QJ2      0.140000
     42 H21         3.0170   -2.3300   -9.0770 ha        1 QJ2      0.141000
     43 H22         2.1560   -5.0470  -11.5410 hc        1 QJ2      0.048700
     44 H23         2.3460   -3.2550  -11.3260 hc        1 QJ2      0.048700
     45 H24         0.9910   -4.1290  -10.4980 hc        1 QJ2      0.048700
@<TRIPOS>BOND
     1    1    2 1   
     2    1   22 1   
     3    1   23 1   
     4    2    3 ar  
     5    2    7 ar  
     6    3    4 ar  
     7    3   24 1   
     8    4    5 1   
     9    4    6 ar  
    10    5   25 1   
    11    5   26 1   
    12    5   27 1   
    13    6    8 ar  
    14    6   28 1   
    15    7    8 ar  
    16    8    9 1   
    17    9   10 1   
    18    9   29 1   
    19    9   30 1   
    20   10   11 1   
    21   10   31 1   
    22   10   32 1   
    23   11   12 1   
    24   11   33 1   
    25   11   34 1   
    26   12   13 1   
    27   12   35 1   
    28   12   36 1   
    29   13   14 1   
    30   13   37 1   
    31   13   38 1   
    32   14   15 ar  
    33   14   20 ar  
    34   15   16 ar  
    35   16   17 1   
    36   16   18 ar  
    37   17   39 1   
    38   17   40 1   
    39   18   19 ar  
    40   18   41 1   
    41   19   20 ar  
    42   19   21 1   
    43   20   42 1   
    44   21   43 1   
    45   21   44 1   
    46   21   45 1   
@<TRIPOS>SUBSTRUCTURE
     1 QJ2         1 TEMP              0 ****  ****    0 ROOT
