@<TRIPOS>MOLECULE
QJ4
   51    52     1     0     0
SMALL
bcc


@<TRIPOS>ATOM
      1 N22        -0.0690    0.5720    0.1160 nv        1 QJ4     -0.923500
      2 C22         1.3220    0.3810    0.0450 ca        1 QJ4      0.630200
      3 C23         2.0490    0.1380    1.2490 ca        1 QJ4     -0.302300
      4 C24         3.4090   -0.1530    1.1690 ca        1 QJ4     -0.006300
      5 C27         4.1950   -0.4340    2.3930 c3        1 QJ4     -0.060800
      6 C25         4.0220   -0.1900   -0.0890 ca        1 QJ4     -0.293300
      7 N21         1.9270    0.3660   -1.1850 nb        1 QJ4     -0.728000
      8 C26         3.2450    0.0740   -1.2350 ca        1 QJ4      0.453600
      9 C14         3.9180    0.0430   -2.5810 c3        1 QJ4     -0.129700
     10 C13         3.4780   -1.1590   -3.3940 c3        1 QJ4     -0.076400
     11 C12         4.2110   -1.2100   -4.7180 c3        1 QJ4     -0.079400
     12 C11         3.7790   -2.4100   -5.5340 c3        1 QJ4     -0.078400
     13 C10         4.5050   -2.4610   -6.8610 c3        1 QJ4     -0.079400
     14 C09         4.0760   -3.6640   -7.6730 c3        1 QJ4     -0.076400
     15 C08         4.8060   -3.7060   -9.0020 c3        1 QJ4     -0.129700
     16 C06         4.3440   -4.8620   -9.8470 ca        1 QJ4      0.453600
     17 N01         4.6970   -6.1120   -9.4720 nb        1 QJ4     -0.728000
     18 C02         4.2620   -7.1570  -10.2440 ca        1 QJ4      0.630200
     19 N02         4.5200   -8.4710   -9.8160 nv        1 QJ4     -0.923500
     20 C03         3.4940   -6.9550  -11.4300 ca        1 QJ4     -0.302300
     21 C04         3.1510   -5.6560  -11.7980 ca        1 QJ4     -0.006300
     22 C05         3.5770   -4.5900  -10.9980 ca        1 QJ4     -0.293300
     23 C07         2.3360   -5.4040  -13.0090 c3        1 QJ4     -0.060800
     24 H1         -0.5000    0.9170   -0.7140 hn        1 QJ4      0.399300
     25 H2         -0.3610    1.0410    0.9440 hn        1 QJ4      0.399300
     26 H3          1.5420    0.1680    2.2230 ha        1 QJ4      0.140000
     27 H4          3.7080    0.0090    3.2960 hc        1 QJ4      0.048700
     28 H5          4.2750   -1.5410    2.5440 hc        1 QJ4      0.048700
     29 H6          5.2280   -0.0170    2.3040 hc        1 QJ4      0.048700
     30 H7          5.0910   -0.4180   -0.1830 ha        1 QJ4      0.141000
     31 H8          5.0300    0.0110   -2.4310 hc        1 QJ4      0.053200
     32 H9          3.6830    0.9850   -3.1460 hc        1 QJ4      0.053200
     33 H10         3.6770   -2.0990   -2.8160 hc        1 QJ4      0.051700
     34 H11         2.3720   -1.1070   -3.5760 hc        1 QJ4      0.051700
     35 H12         4.0100   -0.2700   -5.2960 hc        1 QJ4      0.038200
     36 H13         5.3170   -1.2580   -4.5370 hc        1 QJ4      0.038200
     37 H14         2.6720   -2.3640   -5.7130 hc        1 QJ4      0.042700
     38 H15         3.9820   -3.3500   -4.9580 hc        1 QJ4      0.042700
     39 H16         4.2990   -1.5210   -7.4390 hc        1 QJ4      0.038200
     40 H17         5.6120   -2.5020   -6.6830 hc        1 QJ4      0.038200
     41 H18         4.2870   -4.6030   -7.0970 hc        1 QJ4      0.051700
     42 H19         2.9700   -3.6230   -7.8510 hc        1 QJ4      0.051700
     43 H20         5.9110   -3.7850   -8.8200 hc        1 QJ4      0.053200
     44 H21         4.6250   -2.7510   -9.5620 hc        1 QJ4      0.053200
     45 H22         5.2050   -8.5650   -9.0980 hn        1 QJ4      0.399300
     46 H23         4.6360   -9.1150  -10.5660 hn        1 QJ4      0.399300
     47 H24         3.1680   -7.8100  -12.0370 ha        1 QJ4      0.140000
     48 H25         3.3200   -3.5560  -11.2620 ha        1 QJ4      0.141000
     49 H26         2.6670   -4.4680  -13.5220 hc        1 QJ4      0.048700
     50 H27         2.4130   -6.2530  -13.7320 hc        1 QJ4      0.048700
     51 H28         1.2600   -5.2840  -12.7210 hc        1 QJ4      0.048700
@<TRIPOS>BOND
     1    1    2 1   
     2    1   24 1   
     3    1   25 1   
     4    2    3 ar  
     5    2    7 ar  
     6    3    4 ar  
     7    3   26 1   
     8    4    5 1   
     9    4    6 ar  
    10    5   27 1   
    11    5   28 1   
    12    5   29 1   
    13    6    8 ar  
    14    6   30 1   
    15    7    8 ar  
    16    8    9 1   
    17    9   10 1   
    18    9   31 1   
    19    9   32 1   
    20   10   11 1   
    21   10   33 1   
    22   10   34 1   
    23   11   12 1   
    24   11   35 1   
    25   11   36 1   
    26   12   13 1   
    27   12   37 1   
    28   12   38 1   
    29   13   14 1   
    30   13   39 1   
    31   13   40 1   
    32   14   15 1   
    33   14   41 1   
    34   14   42 1   
    35   15   16 1   
    36   15   43 1   
    37   15   44 1   
    38   16   17 ar  
    39   16   22 ar  
    40   17   18 ar  
    41   18   19 1   
    42   18   20 ar  
    43   19   45 1   
    44   19   46 1   
    45   20   21 ar  
    46   20   47 1   
    47   21   22 ar  
    48   21   23 1   
    49   22   48 1   
    50   23   49 1   
    51   23   50 1   
    52   23   51 1   
@<TRIPOS>SUBSTRUCTURE
     1 QJ4         1 TEMP              0 ****  ****    0 ROOT
