@<TRIPOS>MOLECULE
QJ4
   51    52     1     0     0
SMALL
bcc


@<TRIPOS>ATOM
      1 N22         6.6690    1.1890   -2.7690 nh        1 QJ4     -0.923500
      2 C22         6.4080    0.6210   -1.5100 ca        1 QJ4      0.630200
      3 C23         7.2960    0.9010   -0.4270 ca        1 QJ4     -0.302300
      4 C24         6.9820    0.4240    0.8430 ca        1 QJ4     -0.006300
      5 C27         7.8650    0.7110    1.9970 c3        1 QJ4     -0.060800
      6 C25         5.8110   -0.3230    1.0170 ca        1 QJ4     -0.293300
      7 N21         5.2720   -0.1280   -1.3430 nb        1 QJ4     -0.728000
      8 C26         4.9880   -0.5730   -0.1000 ca        1 QJ4      0.453600
      9 C14         3.7370   -1.3870    0.0990 c3        1 QJ4     -0.129700
     10 C13         2.4930   -0.5310   -0.0290 c3        1 QJ4     -0.076400
     11 C12         1.2470   -1.3500    0.2340 c3        1 QJ4     -0.079400
     12 C11        -0.0010   -0.5010    0.1140 c3        1 QJ4     -0.078400
     13 C10        -1.2480   -1.3200    0.3680 c3        1 QJ4     -0.079400
     14 C09        -2.4940   -0.4670    0.2540 c3        1 QJ4     -0.076400
     15 C08        -3.7390   -1.2950    0.5060 c3        1 QJ4     -0.129700
     16 C06        -4.9890   -0.4740    0.3360 ca        1 QJ4      0.453600
     17 N01        -5.2740    0.4600    1.2690 nb        1 QJ4     -0.728000
     18 C02        -6.4100    1.2080    1.0980 ca        1 QJ4      0.630200
     19 N02        -6.6710    2.2600    1.9930 nh        1 QJ4     -0.923500
     20 C03        -7.2960    0.9980   -0.0000 ca        1 QJ4     -0.302300
     21 C04        -6.9820    0.0230   -0.9440 ca        1 QJ4     -0.006300
     22 C05        -5.8110   -0.7270   -0.7800 ca        1 QJ4     -0.293300
     23 C07        -7.8640   -0.2110   -2.1110 c3        1 QJ4     -0.060800
     24 H1          7.6400    1.2770   -2.9690 hn        1 QJ4      0.399300
     25 H2          6.1360    0.8230   -3.5270 hn        1 QJ4      0.399300
     26 H3          8.2050    1.4940   -0.5910 ha        1 QJ4      0.140000
     27 H4          7.4710    1.5940    2.5620 hc        1 QJ4      0.048700
     28 H5          7.9020   -0.1620    2.6940 hc        1 QJ4      0.048700
     29 H6          8.9050    0.9440    1.6620 hc        1 QJ4      0.048700
     30 H7          5.5380   -0.7110    2.0060 ha        1 QJ4      0.141000
     31 H8          3.7000   -2.2170   -0.6570 hc        1 QJ4      0.053200
     32 H9          3.7690   -1.8600    1.1160 hc        1 QJ4      0.053200
     33 H10         2.5440    0.3210    0.7000 hc        1 QJ4      0.051700
     34 H11         2.4430   -0.0870   -1.0580 hc        1 QJ4      0.051700
     35 H12         1.1950   -2.2000   -0.4960 hc        1 QJ4      0.038200
     36 H13         1.2980   -1.7980    1.2610 hc        1 QJ4      0.038200
     37 H14         0.0490    0.3470    0.8470 hc        1 QJ4      0.042700
     38 H15        -0.0500   -0.0490   -0.9120 hc        1 QJ4      0.042700
     39 H16        -1.2990   -2.1650   -0.3680 hc        1 QJ4      0.038200
     40 H17        -1.1970   -1.7750    1.3920 hc        1 QJ4      0.038200
     41 H18        -2.4450    0.3750    0.9940 hc        1 QJ4      0.051700
     42 H19        -2.5450   -0.0090   -0.7680 hc        1 QJ4      0.051700
     43 H20        -3.7700   -2.1580   -0.2110 hc        1 QJ4      0.053200
     44 H21        -3.7020   -1.7220    1.5440 hc        1 QJ4      0.053200
     45 H22        -6.1380    2.2540    2.8350 hn        1 QJ4      0.399300
     46 H23        -7.6420    2.4250    2.1360 hn        1 QJ4      0.399300
     47 H24        -8.2060    1.6040   -0.1070 ha        1 QJ4      0.140000
     48 H25        -5.5380   -1.5000   -1.5090 ha        1 QJ4      0.141000
     49 H26        -7.4700    0.3450   -2.9990 hc        1 QJ4      0.048700
     50 H27        -7.9010   -1.2980   -2.3680 hc        1 QJ4      0.048700
     51 H28        -8.9050    0.1430   -1.9080 hc        1 QJ4      0.048700
@<TRIPOS>BOND
     1    1    2 1   
     2    1   24 1   
     3    1   25 1   
     4    2    3 ar  
     5    2    7 ar  
     6    3    4 ar  
     7    3   26 1   
     8    4    5 1   
     9    4    6 ar  
    10    5   27 1   
    11    5   28 1   
    12    5   29 1   
    13    6    8 ar  
    14    6   30 1   
    15    7    8 ar  
    16    8    9 1   
    17    9   10 1   
    18    9   31 1   
    19    9   32 1   
    20   10   11 1   
    21   10   33 1   
    22   10   34 1   
    23   11   12 1   
    24   11   35 1   
    25   11   36 1   
    26   12   13 1   
    27   12   37 1   
    28   12   38 1   
    29   13   14 1   
    30   13   39 1   
    31   13   40 1   
    32   14   15 1   
    33   14   41 1   
    34   14   42 1   
    35   15   16 1   
    36   15   43 1   
    37   15   44 1   
    38   16   17 ar  
    39   16   22 ar  
    40   17   18 ar  
    41   18   19 1   
    42   18   20 ar  
    43   19   45 1   
    44   19   46 1   
    45   20   21 ar  
    46   20   47 1   
    47   21   22 ar  
    48   21   23 1   
    49   22   48 1   
    50   23   49 1   
    51   23   50 1   
    52   23   51 1   
@<TRIPOS>SUBSTRUCTURE
     1 QJ4         1 TEMP              0 ****  ****    0 ROOT
