@<TRIPOS>MOLECULE
QJ4
   51    52     1     0     0
SMALL
bcc


@<TRIPOS>ATOM
      1 N22        -0.0080    0.8170    0.1300 nh        1 QJ4     -0.923500
      2 C22         1.3400    0.4260    0.0430 ca        1 QJ4      0.630200
      3 C23         2.0630    0.1660    1.2460 ca        1 QJ4     -0.302300
      4 C24         3.4240   -0.1210    1.1660 ca        1 QJ4     -0.006300
      5 C27         4.2150   -0.3740    2.3930 c3        1 QJ4     -0.060800
      6 C25         4.0370   -0.1540   -0.0910 ca        1 QJ4     -0.293300
      7 N21         1.9370    0.3750   -1.1890 nb        1 QJ4     -0.728000
      8 C26         3.2590    0.1000   -1.2380 ca        1 QJ4      0.453600
      9 C14         3.9300    0.0590   -2.5850 c3        1 QJ4     -0.129700
     10 C13         3.4830   -1.1400   -3.3950 c3        1 QJ4     -0.075900
     11 C12         4.2220   -1.2040   -4.7150 c3        1 QJ4     -0.079900
     12 C11         3.7800   -2.4000   -5.5320 c3        1 QJ4     -0.078400
     13 C10         4.5160   -2.4650   -6.8530 c3        1 QJ4     -0.079900
     14 C09         4.0720   -3.6620   -7.6670 c3        1 QJ4     -0.075900
     15 C08         4.8140   -3.7210   -8.9870 c3        1 QJ4     -0.129700
     16 C06         4.3370   -4.8670   -9.8380 ca        1 QJ4      0.453600
     17 N01         4.6450   -6.1240   -9.4510 nb        1 QJ4     -0.728000
     18 C02         4.1970   -7.1600  -10.2280 ca        1 QJ4      0.630200
     19 N02         4.4080   -8.4790   -9.7890 nh        1 QJ4     -0.923500
     20 C03         3.4600   -6.9410  -11.4310 ca        1 QJ4     -0.302300
     21 C04         3.1620   -5.6340  -11.8100 ca        1 QJ4     -0.006300
     22 C05         3.6030   -4.5770  -11.0050 ca        1 QJ4     -0.293300
     23 C07         2.3810   -5.3640  -13.0390 c3        1 QJ4     -0.060800
     24 H1         -0.5160    0.8090   -0.7280 hn        1 QJ4      0.399300
     25 H2         -0.4940    0.3910    0.8870 hn        1 QJ4      0.399300
     26 H3          1.5580    0.2030    2.2200 ha        1 QJ4      0.140500
     27 H4          4.7390    0.5660    2.7040 hc        1 QJ4      0.048700
     28 H5          4.9880   -1.1610    2.2100 hc        1 QJ4      0.048700
     29 H6          3.5600   -0.7070    3.2350 hc        1 QJ4      0.048700
     30 H7          5.1070   -0.3770   -0.1840 ha        1 QJ4      0.141000
     31 H8          3.7000    1.0020   -3.1500 hc        1 QJ4      0.053700
     32 H9          5.0420    0.0210   -2.4350 hc        1 QJ4      0.053700
     33 H10         2.3790   -1.0780   -3.5840 hc        1 QJ4      0.050700
     34 H11         3.6700   -2.0810   -2.8130 hc        1 QJ4      0.050700
     35 H12         4.0370   -0.2620   -5.2960 hc        1 QJ4      0.038450
     36 H13         5.3270   -1.2660   -4.5280 hc        1 QJ4      0.038450
     37 H14         2.6750   -2.3390   -5.7190 hc        1 QJ4      0.041700
     38 H15         3.9650   -3.3420   -4.9520 hc        1 QJ4      0.041700
     39 H16         5.6200   -2.5260   -6.6660 hc        1 QJ4      0.038450
     40 H17         4.3300   -1.5230   -7.4330 hc        1 QJ4      0.038450
     41 H18         2.9690   -3.6000   -7.8570 hc        1 QJ4      0.050700
     42 H19         4.2590   -4.6040   -7.0870 hc        1 QJ4      0.050700
     43 H20         5.9160   -3.8250   -8.7940 hc        1 QJ4      0.053700
     44 H21         4.6620   -2.7620   -9.5500 hc        1 QJ4      0.053700
     45 H22         4.5210   -9.1300  -10.5350 hn        1 QJ4      0.399300
     46 H23         5.0750   -8.5900   -9.0570 hn        1 QJ4      0.399300
     47 H24         3.1220   -7.7890  -12.0410 ha        1 QJ4      0.140500
     48 H25         3.3810   -3.5380  -11.2790 ha        1 QJ4      0.141000
     49 H26         2.7500   -4.4400  -13.5480 hc        1 QJ4      0.048700
     50 H27         1.3040   -5.2130  -12.7760 hc        1 QJ4      0.048700
     51 H28         2.4500   -6.2170  -13.7580 hc        1 QJ4      0.048700
@<TRIPOS>BOND
     1    1    2 1   
     2    1   24 1   
     3    1   25 1   
     4    2    3 ar  
     5    2    7 ar  
     6    3    4 ar  
     7    3   26 1   
     8    4    5 1   
     9    4    6 ar  
    10    5   27 1   
    11    5   28 1   
    12    5   29 1   
    13    6    8 ar  
    14    6   30 1   
    15    7    8 ar  
    16    8    9 1   
    17    9   10 1   
    18    9   31 1   
    19    9   32 1   
    20   10   11 1   
    21   10   33 1   
    22   10   34 1   
    23   11   12 1   
    24   11   35 1   
    25   11   36 1   
    26   12   13 1   
    27   12   37 1   
    28   12   38 1   
    29   13   14 1   
    30   13   39 1   
    31   13   40 1   
    32   14   15 1   
    33   14   41 1   
    34   14   42 1   
    35   15   16 1   
    36   15   43 1   
    37   15   44 1   
    38   16   17 ar  
    39   16   22 ar  
    40   17   18 ar  
    41   18   19 1   
    42   18   20 ar  
    43   19   45 1   
    44   19   46 1   
    45   20   21 ar  
    46   20   47 1   
    47   21   22 ar  
    48   21   23 1   
    49   22   48 1   
    50   23   49 1   
    51   23   50 1   
    52   23   51 1   
@<TRIPOS>SUBSTRUCTURE
     1 QJ4         1 TEMP              0 ****  ****    0 ROOT
