@<TRIPOS>MOLECULE
QJ4
   53    54     1     0     0
SMALL
bcc


@<TRIPOS>ATOM
      1 N22         0.7490    2.3990    0.3570 n4        1 QJ4     -0.818300
      2 C22         1.7010    1.2840    0.1400 ca        1 QJ4      0.449200
      3 C23         1.9610    0.3910    1.1920 ca        1 QJ4     -0.212300
      4 C24         2.8840   -0.6460    0.9450 ca        1 QJ4      0.003700
      5 C27         3.2120   -1.6090    2.0180 c3        1 QJ4     -0.081800
      6 C25         3.4810   -0.7240   -0.3130 ca        1 QJ4     -0.202300
      7 N21         2.2690    1.2220   -1.0980 nb        1 QJ4     -0.667000
      8 C26         3.1530    0.2270   -1.3150 ca        1 QJ4      0.468600
      9 C14         3.8380    0.1340   -2.6510 c3        1 QJ4     -0.145700
     10 C13         3.3890   -1.0920   -3.4250 c3        1 QJ4     -0.077400
     11 C12         4.1530   -1.1940   -4.7300 c3        1 QJ4     -0.081400
     12 C11         3.7480   -2.4240   -5.5160 c3        1 QJ4     -0.078400
     13 C10         4.5100   -2.4970   -6.8240 c3        1 QJ4     -0.081400
     14 C09         4.1330   -3.7310   -7.6190 c3        1 QJ4     -0.077400
     15 C08         4.8920   -3.7590   -8.9330 c3        1 QJ4     -0.145700
     16 C06         4.4870   -4.9320   -9.7820 ca        1 QJ4      0.468600
     17 N01         5.3750   -5.9230  -10.0010 nb        1 QJ4     -0.667000
     18 C02         4.9730   -6.9480  -10.8060 ca        1 QJ4      0.449200
     19 N02         5.9760   -8.0110  -11.0460 n4        1 QJ4     -0.818300
     20 C03         3.7080   -7.0490  -11.4090 ca        1 QJ4     -0.212300
     21 C04         2.7910   -6.0070  -11.1650 ca        1 QJ4      0.003700
     22 C05         3.1850   -4.9470  -10.3490 ca        1 QJ4     -0.202300
     23 C07         1.4490   -6.0490  -11.7850 c3        1 QJ4     -0.081800
     24 H1          0.0220    2.3890   -0.3690 hn        1 QJ4      0.471633
     25 H2          0.3150    2.2980    1.2800 hn        1 QJ4      0.471633
     26 H3          1.4820    0.4720    2.1790 ha        1 QJ4      0.170000
     27 H4          2.2960   -1.8900    2.5970 hc        1 QJ4      0.077033
     28 H5          3.6650   -2.5420    1.5980 hc        1 QJ4      0.077033
     29 H6          3.9490   -1.1510    2.7280 hc        1 QJ4      0.077033
     30 H7          4.2120   -1.5170   -0.5410 ha        1 QJ4      0.180000
     31 H8          4.9450    0.0810   -2.4610 hc        1 QJ4      0.081700
     32 H9          3.6500    1.0530   -3.2690 hc        1 QJ4      0.081700
     33 H10         2.2900   -1.0270   -3.6350 hc        1 QJ4      0.049200
     34 H11         3.5610   -2.0150   -2.8120 hc        1 QJ4      0.049200
     35 H12         3.9650   -0.2760   -5.3470 hc        1 QJ4      0.050700
     36 H13         5.2550   -1.2320   -4.5190 hc        1 QJ4      0.050700
     37 H14         2.6450   -2.3960   -5.7220 hc        1 QJ4      0.045700
     38 H15         3.9500   -3.3450   -4.9090 hc        1 QJ4      0.045700
     39 H16         5.6120   -2.5090   -6.6150 hc        1 QJ4      0.050700
     40 H17         4.2970   -1.5780   -7.4320 hc        1 QJ4      0.050700
     41 H18         3.0280   -3.7320   -7.8160 hc        1 QJ4      0.049200
     42 H19         4.3690   -4.6510   -7.0240 hc        1 QJ4      0.049200
     43 H20         4.6730   -2.8250   -9.5200 hc        1 QJ4      0.081700
     44 H21         5.9960   -3.7710   -8.7240 hc        1 QJ4      0.081700
     45 H22         5.5420   -8.7710  -11.5790 hn        1 QJ4      0.471633
     46 H23         6.7660   -7.6250  -11.5780 hn        1 QJ4      0.471633
     47 H24         3.4180   -7.8930  -12.0530 ha        1 QJ4      0.170000
     48 H25         2.4970   -4.1110  -10.1410 ha        1 QJ4      0.180000
     49 H26         0.7360   -5.3720  -11.2510 hc        1 QJ4      0.077033
     50 H27         1.5140   -5.7160  -12.8540 hc        1 QJ4      0.077033
     51 H28         1.0320   -7.0870  -11.7670 hc        1 QJ4      0.077033
     52 H223        1.2520    3.2950    0.3090 hn        1 QJ4      0.471633
     53 H023        6.3270   -8.3750  -10.1500 hn        1 QJ4      0.471633
@<TRIPOS>BOND
     1    1    2 1   
     2    1   24 1   
     3    1   25 1   
     4    1   52 1   
     5    2    3 ar  
     6    2    7 ar  
     7    3    4 ar  
     8    3   26 1   
     9    4    5 1   
    10    4    6 ar  
    11    5   27 1   
    12    5   28 1   
    13    5   29 1   
    14    6    8 ar  
    15    6   30 1   
    16    7    8 ar  
    17    8    9 1   
    18    9   10 1   
    19    9   31 1   
    20    9   32 1   
    21   10   11 1   
    22   10   33 1   
    23   10   34 1   
    24   11   12 1   
    25   11   35 1   
    26   11   36 1   
    27   12   13 1   
    28   12   37 1   
    29   12   38 1   
    30   13   14 1   
    31   13   39 1   
    32   13   40 1   
    33   14   15 1   
    34   14   41 1   
    35   14   42 1   
    36   15   16 1   
    37   15   43 1   
    38   15   44 1   
    39   16   17 ar  
    40   16   22 ar  
    41   17   18 ar  
    42   18   19 1   
    43   18   20 ar  
    44   19   45 1   
    45   19   46 1   
    46   19   53 1   
    47   20   21 ar  
    48   20   47 1   
    49   21   22 ar  
    50   21   23 1   
    51   22   48 1   
    52   23   49 1   
    53   23   50 1   
    54   23   51 1   
@<TRIPOS>SUBSTRUCTURE
     1 QJ4         1 TEMP              0 ****  ****    0 ROOT
