@<TRIPOS>MOLECULE
QJ7
   50    52     1     0     0
SMALL
bcc


@<TRIPOS>ATOM
      1 F23        -8.0390    3.0300   -0.4670 f         1 QJ7     -0.141900
      2 C23        -7.5320    1.8920    0.0650 ca        1 QJ7      0.126900
      3 C24        -8.4020    0.8860    0.5240 ca        1 QJ7     -0.167000
      4 C25        -7.8650   -0.2770    1.0690 ca        1 QJ7     -0.103000
      5 C26        -6.4860   -0.4470    1.1610 ca        1 QJ7     -0.144000
      6 C22        -6.1380    1.7260    0.1550 ca        1 QJ7     -0.161000
      7 C21        -5.6170    0.5520    0.7050 ca        1 QJ7     -0.055300
      8 C20        -4.1440    0.3700    0.8160 c3        1 QJ7     -0.043100
      9 C19        -3.6420   -0.5790   -0.2780 c3        1 QJ7      0.166800
     10 N18        -2.2060   -0.7730   -0.2330 n3        1 QJ7     -0.826200
     11 C17        -1.7430   -1.7580   -1.1930 c3        1 QJ7      0.213100
     12 C15        -0.3150   -2.1610   -0.9960 ca        1 QJ7     -0.178600
     13 C14         0.6850   -1.2180   -0.7640 ca        1 QJ7     -0.104000
     14 C16         0.0490   -3.5250   -1.0800 ca        1 QJ7      0.362200
     15 N11         1.3100   -3.9660   -0.9510 nb        1 QJ7     -0.635000
     16 C12         2.2780   -3.0580   -0.7250 ca        1 QJ7      0.324200
     17 C13         2.0100   -1.6760   -0.6240 ca        1 QJ7      0.009800
     18 O09         2.9560   -0.6970   -0.4100 os        1 QJ7     -0.321900
     19 C08         4.2880   -1.1770   -0.1640 c3        1 QJ7      0.076100
     20 C06         5.1400    0.0400    0.1110 ca        1 QJ7      0.435600
     21 N01         6.1490   -0.1070    0.9990 nb        1 QJ7     -0.727000
     22 C02         6.9620    0.9730    1.2160 ca        1 QJ7      0.630200
     23 N02         8.0880    0.8220    2.0420 nh        1 QJ7     -0.922500
     24 C03         6.7400    2.2290    0.5700 ca        1 QJ7     -0.292300
     25 C04         5.6840    2.3510   -0.3290 ca        1 QJ7     -0.009300
     26 C05         4.8680    1.2370   -0.5720 ca        1 QJ7     -0.264300
     27 C07         5.4260    3.6290   -1.0300 c3        1 QJ7     -0.061800
     28 H1         -9.4890    1.0280    0.4480 ha        1 QJ7      0.149000
     29 H2         -8.5400   -1.0680    1.4300 ha        1 QJ7      0.138000
     30 H3         -6.0730   -1.3700    1.5950 ha        1 QJ7      0.136000
     31 H4         -5.4710    2.5220   -0.2070 ha        1 QJ7      0.151000
     32 H5         -3.6220    1.3600    0.7260 hc        1 QJ7      0.058700
     33 H6         -3.8970   -0.0500    1.8280 hc        1 QJ7      0.058700
     34 H7         -4.2110   -1.5530   -0.1880 h1        1 QJ7      0.035200
     35 H8         -3.8910   -0.1390   -1.2850 h1        1 QJ7      0.035200
     36 H9         -1.9060   -1.0100    0.6950 hn        1 QJ7      0.362800
     37 H11        -2.3870   -2.6900   -1.1880 h1        1 QJ7      0.042700
     38 H12        -1.8430   -1.2940   -2.2190 h1        1 QJ7      0.042700
     39 H13         0.4620   -0.1430   -0.6910 ha        1 QJ7      0.169000
     40 H14        -0.7150   -4.3010   -1.2640 h4        1 QJ7      0.023100
     41 H15         3.2980   -3.4650   -0.6230 h4        1 QJ7      0.028100
     42 H16         4.2750   -1.8890    0.7040 h1        1 QJ7      0.063700
     43 H17         4.6700   -1.6960   -1.0840 h1        1 QJ7      0.063700
     44 H18         8.1030    0.0020    2.6090 hn        1 QJ7      0.401300
     45 H19         8.3340    1.6530    2.5320 hn        1 QJ7      0.401300
     46 H20         7.4000    3.0820    0.7740 ha        1 QJ7      0.143000
     47 H21         4.0210    1.2950   -1.2700 ha        1 QJ7      0.157000
     48 H22         5.7800    3.5580   -2.0890 hc        1 QJ7      0.051033
     49 H23         4.3310    3.8560   -1.0420 hc        1 QJ7      0.051033
     50 H24         5.9590    4.4780   -0.5360 hc        1 QJ7      0.051033
@<TRIPOS>BOND
     1    1    2 1   
     2    2    3 ar  
     3    2    6 ar  
     4    3    4 ar  
     5    3   28 1   
     6    4    5 ar  
     7    4   29 1   
     8    5    7 ar  
     9    5   30 1   
    10    6    7 ar  
    11    6   31 1   
    12    7    8 1   
    13    8    9 1   
    14    8   32 1   
    15    8   33 1   
    16    9   10 1   
    17    9   34 1   
    18    9   35 1   
    19   10   11 1   
    20   10   36 1   
    21   11   12 1   
    22   11   37 1   
    23   11   38 1   
    24   12   13 ar  
    25   12   14 ar  
    26   13   17 ar  
    27   13   39 1   
    28   14   15 ar  
    29   14   40 1   
    30   15   16 ar  
    31   16   17 ar  
    32   16   41 1   
    33   17   18 1   
    34   18   19 1   
    35   19   20 1   
    36   19   42 1   
    37   19   43 1   
    38   20   21 ar  
    39   20   26 ar  
    40   21   22 ar  
    41   22   23 1   
    42   22   24 ar  
    43   23   44 1   
    44   23   45 1   
    45   24   25 ar  
    46   24   46 1   
    47   25   26 ar  
    48   25   27 1   
    49   26   47 1   
    50   27   48 1   
    51   27   49 1   
    52   27   50 1   
@<TRIPOS>SUBSTRUCTURE
     1 QJ7         1 TEMP              0 ****  ****    0 ROOT
