@<TRIPOS>MOLECULE
QJ7
   51    53     1     0     0
SMALL
bcc


@<TRIPOS>ATOM
      1 F23         0.2240    0.6190   -0.4800 f         1 QJ7     -0.121900
      2 C23         1.5730    0.6920   -0.4330 ca        1 QJ7      0.144900
      3 C24         2.2200    1.0260    0.7740 ca        1 QJ7     -0.138000
      4 C25         3.6090    1.0980    0.8030 ca        1 QJ7     -0.092000
      5 C26         4.3600    0.8400   -0.3440 ca        1 QJ7     -0.129000
      6 C22         2.3240    0.4340   -1.5930 ca        1 QJ7     -0.168000
      7 C21         3.7180    0.5070   -1.5410 ca        1 QJ7     -0.098300
      8 C20         4.5130    0.2530   -2.7750 c3        1 QJ7     -0.051100
      9 C19         4.5660   -1.2530   -3.0300 c3        1 QJ7      0.098800
     10 N18         5.3070   -1.5970   -4.2780 n4        1 QJ7     -0.768000
     11 C17         5.3560   -3.0800   -4.5150 c3        1 QJ7      0.180100
     12 C15         6.0540   -3.3870   -5.7910 ca        1 QJ7     -0.278600
     13 C14         5.3930   -3.2230   -7.0130 ca        1 QJ7     -0.119000
     14 C16         7.3760   -3.8770   -5.7870 ca        1 QJ7      0.393200
     15 N11         8.0410   -4.1980   -6.9120 nb        1 QJ7     -0.609000
     16 C12         7.4160   -4.0400   -8.0890 ca        1 QJ7      0.371200
     17 C13         6.0870   -3.5510   -8.1920 ca        1 QJ7      0.042800
     18 O09         5.3880   -3.3880   -9.3540 os        1 QJ7     -0.298900
     19 C08         6.1510   -3.4870  -10.5760 c3        1 QJ7      0.080100
     20 C06         5.2780   -2.8890  -11.6540 ca        1 QJ7      0.421600
     21 N01         5.1880   -1.5410  -11.7060 nb        1 QJ7     -0.726000
     22 C02         4.4020   -1.0010  -12.6890 ca        1 QJ7      0.641200
     23 N02         4.1980    0.3840  -12.7120 nh        1 QJ7     -0.928500
     24 C03         3.7220   -1.8210  -13.6480 ca        1 QJ7     -0.281300
     25 C04         3.8430   -3.2030  -13.5670 ca        1 QJ7      0.000700
     26 C05         4.6330   -3.7570  -12.5450 ca        1 QJ7     -0.270300
     27 C07         3.1630   -4.0880  -14.5400 c3        1 QJ7     -0.067800
     28 H1          1.6210    1.2310    1.6750 ha        1 QJ7      0.170000
     29 H2          4.1200    1.3660    1.7420 ha        1 QJ7      0.158000
     30 H3          5.4570    0.9110   -0.3030 ha        1 QJ7      0.140000
     31 H4          1.8020    0.1930   -2.5310 ha        1 QJ7      0.145000
     32 H5          4.0330    0.7800   -3.6440 hc        1 QJ7      0.072700
     33 H6          5.5510    0.6640   -2.6560 hc        1 QJ7      0.072700
     34 H7          5.0760   -1.7710   -2.1680 hx        1 QJ7      0.109700
     35 H8          3.5170   -1.6600   -3.1230 hx        1 QJ7      0.109700
     36 H9          4.8560   -1.1470   -5.0840 hn        1 QJ7      0.450800
     37 H11         5.8860   -3.5520   -3.6380 hx        1 QJ7      0.110700
     38 H12         4.2920   -3.4560   -4.5410 hx        1 QJ7      0.110700
     39 H13         4.3540   -2.8700   -7.0760 ha        1 QJ7      0.160000
     40 H14         7.9290   -4.0390   -4.8440 h4        1 QJ7      0.034100
     41 H15         7.9990   -4.3240   -8.9860 h4        1 QJ7      0.053100
     42 H16         6.3480   -4.5720  -10.7780 h1        1 QJ7      0.064200
     43 H17         7.1170   -2.9250  -10.4750 h1        1 QJ7      0.064200
     44 H18         4.8390    0.9370  -12.1890 hn        1 QJ7      0.411300
     45 H19         3.9740    0.7490  -13.6100 hn        1 QJ7      0.411300
     46 H20         3.1050   -1.3610  -14.4320 ha        1 QJ7      0.152000
     47 H21         4.7380   -4.8460  -12.4530 ha        1 QJ7      0.147000
     48 H22         3.9140   -4.5270  -15.2440 hc        1 QJ7      0.057367
     49 H23         2.4040   -3.5270  -15.1400 hc        1 QJ7      0.057367
     50 H24         2.6470   -4.9280  -14.0110 hc        1 QJ7      0.057367
     51 H182        6.2650   -1.2330   -4.2200 hn        1 QJ7      0.450800
@<TRIPOS>BOND
     1    1    2 1   
     2    2    3 ar  
     3    2    6 ar  
     4    3    4 ar  
     5    3   28 1   
     6    4    5 ar  
     7    4   29 1   
     8    5    7 ar  
     9    5   30 1   
    10    6    7 ar  
    11    6   31 1   
    12    7    8 1   
    13    8    9 1   
    14    8   32 1   
    15    8   33 1   
    16    9   10 1   
    17    9   34 1   
    18    9   35 1   
    19   10   11 1   
    20   10   36 1   
    21   10   51 1   
    22   11   12 1   
    23   11   37 1   
    24   11   38 1   
    25   12   13 ar  
    26   12   14 ar  
    27   13   17 ar  
    28   13   39 1   
    29   14   15 ar  
    30   14   40 1   
    31   15   16 ar  
    32   16   17 ar  
    33   16   41 1   
    34   17   18 1   
    35   18   19 1   
    36   19   20 1   
    37   19   42 1   
    38   19   43 1   
    39   20   21 ar  
    40   20   26 ar  
    41   21   22 ar  
    42   22   23 1   
    43   22   24 ar  
    44   23   44 1   
    45   23   45 1   
    46   24   25 ar  
    47   24   46 1   
    48   25   26 ar  
    49   25   27 1   
    50   26   47 1   
    51   27   48 1   
    52   27   49 1   
    53   27   50 1   
@<TRIPOS>SUBSTRUCTURE
     1 QJ7         1 TEMP              0 ****  ****    0 ROOT
