@<TRIPOS>MOLECULE
QJ7
   52    54     1     0     0
SMALL
bcc


@<TRIPOS>ATOM
      1 F23         0.2060    0.6080   -0.0560 f         1 QJ7     -0.118900
      2 C23         1.5160    0.3180    0.1130 ca        1 QJ7      0.147900
      3 C24         2.0150    0.0240    1.3980 ca        1 QJ7     -0.132000
      4 C25         3.3650   -0.2710    1.5520 ca        1 QJ7     -0.088000
      5 C26         4.2230   -0.2820    0.4500 ca        1 QJ7     -0.126000
      6 C22         2.3740    0.3140   -1.0000 ca        1 QJ7     -0.172000
      7 C21         3.7270    0.0090   -0.8240 ca        1 QJ7     -0.105300
      8 C20         4.6410    0.0290   -2.0010 c3        1 QJ7     -0.048100
      9 C19         4.3910   -1.2260   -2.8380 c3        1 QJ7      0.099800
     10 N18         5.2150   -1.2540   -4.0870 n4        1 QJ7     -0.767000
     11 C17         4.9460   -2.4800   -4.9050 c3        1 QJ7      0.172100
     12 C15         5.8200   -2.5480   -6.1090 ca        1 QJ7     -0.265600
     13 C14         5.2780   -2.4610   -7.3950 ca        1 QJ7     -0.080000
     14 C16         7.2070   -2.7720   -5.9670 ca        1 QJ7      0.392200
     15 N11         8.0440   -2.8910   -7.0110 nb        1 QJ7     -0.596000
     16 C12         7.5310   -2.8110   -8.2510 ca        1 QJ7      0.376200
     17 C13         6.1510   -2.6060   -8.4900 ca        1 QJ7      0.012800
     18 O09         5.5630   -2.5290   -9.7350 os        1 QJ7     -0.323900
     19 C08         6.4550   -2.7410  -10.8440 c3        1 QJ7      0.071100
     20 C06         5.6060   -2.7260  -12.0950 ca        1 QJ7      0.442600
     21 N01         6.2140   -2.3660  -13.2450 nb        1 QJ7     -0.660000
     22 C02         5.4570   -2.4040  -14.3770 ca        1 QJ7      0.454200
     23 N02         6.1450   -2.0210  -15.6320 n4        1 QJ7     -0.818300
     24 C03         4.1010   -2.7760  -14.4230 ca        1 QJ7     -0.201300
     25 C04         3.4850   -3.1390  -13.2100 ca        1 QJ7      0.007700
     26 C05         4.2460   -3.1150  -12.0380 ca        1 QJ7     -0.177300
     27 C07         2.0650   -3.5500  -13.1990 c3        1 QJ7     -0.084800
     28 H1          1.3330    0.0370    2.2630 ha        1 QJ7      0.174000
     29 H2          3.7630   -0.4940    2.5560 ha        1 QJ7      0.162000
     30 H3          5.2900   -0.5080    0.5940 ha        1 QJ7      0.141000
     31 H4          1.9730    0.5680   -1.9920 ha        1 QJ7      0.141000
     32 H5          5.7100    0.0630   -1.6590 hc        1 QJ7      0.073700
     33 H6          4.4440    0.9530   -2.6100 hc        1 QJ7      0.073700
     34 H7          4.6410   -2.1460   -2.2350 hx        1 QJ7      0.112200
     35 H8          3.3040   -1.2750   -3.1360 hx        1 QJ7      0.112200
     36 H9          5.0120   -0.4170   -4.6460 hn        1 QJ7      0.450800
     37 H11         3.8550   -2.4670   -5.1960 hx        1 QJ7      0.116200
     38 H12         5.1280   -3.3790   -4.2440 hx        1 QJ7      0.116200
     39 H13         4.2030   -2.3000   -7.5670 ha        1 QJ7      0.167000
     40 H14         7.6770   -2.8810   -4.9720 h4        1 QJ7      0.037100
     41 H15         8.2630   -2.9210   -9.0730 h4        1 QJ7      0.052100
     42 H16         7.2270   -1.9240  -10.8550 h1        1 QJ7      0.087700
     43 H17         6.9480   -3.7470  -10.7470 h1        1 QJ7      0.087700
     44 H18         5.4690   -2.0260  -16.4030 hn        1 QJ7      0.475800
     45 H19         6.9010   -2.6890  -15.8330 hn        1 QJ7      0.475800
     46 H20         3.5180   -2.7920  -15.3580 ha        1 QJ7      0.177000
     47 H21         3.8010   -3.3930  -11.0680 ha        1 QJ7      0.189000
     48 H22         1.6370   -3.4990  -12.1670 hc        1 QJ7      0.081033
     49 H23         1.9710   -4.6060  -13.5650 hc        1 QJ7      0.081033
     50 H24         1.4530   -2.8940  -13.8690 hc        1 QJ7      0.081033
     51 H182        6.2120   -1.2250   -3.8380 hn        1 QJ7      0.450800
     52 H023        6.5520   -1.0800  -15.5380 hn        1 QJ7      0.475800
@<TRIPOS>BOND
     1    1    2 1   
     2    2    3 ar  
     3    2    6 ar  
     4    3    4 ar  
     5    3   28 1   
     6    4    5 ar  
     7    4   29 1   
     8    5    7 ar  
     9    5   30 1   
    10    6    7 ar  
    11    6   31 1   
    12    7    8 1   
    13    8    9 1   
    14    8   32 1   
    15    8   33 1   
    16    9   10 1   
    17    9   34 1   
    18    9   35 1   
    19   10   11 1   
    20   10   36 1   
    21   10   51 1   
    22   11   12 1   
    23   11   37 1   
    24   11   38 1   
    25   12   13 ar  
    26   12   14 ar  
    27   13   17 ar  
    28   13   39 1   
    29   14   15 ar  
    30   14   40 1   
    31   15   16 ar  
    32   16   17 ar  
    33   16   41 1   
    34   17   18 1   
    35   18   19 1   
    36   19   20 1   
    37   19   42 1   
    38   19   43 1   
    39   20   21 ar  
    40   20   26 ar  
    41   21   22 ar  
    42   22   23 1   
    43   22   24 ar  
    44   23   44 1   
    45   23   45 1   
    46   23   52 1   
    47   24   25 ar  
    48   24   46 1   
    49   25   26 ar  
    50   25   27 1   
    51   26   47 1   
    52   27   48 1   
    53   27   49 1   
    54   27   50 1   
@<TRIPOS>SUBSTRUCTURE
     1 QJ7         1 TEMP              0 ****  ****    0 ROOT
