@<TRIPOS>MOLECULE
QJ7
   50    41     1     0     0
SMALL
bcc


@<TRIPOS>ATOM
      1 F23        -1.2730    0.4850    9.5190 f         1 QJ7     -0.107000
      2 C23        -0.3740    0.0050    8.6450 c1        1 QJ7      0.091000
      3 C24         0.2930   -1.1850    8.9170 c1        1 QJ7     -0.135000
      4 C25         1.1730   -1.7190    7.9840 c1        1 QJ7     -0.135000
      5 C26         1.3870   -1.0640    6.7760 c1        1 QJ7     -0.130500
      6 C22        -0.1600    0.6620    7.4360 c1        1 QJ7     -0.164000
      7 C21         0.7210    0.1270    6.5010 c1        1 QJ7     -0.008500
      8 C20         1.0660    0.9260    5.2170 c2        1 QJ7     -0.130000
      9 C19         0.1300    0.4880    4.0700 c3        1 QJ7     -0.070000
     10 N18         0.6410    0.9830    2.8170 n3        1 QJ7     -0.305000
     11 C17         0.0430    0.2450    1.7250 c3        1 QJ7     -0.032000
     12 C15         0.8840    0.4280    0.4680 c1        1 QJ7     -0.106000
     13 C14         0.2850    0.4150   -0.7670 c1        1 QJ7     -0.130500
     14 C16         2.2570    0.5730    0.5690 c1        1 QJ7     -0.085000
     15 N11         3.0160    0.7040   -0.5590 n1        1 QJ7     -0.111000
     16 C12         2.4210    0.6920   -1.7910 c1        1 QJ7     -0.138000
     17 C13         1.0450    0.5460   -1.8970 c1        1 QJ7     -0.008500
     18 O09         0.4060    0.7230   -3.1680 o         1 QJ7     -0.207000
     19 C08         0.5230   -0.3980   -4.0340 c3        1 QJ7      0.020000
     20 C06        -0.3970   -0.2070   -5.2440 c1        1 QJ7      0.013000
     21 N01        -0.3270    0.9430   -5.9810 n1        1 QJ7     -0.202000
     22 C02        -1.1040    1.0890   -7.0950 c1        1 QJ7      0.111000
     23 N02        -1.0090    2.2760   -7.8820 n3        1 QJ7     -0.321000
     24 C03        -1.9620    0.0720   -7.4790 c1        1 QJ7     -0.228000
     25 C04        -2.0330   -1.0790   -6.7420 c1        1 QJ7     -0.002000
     26 C05        -1.2560   -1.2250   -5.6270 c2        1 QJ7     -0.200000
     27 C07        -2.9350   -2.1970   -7.1800 c2        1 QJ7     -0.187000
     28 H1          0.1430   -1.6470    9.7680 ha        1 QJ7      0.143500
     29 H2          1.6420   -2.5570    8.1760 ha        1 QJ7      0.143500
     30 H3          2.0070   -1.4410    6.1190 ha        1 QJ7      0.147000
     31 H4         -0.6250    1.4930    7.2450 ha        1 QJ7      0.148000
     32 H5          0.9500    1.8820    5.3860 ha        1 QJ7      0.098500
     33 H6          2.0030    0.7490    4.9630 ha        1 QJ7      0.098500
     34 H7          0.0860   -0.4860    4.0410 h1        1 QJ7      0.074500
     35 H8         -0.7640    0.8500    4.2220 h1        1 QJ7      0.074500
     36 H9          0.4360    1.8730    2.7330 hn        1 QJ7      0.158000
     37 H11         0.0040   -0.7060    1.9570 h1        1 QJ7      0.081500
     38 H12        -0.8640    0.5790    1.5620 h1        1 QJ7      0.081500
     39 H13        -0.6870    0.3120   -0.8390 ha        1 QJ7      0.147000
     40 H14         2.6840    0.5830    1.4490 ha        1 QJ7      0.176000
     41 H15         2.9670    0.7860   -2.5980 ha        1 QJ7      0.165000
     42 H16         0.2640   -1.2120   -3.5520 h1        1 QJ7      0.103000
     43 H17         1.4480   -0.4800   -4.3380 h1        1 QJ7      0.103000
     44 H18        -1.5430    2.3800   -8.6240 hn        1 QJ7      0.197500
     45 H19        -0.3940    2.9170   -7.6690 hn        1 QJ7      0.197500
     46 H20        -2.5180    0.1770   -8.2770 ha        1 QJ7      0.143000
     47 H21        -1.3060   -2.0420   -5.1040 ha        1 QJ7      0.157000
     48 H22        -3.5470   -2.4280   -6.4490 ha        1 QJ7      0.090000
     49 H23        -3.4510   -1.9120   -7.9590 ha        1 QJ7      0.090000
     50 H24        -2.3970   -2.9770   -7.4140 ha        1 QJ7      0.090000
@<TRIPOS>BOND
     1    1    2 1   
     2    2    6 1   
     3    3    4 1   
     4    3   28 1   
     5    4   29 1   
     6    5    7 1   
     7    5   30 1   
     8    6   31 1   
     9    8    9 1   
    10    8   32 1   
    11    8   33 1   
    12    9   10 1   
    13    9   34 1   
    14    9   35 1   
    15   10   11 1   
    16   10   36 1   
    17   11   12 1   
    18   11   37 1   
    19   11   38 1   
    20   12   14 1   
    21   13   17 1   
    22   13   39 1   
    23   14   40 1   
    24   15   16 1   
    25   16   41 1   
    26   18   19 1   
    27   19   20 1   
    28   19   42 1   
    29   19   43 1   
    30   20   26 1   
    31   21   22 1   
    32   22   23 1   
    33   23   44 1   
    34   23   45 1   
    35   24   25 1   
    36   24   46 1   
    37   25   26 1   
    38   26   47 1   
    39   27   48 1   
    40   27   49 1   
    41   27   50 1   
@<TRIPOS>SUBSTRUCTURE
     1 QJ7         1 TEMP              0 ****  ****    0 ROOT
