@<TRIPOS>MOLECULE
QJ7
   51    53     1     0     0
SMALL
bcc


@<TRIPOS>ATOM
      1 F23         0.2960    0.8550   -0.5250 f         1 QJ7     -0.121900
      2 C23         1.6470    0.8720   -0.4720 ca        1 QJ7      0.144900
      3 C24         2.3020    1.1890    0.7350 ca        1 QJ7     -0.138000
      4 C25         3.6920    1.2030    0.7710 ca        1 QJ7     -0.092000
      5 C26         4.4380    0.9030   -0.3700 ca        1 QJ7     -0.129000
      6 C22         2.3920    0.5720   -1.6270 ca        1 QJ7     -0.168000
      7 C21         3.7880    0.5870   -1.5670 ca        1 QJ7     -0.098300
      8 C20         4.5770    0.2890   -2.7950 c3        1 QJ7     -0.051100
      9 C19         4.5700   -1.2200   -3.0360 c3        1 QJ7      0.098800
     10 N18         5.3030   -1.6060   -4.2770 ny        1 QJ7     -0.768000
     11 C17         5.2930   -3.0920   -4.5000 c3        1 QJ7      0.180100
     12 C15         5.9830   -3.4390   -5.7690 ca        1 QJ7     -0.278600
     13 C14         5.3350   -3.2600   -6.9960 ca        1 QJ7     -0.119000
     14 C16         7.2840   -3.9820   -5.7540 ca        1 QJ7      0.393200
     15 N11         7.9410   -4.3410   -6.8730 nb        1 QJ7     -0.609000
     16 C12         7.3280   -4.1680   -8.0540 ca        1 QJ7      0.371200
     17 C13         6.0210   -3.6270   -8.1680 ca        1 QJ7      0.042800
     18 O09         5.3340   -3.4460   -9.3360 os        1 QJ7     -0.298900
     19 C08         6.0980   -3.5860  -10.5530 c3        1 QJ7      0.080100
     20 C06         5.2550   -2.9630  -11.6400 ca        1 QJ7      0.421600
     21 N01         5.2200   -1.6130  -11.7040 nb        1 QJ7     -0.726000
     22 C02         4.4600   -1.0500  -12.6950 ca        1 QJ7      0.641200
     23 N02         4.3130    0.3420  -12.7310 nv        1 QJ7     -0.928500
     24 C03         3.7530   -1.8490  -13.6500 ca        1 QJ7     -0.281300
     25 C04         3.8180   -3.2350  -13.5580 ca        1 QJ7      0.000700
     26 C05         4.5790   -3.8120  -12.5280 ca        1 QJ7     -0.270300
     27 C07         3.1070   -4.0990  -14.5280 c3        1 QJ7     -0.067800
     28 H1          1.7080    1.4260    1.6310 ha        1 QJ7      0.170000
     29 H2          4.2100    1.4580    1.7100 ha        1 QJ7      0.158000
     30 H3          5.5370    0.9290   -0.3250 ha        1 QJ7      0.140000
     31 H4          1.8660    0.3440   -2.5650 ha        1 QJ7      0.145000
     32 H5          5.6310    0.6590   -2.6750 hc        1 QJ7      0.072700
     33 H6          4.1230    0.8270   -3.6710 hc        1 QJ7      0.072700
     34 H7          3.5060   -1.5850   -3.1300 hx        1 QJ7      0.109700
     35 H8          5.0550   -1.7510   -2.1670 hx        1 QJ7      0.109700
     36 H9          6.2740   -1.2810   -4.2180 hn        1 QJ7      0.450800
     37 H11         5.7990   -3.5760   -3.6150 hx        1 QJ7      0.110700
     38 H12         4.2140   -3.4250   -4.5270 hx        1 QJ7      0.110700
     39 H13         4.3110   -2.8650   -7.0680 ha        1 QJ7      0.160000
     40 H14         7.8260   -4.1570   -4.8070 h4        1 QJ7      0.034100
     41 H15         7.9030   -4.4840   -8.9460 h4        1 QJ7      0.053100
     42 H16         6.2510   -4.6810  -10.7450 h1        1 QJ7      0.064200
     43 H17         7.0850   -3.0630  -10.4520 h1        1 QJ7      0.064200
     44 H18         4.9740    0.8730  -12.2090 hn        1 QJ7      0.411300
     45 H19         4.1090    0.7080  -13.6330 hn        1 QJ7      0.411300
     46 H20         3.1580   -1.3710  -14.4410 ha        1 QJ7      0.152000
     47 H21         4.6400   -4.9030  -12.4250 ha        1 QJ7      0.147000
     48 H22         2.3550   -3.5180  -15.1160 hc        1 QJ7      0.057367
     49 H23         2.5790   -4.9300  -13.9980 hc        1 QJ7      0.057367
     50 H24         3.8410   -4.5500  -15.2430 hc        1 QJ7      0.057367
     51 H182        4.8730   -1.1450   -5.0890 hn        1 QJ7      0.450800
@<TRIPOS>BOND
     1    1    2 1   
     2    2    3 ar  
     3    2    6 ar  
     4    3    4 ar  
     5    3   28 1   
     6    4    5 ar  
     7    4   29 1   
     8    5    7 ar  
     9    5   30 1   
    10    6    7 ar  
    11    6   31 1   
    12    7    8 1   
    13    8    9 1   
    14    8   32 1   
    15    8   33 1   
    16    9   10 1   
    17    9   34 1   
    18    9   35 1   
    19   10   11 1   
    20   10   36 1   
    21   10   51 1   
    22   11   12 1   
    23   11   37 1   
    24   11   38 1   
    25   12   13 ar  
    26   12   14 ar  
    27   13   17 ar  
    28   13   39 1   
    29   14   15 ar  
    30   14   40 1   
    31   15   16 ar  
    32   16   17 ar  
    33   16   41 1   
    34   17   18 1   
    35   18   19 1   
    36   19   20 1   
    37   19   42 1   
    38   19   43 1   
    39   20   21 ar  
    40   20   26 ar  
    41   21   22 ar  
    42   22   23 1   
    43   22   24 ar  
    44   23   44 1   
    45   23   45 1   
    46   24   25 ar  
    47   24   46 1   
    48   25   26 ar  
    49   25   27 1   
    50   26   47 1   
    51   27   48 1   
    52   27   49 1   
    53   27   50 1   
@<TRIPOS>SUBSTRUCTURE
     1 QJ7         1 TEMP              0 ****  ****    0 ROOT
