@<TRIPOS>MOLECULE
QJ8
   55    57     1     0     0
SMALL
bcc


@<TRIPOS>ATOM
      1 N22        -0.0470   -0.2090   -0.1890 n4        1 QJ8     -0.817300
      2 C22         1.4280   -0.1150   -0.0800 ca        1 QJ8      0.447200
      3 C23         2.0280   -0.1850    1.1900 ca        1 QJ8     -0.209300
      4 C24         3.4320   -0.0930    1.2460 ca        1 QJ8     -0.001300
      5 C27         4.1240   -0.1760    2.5510 c3        1 QJ8     -0.080800
      6 C25         4.1440    0.0640    0.0560 ca        1 QJ8     -0.174300
      7 N21         2.1020    0.0350   -1.2540 nb        1 QJ8     -0.669000
      8 C26         3.4470    0.1230   -1.1770 ca        1 QJ8      0.452600
      9 C12         4.2020    0.3060   -2.4760 c3        1 QJ8      0.074100
     10 O11         5.5890    0.1440   -2.1940 os        1 QJ8     -0.433600
     11 C4'         6.3930    0.0670   -3.3770 c3        1 QJ8      0.119100
     12 C5'         6.7170    1.4750   -3.9320 c3        1 QJ8      0.122800
     13 N1'         8.1350    1.7520   -3.7540 n3        1 QJ8     -0.797200
     14 C3'         7.7400   -0.5360   -2.9590 c3        1 QJ8     -0.100400
     15 C2'         8.8060    0.5320   -3.2900 c3        1 QJ8      0.163500
     16 C10         9.7770   -0.0280   -4.3460 c3        1 QJ8      0.138400
     17 O09        10.9180    0.8350   -4.3490 os        1 QJ8     -0.426600
     18 C08        11.8760    0.4380   -5.3260 c3        1 QJ8      0.073100
     19 C06        12.9060    1.5430   -5.4170 ca        1 QJ8      0.454600
     20 N01        14.1310    1.2220   -5.8820 nb        1 QJ8     -0.667000
     21 C02        15.0320    2.2390   -5.9870 ca        1 QJ8      0.444200
     22 N02        16.3690    1.8650   -6.5060 n4        1 QJ8     -0.817300
     23 C03        14.7780    3.5780   -5.6440 ca        1 QJ8     -0.208300
     24 C04        13.4940    3.8890   -5.1560 ca        1 QJ8     -0.005300
     25 C05        12.5530    2.8650   -5.0450 ca        1 QJ8     -0.171300
     26 C07        13.1700    5.2780   -4.7650 c3        1 QJ8     -0.079800
     27 H1         -0.3030   -1.0270   -0.7570 hn        1 QJ8      0.472467
     28 H2         -0.4490   -0.3030    0.7490 hn        1 QJ8      0.472467
     29 H3          1.4490   -0.3070    2.1180 ha        1 QJ8      0.171000
     30 H4          3.5360    0.3390    3.3520 hc        1 QJ8      0.077033
     31 H5          5.1380    0.2940    2.4980 hc        1 QJ8      0.077033
     32 H6          4.2520   -1.2500    2.8450 hc        1 QJ8      0.077033
     33 H7          5.2450    0.1400    0.0570 ha        1 QJ8      0.197000
     34 H8          4.0190    1.3420   -2.8740 h1        1 QJ8      0.072200
     35 H9          3.8660   -0.4540   -3.2340 h1        1 QJ8      0.072200
     36 H10         5.8760   -0.5630   -4.1480 h1        1 QJ8      0.063700
     37 H11         6.0740    2.2500   -3.4330 h1        1 QJ8      0.061200
     38 H12         6.5040    1.4980   -5.0360 h1        1 QJ8      0.061200
     39 H13         8.2760    2.4950   -3.0970 hn        1 QJ8      0.367800
     40 H15         7.9230   -1.4880   -3.5130 hc        1 QJ8      0.072200
     41 H16         7.7440   -0.7630   -1.8640 hc        1 QJ8      0.072200
     42 H17         9.4200    0.7540   -2.3680 h1        1 QJ8      0.066700
     43 H18        10.1020   -1.0600   -4.0490 h1        1 QJ8      0.045200
     44 H19         9.3140   -0.0530   -5.3670 h1        1 QJ8      0.045200
     45 H20        11.3860    0.3170   -6.3320 h1        1 QJ8      0.070700
     46 H21        12.3420   -0.5360   -5.0140 h1        1 QJ8      0.070700
     47 H22        16.9650    2.6980   -6.5320 hn        1 QJ8      0.471467
     48 H23        16.2790    1.4760   -7.4530 hn        1 QJ8      0.471467
     49 H24        15.5330    4.3730   -5.7440 ha        1 QJ8      0.169000
     50 H25        11.5330    3.0590   -4.6680 ha        1 QJ8      0.201000
     51 H26        13.5480    5.4780   -3.7290 hc        1 QJ8      0.075700
     52 H27        13.6480    6.0130   -5.4600 hc        1 QJ8      0.075700
     53 H28        12.0640    5.4490   -4.7730 hc        1 QJ8      0.075700
     54 H223       -0.4190    0.6360   -0.6400 hn        1 QJ8      0.472467
     55 H023       16.7940    1.1550   -5.8960 hn        1 QJ8      0.471467
@<TRIPOS>BOND
     1    1    2 1   
     2    1   27 1   
     3    1   28 1   
     4    1   54 1   
     5    2    3 ar  
     6    2    7 ar  
     7    3    4 ar  
     8    3   29 1   
     9    4    5 1   
    10    4    6 ar  
    11    5   30 1   
    12    5   31 1   
    13    5   32 1   
    14    6    8 ar  
    15    6   33 1   
    16    7    8 ar  
    17    8    9 1   
    18    9   10 1   
    19    9   34 1   
    20    9   35 1   
    21   10   11 1   
    22   11   12 1   
    23   11   14 1   
    24   11   36 1   
    25   12   13 1   
    26   12   37 1   
    27   12   38 1   
    28   13   15 1   
    29   13   39 1   
    30   14   15 1   
    31   14   40 1   
    32   14   41 1   
    33   15   16 1   
    34   15   42 1   
    35   16   17 1   
    36   16   43 1   
    37   16   44 1   
    38   17   18 1   
    39   18   19 1   
    40   18   45 1   
    41   18   46 1   
    42   19   20 ar  
    43   19   25 ar  
    44   20   21 ar  
    45   21   22 1   
    46   21   23 ar  
    47   22   47 1   
    48   22   48 1   
    49   22   55 1   
    50   23   24 ar  
    51   23   49 1   
    52   24   25 ar  
    53   24   26 1   
    54   25   50 1   
    55   26   51 1   
    56   26   52 1   
    57   26   53 1   
@<TRIPOS>SUBSTRUCTURE
     1 QJ8         1 TEMP              0 ****  ****    0 ROOT
