@<TRIPOS>MOLECULE
QJ8
   53    55     1     0     0
SMALL
bcc


@<TRIPOS>ATOM
      1 N22         0.4700    1.1980    0.0870 nv        1 QJ8     -0.921500
      2 C22         1.7980    0.7390    0.0410 ca        1 QJ8      0.627200
      3 C23         2.4980    0.5220    1.2680 ca        1 QJ8     -0.294300
      4 C24         3.7760   -0.0290    1.2290 ca        1 QJ8     -0.011300
      5 C27         4.5300   -0.2840    2.4780 c3        1 QJ8     -0.060800
      6 C25         4.3380   -0.3530   -0.0130 ca        1 QJ8     -0.263300
      7 N21         2.3570    0.4470   -1.1740 nb        1 QJ8     -0.731000
      8 C26         3.5950   -0.0990   -1.1780 ca        1 QJ8      0.439600
      9 C12         4.1740   -0.4680   -2.5240 c3        1 QJ8      0.076100
     10 O11         5.5970   -0.4180   -2.4120 os        1 QJ8     -0.424600
     11 C4'         6.2520   -0.5850   -3.6690 c3        1 QJ8      0.123100
     12 C5'         6.3010    0.7460   -4.4570 c3        1 QJ8      0.125800
     13 N1'         7.6770    1.2140   -4.5300 n7        1 QJ8     -0.804200
     14 C3'         7.7130   -0.9400   -3.3670 c3        1 QJ8     -0.091400
     15 C2'         8.5490    0.2790   -3.8090 c3        1 QJ8      0.166500
     16 C10         9.7350   -0.1820   -4.6730 c3        1 QJ8      0.138400
     17 O09        10.6950    0.8730   -4.6250 os        1 QJ8     -0.424600
     18 C08        11.7870    0.6330   -5.5130 c3        1 QJ8      0.079100
     19 C06        12.7950    1.7410   -5.3140 ca        1 QJ8      0.441600
     20 N01        14.0780    1.4660   -5.6400 nb        1 QJ8     -0.731000
     21 C02        15.0000    2.4660   -5.4850 ca        1 QJ8      0.625200
     22 N02        16.3590    2.1820   -5.7130 nv        1 QJ8     -0.920500
     23 C03        14.6340    3.7680   -5.0250 ca        1 QJ8     -0.295300
     24 C04        13.3030    4.0210   -4.7000 ca        1 QJ8     -0.013300
     25 C05        12.3620    2.9940   -4.8460 ca        1 QJ8     -0.262300
     26 C07        12.8870    5.3500   -4.1980 c3        1 QJ8     -0.059800
     27 H1          0.0910    1.5070   -0.7820 hn        1 QJ8      0.398800
     28 H2          0.2970    1.8250    0.8420 hn        1 QJ8      0.398800
     29 H3          2.0300    0.7780    2.2280 ha        1 QJ8      0.141000
     30 H4          4.1240    0.3190    3.3270 hc        1 QJ8      0.049700
     31 H5          4.4560   -1.3680    2.7490 hc        1 QJ8      0.049700
     32 H6          5.6110   -0.0300    2.3450 hc        1 QJ8      0.049700
     33 H7          5.3460   -0.7830   -0.0860 ha        1 QJ8      0.159000
     34 H8          3.8300    0.2340   -3.3300 h1        1 QJ8      0.051200
     35 H9          3.8620   -1.5170   -2.7850 h1        1 QJ8      0.051200
     36 H10         5.7420   -1.3870   -4.2640 h1        1 QJ8      0.051700
     37 H11         5.6190    1.5000   -3.9790 h1        1 QJ8      0.052200
     38 H12         5.9490    0.5730   -5.5110 h1        1 QJ8      0.052200
     39 H13         7.7690    2.1360   -4.1500 hn        1 QJ8      0.366800
     40 H15         8.0030   -1.8590   -3.9320 hc        1 QJ8      0.064700
     41 H16         7.8540   -1.1360   -2.2760 hc        1 QJ8      0.064700
     42 H17         8.9870    0.7750   -2.8930 h1        1 QJ8      0.056700
     43 H18        10.1880   -1.1080   -4.2280 h1        1 QJ8      0.035700
     44 H19         9.4310   -0.3850   -5.7320 h1        1 QJ8      0.035700
     45 H20        12.2330   -0.3750   -5.2970 h1        1 QJ8      0.049700
     46 H21        11.4150    0.6560   -6.5740 h1        1 QJ8      0.049700
     47 H22        16.8660    2.9610   -6.0730 hn        1 QJ8      0.397300
     48 H23        16.5440    1.3310   -6.1990 hn        1 QJ8      0.397300
     49 H24        15.3930    4.5530   -4.9160 ha        1 QJ8      0.140000
     50 H25        11.3030    3.1510   -4.5970 ha        1 QJ8      0.161000
     51 H26        13.6200    6.1410   -4.4900 hc        1 QJ8      0.049033
     52 H27        12.8200    5.3270   -3.0800 hc        1 QJ8      0.049033
     53 H28        11.8820    5.6280   -4.6020 hc        1 QJ8      0.049033
@<TRIPOS>BOND
     1    1    2 1   
     2    1   27 1   
     3    1   28 1   
     4    2    3 ar  
     5    2    7 ar  
     6    3    4 ar  
     7    3   29 1   
     8    4    5 1   
     9    4    6 ar  
    10    5   30 1   
    11    5   31 1   
    12    5   32 1   
    13    6    8 ar  
    14    6   33 1   
    15    7    8 ar  
    16    8    9 1   
    17    9   10 1   
    18    9   34 1   
    19    9   35 1   
    20   10   11 1   
    21   11   12 1   
    22   11   14 1   
    23   11   36 1   
    24   12   13 1   
    25   12   37 1   
    26   12   38 1   
    27   13   15 1   
    28   13   39 1   
    29   14   15 1   
    30   14   40 1   
    31   14   41 1   
    32   15   16 1   
    33   15   42 1   
    34   16   17 1   
    35   16   43 1   
    36   16   44 1   
    37   17   18 1   
    38   18   19 1   
    39   18   45 1   
    40   18   46 1   
    41   19   20 ar  
    42   19   25 ar  
    43   20   21 ar  
    44   21   22 1   
    45   21   23 ar  
    46   22   47 1   
    47   22   48 1   
    48   23   24 ar  
    49   23   49 1   
    50   24   25 ar  
    51   24   26 1   
    52   25   50 1   
    53   26   51 1   
    54   26   52 1   
    55   26   53 1   
@<TRIPOS>SUBSTRUCTURE
     1 QJ8         1 TEMP              0 ****  ****    0 ROOT
