@<TRIPOS>MOLECULE
QJ8
   53    55     1     0     0
SMALL
bcc


@<TRIPOS>ATOM
      1 N22        -8.1090   -0.8340    1.6930 nh        1 QJ8     -0.921500
      2 C22        -7.0040   -0.7710    0.8250 ca        1 QJ8      0.627200
      3 C23        -6.9450   -1.6700   -0.2840 ca        1 QJ8     -0.294300
      4 C24        -5.9060   -1.5430   -1.2030 ca        1 QJ8     -0.011300
      5 C27        -5.8160   -2.4430   -2.3750 c3        1 QJ8     -0.060800
      6 C25        -4.9480   -0.5390   -1.0090 ca        1 QJ8     -0.263300
      7 N21        -6.0540    0.1940    1.0280 nb        1 QJ8     -0.731000
      8 C26        -5.0650    0.3000    0.1130 ca        1 QJ8      0.439600
      9 C12        -4.0570    1.4060    0.3210 c3        1 QJ8      0.076100
     10 O11        -2.8350    1.0020   -0.2980 os        1 QJ8     -0.424600
     11 C4'        -1.7570    1.8960   -0.0210 c3        1 QJ8      0.123100
     12 C5'        -1.1200    1.5950    1.3570 c3        1 QJ8      0.125800
     13 N1'         0.2210    1.0640    1.1630 n3        1 QJ8     -0.804200
     14 C3'        -0.6620    1.6090   -1.0550 c3        1 QJ8     -0.091400
     15 C2'         0.5040    0.9690   -0.2740 c3        1 QJ8      0.166500
     16 C10         1.8270    1.6580   -0.6450 c3        1 QJ8      0.138400
     17 O09         2.8650    0.7410   -0.3010 os        1 QJ8     -0.424600
     18 C08         4.1580    1.3240   -0.4580 c3        1 QJ8      0.079100
     19 C06         5.1850    0.2520   -0.1750 ca        1 QJ8      0.441600
     20 N01         6.4030    0.4070   -0.7410 nb        1 QJ8     -0.731000
     21 C02         7.3500   -0.5460   -0.4770 ca        1 QJ8      0.625200
     22 N02         8.5930   -0.4720   -1.1340 nh        1 QJ8     -0.920500
     23 C03         7.0890   -1.6540    0.3840 ca        1 QJ8     -0.295300
     24 C04         5.8250   -1.7840    0.9550 ca        1 QJ8     -0.013300
     25 C05         4.8520   -0.8170    0.6750 ca        1 QJ8     -0.262300
     26 C07         5.5070   -2.9320    1.8350 c3        1 QJ8     -0.059800
     27 H1         -8.4570   -1.7580    1.8200 hn        1 QJ8      0.398800
     28 H2         -8.0170   -0.3230    2.5440 hn        1 QJ8      0.398800
     29 H3         -7.7140   -2.4430   -0.4160 ha        1 QJ8      0.141000
     30 H4         -6.2100   -1.9210   -3.2840 hc        1 QJ8      0.049700
     31 H5         -4.7530   -2.7310   -2.5700 hc        1 QJ8      0.049700
     32 H6         -6.4140   -3.3740   -2.2180 hc        1 QJ8      0.049700
     33 H7         -4.1100   -0.4100   -1.7080 ha        1 QJ8      0.159000
     34 H8         -4.4300    2.3430   -0.1770 h1        1 QJ8      0.051200
     35 H9         -3.8830    1.6090    1.4120 h1        1 QJ8      0.051200
     36 H10        -2.1150    2.9570   -0.0760 h1        1 QJ8      0.051700
     37 H11        -1.0210    2.5500    1.9430 h1        1 QJ8      0.052200
     38 H12        -1.7770    0.8930    1.9390 h1        1 QJ8      0.052200
     39 H13         0.3250    0.1680    1.5960 hn        1 QJ8      0.366800
     40 H15        -1.0360    0.9100   -1.8420 hc        1 QJ8      0.064700
     41 H16        -0.3480    2.5610   -1.5460 hc        1 QJ8      0.064700
     42 H17         0.6030   -0.1140   -0.5850 h1        1 QJ8      0.056700
     43 H18         1.8580    1.8440   -1.7530 h1        1 QJ8      0.035700
     44 H19         1.9650    2.6270   -0.0990 h1        1 QJ8      0.035700
     45 H20         4.2630    1.7320   -1.4990 h1        1 QJ8      0.049700
     46 H21         4.2820    2.1610    0.2840 h1        1 QJ8      0.049700
     47 H22         8.7930    0.4000   -1.5750 hn        1 QJ8      0.397300
     48 H23         9.3460   -0.8190   -0.5840 hn        1 QJ8      0.397300
     49 H24         7.8700   -2.4000    0.5840 ha        1 QJ8      0.140000
     50 H25         3.8410   -0.8850    1.1010 ha        1 QJ8      0.161000
     51 H26         4.8440   -2.6120    2.6760 hc        1 QJ8      0.049033
     52 H27         4.9720   -3.7210    1.2480 hc        1 QJ8      0.049033
     53 H28         6.4350   -3.3820    2.2650 hc        1 QJ8      0.049033
@<TRIPOS>BOND
     1    1    2 1   
     2    1   27 1   
     3    1   28 1   
     4    2    3 ar  
     5    2    7 ar  
     6    3    4 ar  
     7    3   29 1   
     8    4    5 1   
     9    4    6 ar  
    10    5   30 1   
    11    5   31 1   
    12    5   32 1   
    13    6    8 ar  
    14    6   33 1   
    15    7    8 ar  
    16    8    9 1   
    17    9   10 1   
    18    9   34 1   
    19    9   35 1   
    20   10   11 1   
    21   11   12 1   
    22   11   14 1   
    23   11   36 1   
    24   12   13 1   
    25   12   37 1   
    26   12   38 1   
    27   13   15 1   
    28   13   39 1   
    29   14   15 1   
    30   14   40 1   
    31   14   41 1   
    32   15   16 1   
    33   15   42 1   
    34   16   17 1   
    35   16   43 1   
    36   16   44 1   
    37   17   18 1   
    38   18   19 1   
    39   18   45 1   
    40   18   46 1   
    41   19   20 ar  
    42   19   25 ar  
    43   20   21 ar  
    44   21   22 1   
    45   21   23 ar  
    46   22   47 1   
    47   22   48 1   
    48   23   24 ar  
    49   23   49 1   
    50   24   25 ar  
    51   24   26 1   
    52   25   50 1   
    53   26   51 1   
    54   26   52 1   
    55   26   53 1   
@<TRIPOS>SUBSTRUCTURE
     1 QJ8         1 TEMP              0 ****  ****    0 ROOT
