@<TRIPOS>MOLECULE
QJ8
   53    55     1     0     0
SMALL
bcc


@<TRIPOS>ATOM
      1 N22         0.4630    1.1750    0.0870 nh        1 QJ8     -0.921500
      2 C22         1.7940    0.7250    0.0400 ca        1 QJ8      0.627200
      3 C23         2.4980    0.5160    1.2650 ca        1 QJ8     -0.294300
      4 C24         3.7800   -0.0260    1.2250 ca        1 QJ8     -0.011300
      5 C27         4.5380   -0.2730    2.4730 c3        1 QJ8     -0.060800
      6 C25         4.3420   -0.3490   -0.0180 ca        1 QJ8     -0.263300
      7 N21         2.3530    0.4330   -1.1760 nb        1 QJ8     -0.731000
      8 C26         3.5940   -0.1030   -1.1820 ca        1 QJ8      0.439600
      9 C12         4.1720   -0.4720   -2.5280 c3        1 QJ8      0.076100
     10 O11         5.5960   -0.4190   -2.4180 os        1 QJ8     -0.424600
     11 C4'         6.2500   -0.5840   -3.6760 c3        1 QJ8      0.123100
     12 C5'         6.2960    0.7490   -4.4620 c3        1 QJ8      0.125800
     13 N1'         7.6710    1.2200   -4.5340 n3        1 QJ8     -0.804200
     14 C3'         7.7110   -0.9380   -3.3770 c3        1 QJ8     -0.091400
     15 C2'         8.5450    0.2820   -3.8170 c3        1 QJ8      0.166500
     16 C10         9.7300   -0.1750   -4.6840 c3        1 QJ8      0.138400
     17 O09        10.6910    0.8790   -4.6320 os        1 QJ8     -0.424600
     18 C08        11.7780    0.6460   -5.5270 c3        1 QJ8      0.079100
     19 C06        12.7910    1.7480   -5.3180 ca        1 QJ8      0.441600
     20 N01        14.0710    1.4740   -5.6600 nb        1 QJ8     -0.731000
     21 C02        14.9970    2.4680   -5.4960 ca        1 QJ8      0.625200
     22 N02        16.3540    2.1840   -5.7410 nh        1 QJ8     -0.920500
     23 C03        14.6400    3.7630   -5.0110 ca        1 QJ8     -0.295300
     24 C04        13.3130    4.0150   -4.6710 ca        1 QJ8     -0.013300
     25 C05        12.3670    2.9940   -4.8260 ca        1 QJ8     -0.262300
     26 C07        12.9050    5.3370   -4.1430 c3        1 QJ8     -0.059800
     27 H1          0.2870    1.8020    0.8400 hn        1 QJ8      0.398800
     28 H2          0.0800    1.4790   -0.7810 hn        1 QJ8      0.398800
     29 H3          2.0310    0.7710    2.2250 ha        1 QJ8      0.141000
     30 H4          4.1290    0.3270    3.3220 hc        1 QJ8      0.049700
     31 H5          4.4760   -1.3570    2.7450 hc        1 QJ8      0.049700
     32 H6          5.6160   -0.0080    2.3370 hc        1 QJ8      0.049700
     33 H7          5.3520   -0.7730   -0.0920 ha        1 QJ8      0.159000
     34 H8          3.8620   -1.5210   -2.7890 h1        1 QJ8      0.051200
     35 H9          3.8260    0.2300   -3.3340 h1        1 QJ8      0.051200
     36 H10         5.7390   -1.3850   -4.2720 h1        1 QJ8      0.051700
     37 H11         5.6120    1.5010   -3.9830 h1        1 QJ8      0.052200
     38 H12         5.9440    0.5770   -5.5160 h1        1 QJ8      0.052200
     39 H13         7.7630    2.1400   -4.1510 hn        1 QJ8      0.366800
     40 H15         7.8530   -1.1360   -2.2860 hc        1 QJ8      0.064700
     41 H16         8.0010   -1.8550   -3.9440 hc        1 QJ8      0.064700
     42 H17         8.9850    0.7770   -2.9000 h1        1 QJ8      0.056700
     43 H18        10.1840   -1.1030   -4.2440 h1        1 QJ8      0.035700
     44 H19         9.4250   -0.3730   -5.7430 h1        1 QJ8      0.035700
     45 H20        11.4020    0.6830   -6.5860 h1        1 QJ8      0.049700
     46 H21        12.2220   -0.3660   -5.3240 h1        1 QJ8      0.049700
     47 H22        16.5310    1.3400   -6.2430 hn        1 QJ8      0.397300
     48 H23        16.8600    2.9660   -6.0920 hn        1 QJ8      0.397300
     49 H24        15.4030    4.5450   -4.8960 ha        1 QJ8      0.140000
     50 H25        11.3110    3.1510   -4.5660 ha        1 QJ8      0.161000
     51 H26        13.6390    6.1310   -4.4270 hc        1 QJ8      0.049033
     52 H27        11.8990    5.6260   -4.5350 hc        1 QJ8      0.049033
     53 H28        12.8470    5.2950   -3.0260 hc        1 QJ8      0.049033
@<TRIPOS>BOND
     1    1    2 1   
     2    1   27 1   
     3    1   28 1   
     4    2    3 ar  
     5    2    7 ar  
     6    3    4 ar  
     7    3   29 1   
     8    4    5 1   
     9    4    6 ar  
    10    5   30 1   
    11    5   31 1   
    12    5   32 1   
    13    6    8 ar  
    14    6   33 1   
    15    7    8 ar  
    16    8    9 1   
    17    9   10 1   
    18    9   34 1   
    19    9   35 1   
    20   10   11 1   
    21   11   12 1   
    22   11   14 1   
    23   11   36 1   
    24   12   13 1   
    25   12   37 1   
    26   12   38 1   
    27   13   15 1   
    28   13   39 1   
    29   14   15 1   
    30   14   40 1   
    31   14   41 1   
    32   15   16 1   
    33   15   42 1   
    34   16   17 1   
    35   16   43 1   
    36   16   44 1   
    37   17   18 1   
    38   18   19 1   
    39   18   45 1   
    40   18   46 1   
    41   19   20 ar  
    42   19   25 ar  
    43   20   21 ar  
    44   21   22 1   
    45   21   23 ar  
    46   22   47 1   
    47   22   48 1   
    48   23   24 ar  
    49   23   49 1   
    50   24   25 ar  
    51   24   26 1   
    52   25   50 1   
    53   26   51 1   
    54   26   52 1   
    55   26   53 1   
@<TRIPOS>SUBSTRUCTURE
     1 QJ8         1 TEMP              0 ****  ****    0 ROOT
