@<TRIPOS>MOLECULE
QJ9
   58    55     1     0     0
SMALL
bcc


@<TRIPOS>ATOM
      1 N1          0.0630    0.0080   -0.3270 n2        1 QJ9     -0.200000
      2 N3          1.9900    0.4990   -1.7190 n2        1 QJ9     -0.158000
      3 C4          1.3220    0.4810   -0.4490 c2        1 QJ9      0.078000
      4 C5         -1.9100   -0.3750    1.0120 c2        1 QJ9      0.073000
      5 C6         -2.7730   -0.9400    0.0660 c2        1 QJ9     -0.204000
      6 C7         -3.8180   -0.8620    2.1010 c2        1 QJ9     -0.104000
      7 C8         -3.9780   -1.2470    0.7580 c2        1 QJ9     -0.075000
      8 C10        -6.6270   -1.9120    2.3110 c1        1 QJ9     -0.190000
      9 C13         4.5620    3.4810   -0.0010 c2        1 QJ9     -0.239000
     10 C15         4.0530   -0.7850   -5.4230 c2        1 QJ9     -0.231500
     11 C17         1.9010   -0.4790   -2.5380 c2        1 QJ9     -0.044000
     12 C20         7.6530   -0.5430   -0.7310 c2        1 QJ9     -0.450000
     13 C21         8.9450   -0.5110   -1.0030 c1        1 QJ9      0.219000
     14 C22        11.0410    0.6900   -3.3280 c2        1 QJ9     -0.546000
     15 C24         7.5920    2.5080   -3.4820 c1        1 QJ9     -0.167000
     16 C26         6.2890   -1.2470    2.5660 c3        1 QJ9     -0.281000
     17 N5          6.5160   -0.2270   -1.5340 n         1 QJ9     -0.088000
     18 C18         5.7350    0.9010   -1.0010 c2        1 QJ9      0.443000
     19 O2          4.9700    0.6960   -0.0440 o         1 QJ9     -0.328000
     20 C23        10.3520    1.5390   -4.0320 c1        1 QJ9      0.135000
     21 C19         6.7980    2.3390   -2.5990 c1        1 QJ9     -0.111000
     22 N4          5.9170    2.1650   -1.5820 n         1 QJ9     -0.131000
     23 C14         5.1350    3.2860   -1.1950 c2        1 QJ9     -0.031000
     24 C16         3.2880    0.1990   -5.8780 c2        1 QJ9     -0.231500
     25 N2          2.0120    1.0620    0.6460 n3        1 QJ9     -0.127000
     26 C1          1.4350    1.2000    1.8490 c1        1 QJ9     -0.103000
     27 C2          0.0860    0.7280    1.9940 c2        1 QJ9     -0.209000
     28 C3         -0.5500    0.1380    0.9090 c2        1 QJ9      0.045000
     29 C9         -7.2350   -2.3710    1.3870 c1        1 QJ9     -0.226000
     30 C11        -5.9160   -1.3650    3.4320 c3        1 QJ9     -0.072000
     31 C12        -4.5640   -0.8750    3.2740 c1        1 QJ9     -0.075000
     32 O1         -2.5110   -0.3150    2.2500 os        1 QJ9     -0.048000
     33 H6         -2.5550   -1.1050   -0.9860 ha        1 QJ9      0.178000
     34 H10        -7.7770   -2.7780    0.5720 ha        1 QJ9      0.221000
     35 H13         3.9770    4.3930    0.1780 ha        1 QJ9      0.144500
     36 H13A        4.6240    2.7850    0.8460 ha        1 QJ9      0.144500
     37 H15         4.6730   -0.6910   -4.5150 ha        1 QJ9      0.116000
     38 H15A        4.1210   -1.7580   -5.9270 ha        1 QJ9      0.116000
     39 H17         2.4460   -0.3700   -3.5020 h4        1 QJ9      0.141500
     40 H17A        1.3500   -1.4270   -2.3930 h4        1 QJ9      0.141500
     41 H21         7.3810   -0.8700    0.3110 h4        1 QJ9      0.220000
     42 H22        12.0370    0.3110   -3.6110 ha        1 QJ9      0.205000
     43 H24         8.3150    2.6450   -4.2550 ha        1 QJ9      0.271000
     44 H26         5.6790   -0.6210    1.8750 hc        1 QJ9      0.071000
     45 H26A        7.2600   -0.7440    2.7700 hc        1 QJ9      0.071000
     46 H26B        5.7370   -1.3810    3.5220 hc        1 QJ9      0.071000
     47 H25         6.4740   -2.2420    2.1070 hc        1 QJ9      0.071000
     48 H25A        6.6500   -1.7290   -2.9510 ha        1 QJ9      0.078000
     49 H23        10.6880    0.2660   -2.3670 ha        1 QJ9      0.205000
     50 H14         5.0550    4.0310   -2.0130 h4        1 QJ9      0.158000
     51 H16         3.2220    1.1760   -5.3800 ha        1 QJ9      0.116000
     52 H16A        2.6750    0.1060   -6.7840 ha        1 QJ9      0.116000
     53 H1          2.9590    1.3680    0.5150 hn        1 QJ9      0.286000
     54 H2         -0.4080    0.8400    2.9690 ha        1 QJ9      0.182000
     55 H9         -4.8760   -1.6990    0.3340 ha        1 QJ9      0.174000
     56 H11        -6.5090   -0.4970    3.8620 hc        1 QJ9      0.153000
     57 H12        -5.8660   -2.1440    4.2570 hc        1 QJ9      0.153000
     58 C25         6.0840   -0.8480   -2.5930 c1        1 QJ9     -0.125000
@<TRIPOS>BOND
     1    1    3 1   
     2    1   28 1   
     3    2    3 1   
     4    2   11 1   
     5    3   25 1   
     6    4    5 1   
     7    4   28 1   
     8    4   32 1   
     9    5    7 1   
    10    5   33 1   
    11    6    7 1   
    12    6   31 1   
    13    6   32 1   
    14    7   55 1   
    15    8   29 1   
    16    8   30 1   
    17    9   23 1   
    18    9   35 1   
    19    9   36 1   
    20   10   24 1   
    21   10   37 1   
    22   10   38 1   
    23   11   39 1   
    24   11   40 1   
    25   12   13 1   
    26   12   17 1   
    27   12   41 1   
    28   14   20 1   
    29   14   42 1   
    30   14   49 1   
    31   15   21 1   
    32   15   43 1   
    33   16   44 1   
    34   16   45 1   
    35   16   46 1   
    36   16   47 1   
    37   17   18 1   
    38   17   58 1   
    39   18   19 1   
    40   18   22 1   
    41   21   22 1   
    42   22   23 1   
    43   23   50 1   
    44   24   51 1   
    45   24   52 1   
    46   25   26 1   
    47   25   53 1   
    48   26   27 1   
    49   27   28 1   
    50   27   54 1   
    51   29   34 1   
    52   30   31 1   
    53   30   56 1   
    54   30   57 1   
    55   48   58 1   
@<TRIPOS>SUBSTRUCTURE
     1 QJ9         1 TEMP              0 ****  ****    0 ROOT
