@<TRIPOS>MOLECULE
QJ9
   58    63     1     0     0
SMALL
bcc


@<TRIPOS>ATOM
      1 N1          2.0790   -0.2470   -0.0480 nb        1 QJ9     -0.743000
      2 N3         -0.2360   -0.8570   -0.3130 nh        1 QJ9     -0.717300
      3 C4          0.7500   -0.0170    0.2760 ca        1 QJ9      0.869900
      4 C5          4.4090    0.2370    0.2990 cc        1 QJ9     -0.057700
      5 C6          5.0290   -0.6220   -0.5810 cd        1 QJ9     -0.102200
      6 C7          6.5980    0.6240    0.5400 ca        1 QJ9      0.073100
      7 C8          6.4560   -0.3980   -0.4500 ca        1 QJ9     -0.120800
      8 C10         8.8390   -0.4390   -0.6390 ca        1 QJ9     -0.152000
      9 C13        -1.5970   -0.3440   -0.3250 c3        1 QJ9      0.163800
     10 C15        -2.2560   -2.0500   -2.0570 c3        1 QJ9     -0.093400
     11 C17         0.1580   -1.5870   -1.5120 c3        1 QJ9      0.191800
     12 C20        -5.7940    0.1460    0.3140 ca        1 QJ9     -0.008400
     13 C21        -6.7510    0.3610    1.2980 ca        1 QJ9     -0.124000
     14 C22        -6.7270   -0.4590    2.4310 ca        1 QJ9     -0.128000
     15 C24        -4.7990   -1.7000    1.6060 ca        1 QJ9     -0.121000
     16 C26        -5.3650    3.2060   -0.4330 c3        1 QJ9     -0.129100
     17 N5         -5.6060    0.7560   -0.9500 n         1 QJ9     -0.330000
     18 C18        -4.4110    0.1830   -1.5170 c         1 QJ9      0.770500
     19 O2         -3.9010    0.5230   -2.5980 o         1 QJ9     -0.620500
     20 C23        -5.7750   -1.4650    2.5800 ca        1 QJ9     -0.129000
     21 C19        -4.8010   -0.8990    0.4700 ca        1 QJ9     -0.009400
     22 N4         -3.9980   -0.9300   -0.6980 n         1 QJ9     -0.330000
     23 C14        -2.6420   -1.4370   -0.7040 c3        1 QJ9      0.110700
     24 C16        -0.8680   -2.6320   -1.9450 c3        1 QJ9     -0.084400
     25 N2          0.3330    0.9360    1.2060 nb        1 QJ9     -0.739000
     26 C1          1.2940    1.6230    1.8340 ca        1 QJ9      0.459200
     27 C2          2.6670    1.4410    1.5940 ca        1 QJ9     -0.387600
     28 C3          3.0100    0.4780    0.6220 ca        1 QJ9      0.548100
     29 C9          7.6000   -0.9290   -1.0410 ca        1 QJ9     -0.074000
     30 C11         8.9540    0.5660    0.3350 ca        1 QJ9     -0.104000
     31 C12         7.8320    1.1200    0.9480 ca        1 QJ9     -0.127000
     32 O1          5.3480    1.0260    1.0110 os        1 QJ9     -0.199200
     33 H6          4.5500   -1.3360   -1.2480 ha        1 QJ9      0.178000
     34 H10         9.7550   -0.8450   -1.0940 ha        1 QJ9      0.135000
     35 H13        -1.8580    0.0330    0.7040 h1        1 QJ9      0.067700
     36 H13A       -1.6940    0.5110   -1.0570 h1        1 QJ9      0.067700
     37 H15        -2.9860   -2.8520   -2.3400 hc        1 QJ9      0.069200
     38 H15A       -2.2910   -1.2600   -2.8540 hc        1 QJ9      0.069200
     39 H17         0.3300   -0.8700   -2.3670 h1        1 QJ9      0.057700
     40 H17A        1.1250   -2.1270   -1.3070 h1        1 QJ9      0.057700
     41 H21        -7.5070    1.1510    1.1900 ha        1 QJ9      0.142000
     42 H22        -7.4810   -0.3030    3.2170 ha        1 QJ9      0.135000
     43 H24        -4.0570   -2.5000    1.7430 ha        1 QJ9      0.144000
     44 H26        -5.5630    3.0660    0.6570 hc        1 QJ9      0.047367
     45 H26A       -4.2610    3.2330   -0.5940 hc        1 QJ9      0.047367
     46 H26B       -5.7940    4.1870   -0.7510 hc        1 QJ9      0.047367
     47 H25        -7.1300    2.1430   -1.1070 h1        1 QJ9      0.070200
     48 H25A       -5.7860    2.2700   -2.3480 h1        1 QJ9      0.070200
     49 H23        -5.7860   -2.0930    3.4840 ha        1 QJ9      0.136000
     50 H14        -2.6060   -2.2520    0.0810 h1        1 QJ9      0.075700
     51 H16        -0.8700   -3.4860   -1.2170 hc        1 QJ9      0.053700
     52 H16A       -0.5460   -3.0340   -2.9410 hc        1 QJ9      0.053700
     53 H1          0.9400    2.3680    2.5710 h4        1 QJ9      0.028100
     54 H2          3.4340    2.0160    2.1240 ha        1 QJ9      0.170000
     55 H9          7.5230   -1.7150   -1.8050 ha        1 QJ9      0.141000
     56 H11         9.9540    0.9230    0.6220 ha        1 QJ9      0.137000
     57 H12         7.9110    1.9050    1.7100 ha        1 QJ9      0.151000
     58 C25        -6.0120    2.1020   -1.2540 c3        1 QJ9      0.091000
@<TRIPOS>BOND
     1    1    3 ar  
     2    1   28 ar  
     3    2    3 1   
     4    2    9 1   
     5    2   11 1   
     6    3   25 ar  
     7    4    5 2   
     8    4   28 1   
     9    4   32 1   
    10    5    7 1   
    11    5   33 1   
    12    6    7 ar  
    13    6   31 ar  
    14    6   32 1   
    15    7   29 ar  
    16    8   29 ar  
    17    8   30 ar  
    18    8   34 1   
    19    9   23 1   
    20    9   35 1   
    21    9   36 1   
    22   10   23 1   
    23   10   24 1   
    24   10   37 1   
    25   10   38 1   
    26   11   24 1   
    27   11   39 1   
    28   11   40 1   
    29   12   13 ar  
    30   12   17 1   
    31   12   21 ar  
    32   13   14 ar  
    33   13   41 1   
    34   14   20 ar  
    35   14   42 1   
    36   15   20 ar  
    37   15   21 ar  
    38   15   43 1   
    39   16   44 1   
    40   16   45 1   
    41   16   46 1   
    42   16   58 1   
    43   17   18 1   
    44   17   58 1   
    45   18   19 2   
    46   18   22 1   
    47   20   49 1   
    48   21   22 1   
    49   22   23 1   
    50   23   50 1   
    51   24   51 1   
    52   24   52 1   
    53   25   26 ar  
    54   26   27 ar  
    55   26   53 1   
    56   27   28 ar  
    57   27   54 1   
    58   29   55 1   
    59   30   31 ar  
    60   30   56 1   
    61   31   57 1   
    62   47   58 1   
    63   48   58 1   
@<TRIPOS>SUBSTRUCTURE
     1 QJ9         1 TEMP              0 ****  ****    0 ROOT
