@<TRIPOS>MOLECULE
QJ9
   58    53     1     0     0
SMALL
bcc


@<TRIPOS>ATOM
      1 N1         -2.6890   -0.3420    0.4400 n1        1 QJ9     -0.217000
      2 N3         -0.6340   -0.5440   -0.8140 n3        1 QJ9     -0.208000
      3 C4         -1.3560   -0.6060    0.4160 c2        1 QJ9      0.151000
      4 C5         -4.6640    0.1400    1.8190 c2        1 QJ9      0.008000
      5 C6         -5.8800   -0.5480    1.7590 c1        1 QJ9     -0.114000
      6 C7         -6.3330    1.6120    2.0930 c1        1 QJ9      0.028000
      7 C8         -6.9040    0.3760    1.9300 c1        1 QJ9     -0.109000
      8 C10        -9.1150    1.4020    1.9100 c1        1 QJ9     -0.117833
      9 C13         0.7780   -0.2460   -0.5290 c3        1 QJ9     -0.073000
     10 C15         1.4810   -1.5900   -2.5250 c3        1 QJ9     -0.172000
     11 C17        -0.8140   -1.8220   -1.5630 c3        1 QJ9     -0.045000
     12 C20         5.1940    0.5730   -1.2080 c1        1 QJ9     -0.001000
     13 C21         6.2590    1.4530   -1.4040 c2        1 QJ9     -0.124000
     14 C22         6.0760    2.6150   -2.1580 c1        1 QJ9     -0.128000
     15 C24         3.7710    2.0140   -2.5160 c1        1 QJ9     -0.117833
     16 C26         6.3560   -0.9820    1.5640 c3        1 QJ9     -0.247000
     17 C25         6.2030   -1.4170    0.1150 c3        1 QJ9     -0.025000
     18 N5          5.0950   -0.6870   -0.4990 n2        1 QJ9     -0.233000
     19 C18         3.7680   -1.1130   -0.5630 c2        1 QJ9      0.361000
     20 O2          3.3060   -2.1210   -0.0330 o         1 QJ9     -0.345000
     21 C23         4.8380    2.8940   -2.7120 c1        1 QJ9     -0.117833
     22 C19         3.9520    0.8530   -1.7630 c1        1 QJ9     -0.002000
     23 N4          3.0490   -0.1890   -1.3720 n         1 QJ9     -0.233000
     24 C14         1.6520   -0.3110   -1.7740 c3        1 QJ9      0.034000
     25 C16         0.0550   -1.8890   -2.8130 c3        1 QJ9     -0.163000
     26 N2         -0.7000   -0.9230    1.5720 n2        1 QJ9     -0.213000
     27 C1         -1.3670   -0.9750    2.7310 c1        1 QJ9     -0.006000
     28 C2         -2.7090   -0.7100    2.7610 c1        1 QJ9     -0.257000
     29 C3         -3.3660   -0.3940    1.6100 c1        1 QJ9      0.110000
     30 C9         -8.3060    0.2550    1.8360 c1        1 QJ9     -0.117833
     31 C11        -8.5350    2.6490    2.0740 c1        1 QJ9     -0.117833
     32 C12        -7.1520    2.7680    2.1670 c1        1 QJ9     -0.117833
     33 O1         -4.9360    1.4600    2.0220 o         1 QJ9     -0.110000
     34 H6         -5.9910   -1.5260    1.6320 DU        1 QJ9      0.178000
     35 H10       -10.0990    1.3180    1.8440 ha        1 QJ9      0.140667
     36 H13         0.8430    0.6760   -0.1320 h1        1 QJ9      0.107000
     37 H13A        1.1040   -0.8840    0.1140 h1        1 QJ9      0.107000
     38 H15         1.8560   -2.3180   -1.9990 hc        1 QJ9      0.108500
     39 H15A        1.9750   -1.5260   -3.3820 hc        1 QJ9      0.108500
     40 H17        -0.5780   -2.5720   -0.9720 h1        1 QJ9      0.097000
     41 H17A       -1.7720   -1.9090   -1.8290 h1        1 QJ9      0.097000
     42 H21         7.1490    1.2530   -1.0060 ha        1 QJ9      0.142000
     43 H22         6.8290    3.2380   -2.2970 ha        1 QJ9      0.135000
     44 H24         2.8790    2.2150   -2.9150 ha        1 QJ9      0.140667
     45 H26         7.3010   -0.7360    1.7360 hc        1 QJ9      0.086667
     46 H26A        5.7790   -0.2070    1.7360 hc        1 QJ9      0.086667
     47 H26B        6.0980   -1.7220    2.1590 hc        1 QJ9      0.086667
     48 H25         7.0350   -1.2240   -0.3750 h1        1 QJ9      0.109500
     49 H25A        6.0200   -2.3800    0.0810 h1        1 QJ9      0.109500
     50 H23         4.7100    3.7080   -3.2410 ha        1 QJ9      0.140667
     51 H14         1.4180    0.4480   -2.3720 h1        1 QJ9      0.115000
     52 H16        -0.0100   -2.7990   -3.2030 hc        1 QJ9      0.093000
     53 H16A       -0.2790   -1.2380   -3.4670 hc        1 QJ9      0.093000
     54 H1         -0.8870   -1.2050    3.5680 ha        1 QJ9      0.165000
     55 H2         -3.1990   -0.7490    3.6140 ha        1 QJ9      0.170000
     56 H9         -8.7150   -0.6250    1.7210 ha        1 QJ9      0.140667
     57 H11        -9.0990    3.4470    2.1250 ha        1 QJ9      0.140667
     58 H12        -6.7370    3.6640    2.2850 ha        1 QJ9      0.140667
@<TRIPOS>BOND
     1    1    3 1   
     2    2    3 1   
     3    2    9 1   
     4    2   11 1   
     5    3   26 1   
     6    4    5 1   
     7    4   29 1   
     8    4   33 1   
     9    5    7 1   
    10    6    7 1   
    11    8   30 1   
    12    8   35 1   
    13    9   24 1   
    14    9   36 1   
    15    9   37 1   
    16   10   24 1   
    17   10   25 1   
    18   10   38 1   
    19   10   39 1   
    20   11   25 1   
    21   11   40 1   
    22   11   41 1   
    23   12   13 1   
    24   12   22 1   
    25   13   14 1   
    26   13   42 1   
    27   14   43 1   
    28   15   21 1   
    29   15   44 1   
    30   16   17 1   
    31   16   45 1   
    32   16   46 1   
    33   16   47 1   
    34   17   18 1   
    35   17   48 1   
    36   17   49 1   
    37   18   19 1   
    38   19   20 1   
    39   19   23 1   
    40   21   50 1   
    41   22   23 1   
    42   23   24 1   
    43   24   51 1   
    44   25   52 1   
    45   25   53 1   
    46   26   27 1   
    47   27   54 1   
    48   28   29 1   
    49   28   55 1   
    50   30   56 1   
    51   31   32 1   
    52   31   57 1   
    53   32   58 1   
@<TRIPOS>SUBSTRUCTURE
     1 QJ9         1 TEMP              0 ****  ****    0 ROOT
