@<TRIPOS>MOLECULE
QJZ
   33    35     1     0     0
SMALL
bcc


@<TRIPOS>ATOM
      1 C4          0.1870    0.1820    0.0670 ca        1 QJZ     -0.096100
      2 C5          1.5290   -0.3210    0.1080 ca        1 QJZ      0.118400
      3 C6          2.0900   -0.6970    1.3450 ca        1 QJZ     -0.086000
      4 C8          1.3590    0.0330   -2.0900 cc        1 QJZ      0.458800
      5 C10        -0.7480    0.0560    3.7080 cp        1 QJZ      0.512800
      6 C13         2.9660    0.0950   -5.5200 c3        1 QJZ     -0.179100
      7 C15        -0.0800    0.4880    4.8800 ca        1 QJZ     -0.374600
      8 C21        -4.9830   -0.2310    6.4980 c3        1 QJZ     -0.070000
      9 C12         2.9100    0.2280   -4.0170 c         1 QJZ      0.667100
     10 O14         3.9200    0.4510   -3.3380 o         1 QJZ     -0.530100
     11 N11         1.6320    0.1200   -3.4490 ns        1 QJZ     -0.483400
     12 N9          2.1740   -0.4120   -1.1330 nd        1 QJZ     -0.535100
     13 S7         -0.2400    0.5670   -1.5220 ss        1 QJZ     -0.088100
     14 C3         -0.5640    0.2930    1.2360 ca        1 QJZ     -0.039000
     15 C1          1.3310   -0.5700    2.4950 ca        1 QJZ     -0.108000
     16 C2          0.0120   -0.0740    2.4520 cp        1 QJZ     -0.157500
     17 N19        -2.0730   -0.2370    3.7140 nb        1 QJZ     -0.685000
     18 C16        -0.8480    0.5930    6.0530 ca        1 QJZ      0.445200
     19 N17        -2.1600    0.3040    6.0910 nb        1 QJZ     -0.722000
     20 C18        -2.7280   -0.1010    4.9100 ca        1 QJZ      0.722300
     21 S20        -4.4060   -0.4870    4.8680 ss        1 QJZ     -0.186400
     22 H6          3.1190   -1.0870    1.3850 ha        1 QJZ      0.158000
     23 H13         2.3330    0.8740   -6.0100 hc        1 QJZ      0.071367
     24 H13A        2.6140   -0.9170   -5.8370 hc        1 QJZ      0.071367
     25 H13B        4.0260    0.2300   -5.8480 hc        1 QJZ      0.071367
     26 H15         0.9860    0.7400    4.8700 ha        1 QJZ      0.158000
     27 H21        -4.4830   -0.8900    7.2420 h1        1 QJZ      0.076700
     28 H21A       -6.0700   -0.4850    6.4550 h1        1 QJZ      0.076700
     29 H21B       -4.8680    0.8240    6.8360 h1        1 QJZ      0.076700
     30 HN11        0.8570   -0.0300   -4.0550 hn        1 QJZ      0.328500
     31 H3         -1.5990    0.6680    1.1960 ha        1 QJZ      0.159000
     32 H1          1.7620   -0.8720    3.4630 ha        1 QJZ      0.140000
     33 H16        -0.3960    0.9240    7.0060 h4        1 QJZ      0.028100
@<TRIPOS>BOND
     1    1    2 ar  
     2    1   13 1   
     3    1   14 ar  
     4    2    3 ar  
     5    2   12 1   
     6    3   15 ar  
     7    3   22 1   
     8    4   11 1   
     9    4   12 2   
    10    4   13 1   
    11    5    7 ar  
    12    5   16 1   
    13    5   17 ar  
    14    6    9 1   
    15    6   23 1   
    16    6   24 1   
    17    6   25 1   
    18    7   18 ar  
    19    7   26 1   
    20    8   21 1   
    21    8   27 1   
    22    8   28 1   
    23    8   29 1   
    24    9   10 2   
    25    9   11 1   
    26   11   30 1   
    27   14   16 ar  
    28   14   31 1   
    29   15   16 ar  
    30   15   32 1   
    31   17   20 ar  
    32   18   19 ar  
    33   18   33 1   
    34   19   20 ar  
    35   20   21 1   
@<TRIPOS>SUBSTRUCTURE
     1 QJZ         1 TEMP              0 ****  ****    0 ROOT
