@<TRIPOS>MOLECULE
QJZ
   33    35     1     0     0
SMALL
bcc


@<TRIPOS>ATOM
      1 C4          0.1870    0.1810    0.0680 ca        1 QJZ     -0.096100
      2 C5          1.5300   -0.3200    0.1090 ca        1 QJZ      0.118400
      3 C6          2.0920   -0.6930    1.3470 ca        1 QJZ     -0.086000
      4 C8          1.3610    0.0310   -2.0900 cc        1 QJZ      0.458800
      5 C10        -0.7490    0.0590    3.7080 cp        1 QJZ      0.512800
      6 C13         2.9670    0.0890   -5.5200 c3        1 QJZ     -0.179100
      7 C15        -0.0820    0.4930    4.8800 ca        1 QJZ     -0.374600
      8 C21        -4.9850   -0.2320    6.4960 c3        1 QJZ     -0.070000
      9 C12         2.9130    0.2230   -4.0160 c         1 QJZ      0.667100
     10 O14         3.9220    0.4450   -3.3370 o         1 QJZ     -0.530100
     11 N11         1.6340    0.1170   -3.4480 n         1 QJZ     -0.483400
     12 N9          2.1760   -0.4110   -1.1310 nd        1 QJZ     -0.536100
     13 S7         -0.2390    0.5630   -1.5230 ss        1 QJZ     -0.089100
     14 C3         -0.5640    0.2930    1.2360 ca        1 QJZ     -0.039000
     15 C1          1.3320   -0.5660    2.4970 ca        1 QJZ     -0.108000
     16 C2          0.0110   -0.0720    2.4520 cp        1 QJZ     -0.157500
     17 N19        -2.0740   -0.2370    3.7140 nb        1 QJZ     -0.685000
     18 C16        -0.8510    0.5980    6.0520 ca        1 QJZ      0.445200
     19 N17        -2.1630    0.3070    6.0900 nb        1 QJZ     -0.722000
     20 C18        -2.7300   -0.1010    4.9090 ca        1 QJZ      0.722300
     21 S20        -4.4070   -0.4900    4.8670 ss        1 QJZ     -0.186400
     22 H6          3.1210   -1.0810    1.3880 ha        1 QJZ      0.158000
     23 H13         2.3370    0.8690   -6.0100 hc        1 QJZ      0.071367
     24 H13A        2.6140   -0.9220   -5.8350 hc        1 QJZ      0.071367
     25 H13B        4.0280    0.2220   -5.8480 hc        1 QJZ      0.071367
     26 H15         0.9830    0.7470    4.8700 ha        1 QJZ      0.158000
     27 H21        -4.8720    0.8230    6.8330 h1        1 QJZ      0.076700
     28 H21A       -6.0710   -0.4870    6.4530 h1        1 QJZ      0.076700
     29 H21B       -4.4850   -0.8900    7.2410 h1        1 QJZ      0.076700
     30 HN11        0.8590   -0.0330   -4.0540 hn        1 QJZ      0.328500
     31 H3         -1.5990    0.6660    1.1940 ha        1 QJZ      0.159000
     32 H1          1.7620   -0.8650    3.4660 ha        1 QJZ      0.140000
     33 H16        -0.4000    0.9310    7.0040 h4        1 QJZ      0.028100
@<TRIPOS>BOND
     1    1    2 ar  
     2    1   13 1   
     3    1   14 ar  
     4    2    3 ar  
     5    2   12 1   
     6    3   15 ar  
     7    3   22 1   
     8    4   11 1   
     9    4   12 2   
    10    4   13 1   
    11    5    7 ar  
    12    5   16 1   
    13    5   17 ar  
    14    6    9 1   
    15    6   23 1   
    16    6   24 1   
    17    6   25 1   
    18    7   18 ar  
    19    7   26 1   
    20    8   21 1   
    21    8   27 1   
    22    8   28 1   
    23    8   29 1   
    24    9   10 2   
    25    9   11 1   
    26   11   30 1   
    27   14   16 ar  
    28   14   31 1   
    29   15   16 ar  
    30   15   32 1   
    31   17   20 ar  
    32   18   19 ar  
    33   18   33 1   
    34   19   20 ar  
    35   20   21 1   
@<TRIPOS>SUBSTRUCTURE
     1 QJZ         1 TEMP              0 ****  ****    0 ROOT
