@<TRIPOS>MOLECULE
QJZ
   33    35     1     0     0
SMALL
bcc


@<TRIPOS>ATOM
      1 C4          1.2720    0.2150    0.1810 ca        1 QJZ     -0.096100
      2 C5          1.9390   -0.9410   -0.3440 ca        1 QJZ      0.118400
      3 C6          1.1790   -2.0600   -0.7380 ca        1 QJZ     -0.086000
      4 C8          3.7240    0.3480    0.0300 cc        1 QJZ      0.458800
      5 C10        -2.3200   -0.8930    0.0410 cp        1 QJZ      0.512800
      6 C13         7.4880    0.7720    0.0950 c3        1 QJZ     -0.179100
      7 C15        -2.9680   -2.0830    0.4530 ca        1 QJZ     -0.374600
      8 C21        -6.9140    1.2600   -0.2020 c3        1 QJZ     -0.070000
      9 C12         6.1770    0.0310    0.2180 c         1 QJZ      0.667100
     10 O14         6.1270   -1.1870    0.4240 o         1 QJZ     -0.530100
     11 N11         5.0250    0.8260    0.1240 n         1 QJZ     -0.483400
     12 N9          3.3340   -0.8390   -0.4350 nd        1 QJZ     -0.535100
     13 S7          2.4040    1.4040    0.5840 ss        1 QJZ     -0.088100
     14 C3         -0.1170    0.2400    0.2940 ca        1 QJZ     -0.039000
     15 C1         -0.1980   -2.0180   -0.6080 ca        1 QJZ     -0.108000
     16 C2         -0.8520   -0.8800   -0.0910 cp        1 QJZ     -0.157500
     17 N19        -3.0190    0.2380   -0.2320 nb        1 QJZ     -0.685000
     18 C16        -4.3680   -2.0440    0.5610 ca        1 QJZ      0.445200
     19 N17        -5.0890   -0.9410    0.2920 nb        1 QJZ     -0.722000
     20 C18        -4.3810    0.1680   -0.0950 ca        1 QJZ      0.722300
     21 S20        -5.2240    1.6260   -0.4550 ss        1 QJZ     -0.186400
     22 H6          1.6830   -2.9510   -1.1430 ha        1 QJZ      0.158000
     23 H13         7.5750    1.5570    0.8840 hc        1 QJZ      0.071367
     24 H13A        8.3220    0.0390    0.2190 hc        1 QJZ      0.071367
     25 H13B        7.5730    1.2510   -0.9110 hc        1 QJZ      0.071367
     26 H15        -2.4010   -2.9900    0.6890 ha        1 QJZ      0.158000
     27 H21        -7.1400    0.9660    0.8480 h1        1 QJZ      0.076700
     28 H21A       -7.4470    2.2120   -0.4380 h1        1 QJZ      0.076700
     29 H21B       -7.2870    0.4560   -0.8750 h1        1 QJZ      0.076700
     30 HN11        5.1360    1.8050   -0.0140 hn        1 QJZ      0.328500
     31 H3         -0.6230    1.1370    0.6850 ha        1 QJZ      0.159000
     32 H1         -0.7980   -2.8860   -0.9230 ha        1 QJZ      0.140000
     33 H16        -4.9430   -2.9340    0.8770 h4        1 QJZ      0.028100
@<TRIPOS>BOND
     1    1    2 ar  
     2    1   13 1   
     3    1   14 ar  
     4    2    3 ar  
     5    2   12 1   
     6    3   15 ar  
     7    3   22 1   
     8    4   11 1   
     9    4   12 2   
    10    4   13 1   
    11    5    7 ar  
    12    5   16 1   
    13    5   17 ar  
    14    6    9 1   
    15    6   23 1   
    16    6   24 1   
    17    6   25 1   
    18    7   18 ar  
    19    7   26 1   
    20    8   21 1   
    21    8   27 1   
    22    8   28 1   
    23    8   29 1   
    24    9   10 2   
    25    9   11 1   
    26   11   30 1   
    27   14   16 ar  
    28   14   31 1   
    29   15   16 ar  
    30   15   32 1   
    31   17   20 ar  
    32   18   19 ar  
    33   18   33 1   
    34   19   20 ar  
    35   20   21 1   
@<TRIPOS>SUBSTRUCTURE
     1 QJZ         1 TEMP              0 ****  ****    0 ROOT
