@<TRIPOS>MOLECULE
QJZ
   34    36     1     0     0
SMALL
bcc


@<TRIPOS>ATOM
      1 C4         -0.0500    0.1610   -0.1720 ca        1 QJZ     -0.088100
      2 C5          1.1820   -0.5790   -0.2900 ca        1 QJZ      0.076400
      3 C6          1.7760   -1.1360    0.8690 ca        1 QJZ     -0.053000
      4 C8          0.8320   -0.0390   -2.4150 cc        1 QJZ      0.276100
      5 C10        -0.6670   -0.0580    3.5340 cp        1 QJZ      0.473800
      6 C13         3.6110    0.2780   -4.0980 c3        1 QJZ     -0.181100
      7 C15         0.1540    0.1600    4.6600 ca        1 QJZ     -0.370600
      8 C21        -4.6720    0.1480    6.6480 c3        1 QJZ     -0.076000
      9 C12         2.2740    0.9210   -4.1800 c         1 QJZ      0.572100
     10 O14         1.9720    2.0600   -4.4900 o         1 QJZ     -0.397100
     11 N11         1.0750    0.0190   -3.8490 n4        1 QJZ     -0.596800
     12 N9          1.6720   -0.6810   -1.5830 nd        1 QJZ     -0.479100
     13 S7         -0.5450    0.6990   -1.6830 ss        1 QJZ      0.167900
     14 C3         -0.6540    0.3310    1.0760 ca        1 QJZ     -0.062000
     15 C1          1.1570   -0.9530    2.0880 ca        1 QJZ     -0.102000
     16 C2         -0.0500   -0.2220    2.2020 cp        1 QJZ     -0.073500
     17 N19        -2.0200   -0.1230    3.6280 nb        1 QJZ     -0.689000
     18 C16        -0.5000    0.3030    5.9030 ca        1 QJZ      0.460200
     19 N17        -1.8330    0.2370    6.0330 nb        1 QJZ     -0.701000
     20 C18        -2.5560    0.0250    4.8820 ca        1 QJZ      0.723300
     21 S20        -4.2660   -0.0710    4.9630 ss        1 QJZ     -0.154400
     22 H6          2.7130   -1.7100    0.7850 ha        1 QJZ      0.171000
     23 H13         4.3770    1.0100   -4.4680 hc        1 QJZ      0.120700
     24 H13A        3.8540    0.0050   -3.0370 hc        1 QJZ      0.120700
     25 H13B        3.6570   -0.6460   -4.7290 hc        1 QJZ      0.120700
     26 H15         1.2440    0.2280    4.5820 ha        1 QJZ      0.158000
     27 H21        -5.7870    0.0810    6.6760 h1        1 QJZ      0.085700
     28 H21A       -4.2430   -0.6430    7.3040 h1        1 QJZ      0.085700
     29 H21B       -4.3570    1.1390    7.0460 h1        1 QJZ      0.085700
     30 HN11        0.2290    0.3920   -4.3010 hn        1 QJZ      0.468800
     31 H3         -1.6010    0.8890    1.1640 ha        1 QJZ      0.181000
     32 H1          1.6030   -1.3930    2.9970 ha        1 QJZ      0.168000
     33 H16         0.0730    0.4790    6.8330 h4        1 QJZ      0.043100
     34 H112        1.2590   -0.9290   -4.2040 hn        1 QJZ      0.468800
@<TRIPOS>BOND
     1    1    2 ar  
     2    1   13 1   
     3    1   14 ar  
     4    2    3 ar  
     5    2   12 1   
     6    3   15 ar  
     7    3   22 1   
     8    4   11 1   
     9    4   12 2   
    10    4   13 1   
    11    5    7 ar  
    12    5   16 1   
    13    5   17 ar  
    14    6    9 1   
    15    6   23 1   
    16    6   24 1   
    17    6   25 1   
    18    7   18 ar  
    19    7   26 1   
    20    8   21 1   
    21    8   27 1   
    22    8   28 1   
    23    8   29 1   
    24    9   10 2   
    25    9   11 1   
    26   11   30 1   
    27   11   34 1   
    28   14   16 ar  
    29   14   31 1   
    30   15   16 ar  
    31   15   32 1   
    32   17   20 ar  
    33   18   19 ar  
    34   18   33 1   
    35   19   20 ar  
    36   20   21 1   
@<TRIPOS>SUBSTRUCTURE
     1 QJZ         1 TEMP              0 ****  ****    0 ROOT
