@<TRIPOS>MOLECULE
QJZ
   33    25     1     0     0
SMALL
bcc


@<TRIPOS>ATOM
      1 C4         -0.0850    0.6720   -1.3230 c1        1 QJZ     -0.196000
      2 C5          1.3310    0.5650   -1.1850 c1        1 QJZ     -0.196000
      3 C6          1.8980    0.4360    0.0790 c1        1 QJZ     -0.111750
      4 C8          0.9240    0.6120   -3.5940 c1        1 QJZ     -0.105000
      5 C10        -1.1350   -0.0680    2.0570 c1        1 QJZ      0.079000
      6 C13         3.1110    0.0100   -6.7470 c3        1 QJZ     -0.240000
      7 C15        -1.8320   -1.2110    1.7840 c1        1 QJZ     -0.111750
      8 C21        -2.3060   -0.0980    7.0300 c3        1 QJZ     -0.371000
      9 C12         1.9580    0.4570   -5.8490 c2        1 QJZ      0.306000
     10 O14         1.0720    1.1580   -6.3010 o         1 QJZ     -0.335000
     11 N11         1.9640    0.1220   -4.4560 n2        1 QJZ     -0.305000
     12 N9          1.9740    0.5270   -2.6340 n1        1 QJZ     -0.166000
     13 S7         -0.4100    0.7060   -2.8300 s         1 QJZ      0.531000
     14 C3         -0.8970    0.6460   -0.1940 c1        1 QJZ     -0.057000
     15 C1          1.0770    0.4110    1.2160 c1        1 QJZ     -0.111750
     16 C2         -0.3250    0.5160    1.0790 c1        1 QJZ     -0.053000
     17 N19        -1.3340    0.5780    3.2200 n1        1 QJZ     -0.156000
     18 C16        -2.7300   -1.6960    2.6920 c1        1 QJZ     -0.111750
     19 N17        -2.9280   -1.0480    3.8540 n1        1 QJZ     -0.197000
     20 C18        -2.2330    0.0930    4.1260 c1        1 QJZ     -0.131000
     21 S20        -2.5440    0.9870    5.6380 ss        1 QJZ      0.324000
     22 H6          2.8700    0.3630    0.1750 ha        1 QJZ      0.157000
     23 H13         2.9180    0.2600   -7.6770 hc        1 QJZ      0.115000
     24 H13A        3.2160   -0.9630   -6.6840 hc        1 QJZ      0.115000
     25 H13B        3.9400    0.4470   -6.4560 hc        1 QJZ      0.115000
     26 H15        -1.6870   -1.6840    0.9360 ha        1 QJZ      0.157000
     27 H21        -1.4280   -0.5270    6.9640 h1        1 QJZ      0.115333
     28 H21A       -2.3550    0.4200    7.8600 h1        1 QJZ      0.115333
     29 H21B       -3.0050   -0.7840    7.0320 h1        1 QJZ      0.115333
     30 HN11        2.6090   -0.4390   -4.1230 hn        1 QJZ      0.254000
     31 H3         -1.8670    0.7630   -0.2850 ha        1 QJZ      0.142000
     32 H1          1.4720    0.2880    2.1000 ha        1 QJZ      0.157000
     33 H16        -3.2320   -2.5190    2.4960 ha        1 QJZ      0.157000
@<TRIPOS>BOND
     1    1    2 1   
     2    3   15 1   
     3    3   22 1   
     4    4   12 1   
     5    4   13 1   
     6    5   17 1   
     7    6    9 1   
     8    6   23 1   
     9    6   24 1   
    10    6   25 1   
    11    7   18 1   
    12    7   26 1   
    13    8   21 1   
    14    8   27 1   
    15    8   28 1   
    16    8   29 1   
    17    9   10 1   
    18    9   11 1   
    19   11   30 1   
    20   14   16 1   
    21   14   31 1   
    22   15   32 1   
    23   18   33 1   
    24   19   20 1   
    25   20   21 1   
@<TRIPOS>SUBSTRUCTURE
     1 QJZ         1 TEMP              0 ****  ****    0 ROOT
