@<TRIPOS>MOLECULE
QK0
   45    35     1     0     0
SMALL
bcc


@<TRIPOS>ATOM
      1 C4         -2.5690   -0.2700   -3.3250 c1        1 QK0     -0.197000
      2 C5         -1.1950    0.0430   -3.5640 c1        1 QK0     -0.197000
      3 C6         -0.3260    0.2230   -2.4900 c1        1 QK0     -0.100000
      4 C8         -2.3490   -0.1570   -5.7590 c1        1 QK0     -0.106000
      5 C13        -3.8020   -0.6850   -9.3100 c3        1 QK0     -0.240000
      6 C15         0.4340    0.1450    0.8850 c1        1 QK0     -0.100000
      7 C17         0.4110    2.1080    2.2490 c1        1 QK0     -0.045000
      8 C26         2.4000   -1.3290    6.1760 c1        1 QK0      0.015000
      9 C28         4.5480   -1.6490    7.2170 c1        1 QK0      0.164000
     10 C12        -2.8160   -0.4170   -8.1760 c2        1 QK0      0.306000
     11 O14        -1.6280   -0.2920   -8.4180 o         1 QK0     -0.334000
     12 N10        -3.2790   -0.3600   -6.8260 n2        1 QK0     -0.305000
     13 N7         -3.3030   -0.3970   -4.7260 n1        1 QK0     -0.164000
     14 S9         -0.9880    0.1300   -5.0910 s         1 QK0      0.536000
     15 C3         -3.0360   -0.3950   -2.0200 c1        1 QK0     -0.096500
     16 C2         -2.1600   -0.2130   -0.9400 c1        1 QK0     -0.096500
     17 C1         -0.7990    0.0970   -1.1760 c1        1 QK0     -0.049000
     18 C11        -0.3360    0.7910   -0.0460 c1        1 QK0     -0.049000
     19 C19        -0.7330    2.1050    0.1740 c1        1 QK0     -0.074000
     20 N18        -0.3570    2.7520    1.3190 n2        1 QK0     -0.104000
     21 CL20        0.2370    3.6940    2.9560 cl        1 QK0      0.014000
     22 C16         0.8100    0.7950    2.0330 c1        1 QK0      0.055000
     23 N21         1.5390    0.0900    3.0500 n3        1 QK0     -0.815000
     24 S22         1.7850    0.7940    4.5300 s4        1 QK0      2.076800
     25 O23         2.2830    2.1380    4.3930 o         1 QK0     -0.533900
     26 O24         0.5390    1.0250    5.2130 o         1 QK0     -0.533900
     27 C25         2.8870   -0.2070    5.5150 c1        1 QK0     -0.861000
     28 C27         3.2310   -2.0500    7.0270 c1        1 QK0     -0.195000
     29 F31         5.2720   -2.3530    8.1010 f         1 QK0     -0.091000
     30 C29         5.0350   -0.5260    6.5560 c1        1 QK0     -0.195000
     31 C30         4.2050    0.1950    5.7050 c2        1 QK0      0.015000
     32 H6          0.6170    0.4380   -2.6530 ha        1 QK0      0.161500
     33 H13        -4.5350   -1.2490   -8.9800 hc        1 QK0      0.115667
     34 H13A       -4.1660    0.1680   -9.6360 hc        1 QK0      0.115667
     35 H13B       -3.3390   -1.1450  -10.0440 hc        1 QK0      0.115667
     36 H15         0.7160   -0.7840    0.7310 ha        1 QK0      0.161500
     37 H26         1.4700   -1.6130    6.0420 ha        1 QK0      0.161000
     38 HN10       -4.1750   -0.4300   -6.6450 hn        1 QK0      0.254000
     39 H3         -3.9800   -0.6100   -1.8550 ha        1 QK0      0.150000
     40 H2         -2.4900   -0.3010   -0.0200 ha        1 QK0      0.150000
     41 H19        -1.2840    2.5690   -0.4920 ha        1 QK0      0.174000
     42 HN21        1.8240   -0.7690    2.8980 hn        1 QK0      0.260000
     43 H27         2.8870   -2.8430    7.4930 ha        1 QK0      0.161000
     44 H29         5.9660   -0.2430    6.6910 ha        1 QK0      0.161000
     45 H30         4.5490    0.9870    5.2390 ha        1 QK0      0.159000
@<TRIPOS>BOND
     1    1    2 1   
     2    3   17 1   
     3    3   32 1   
     4    4   13 1   
     5    4   14 1   
     6    5   10 1   
     7    5   33 1   
     8    5   34 1   
     9    5   35 1   
    10    6   18 1   
    11    6   36 1   
    12    7   20 1   
    13    7   22 1   
    14    8   27 1   
    15    8   37 1   
    16    9   28 1   
    17    9   29 1   
    18   10   11 1   
    19   10   12 1   
    20   12   38 1   
    21   15   16 1   
    22   15   39 1   
    23   16   40 1   
    24   19   20 1   
    25   19   41 1   
    26   22   23 1   
    27   23   24 1   
    28   23   42 1   
    29   24   25 1   
    30   24   26 1   
    31   27   31 1   
    32   28   43 1   
    33   30   31 1   
    34   30   44 1   
    35   31   45 1   
@<TRIPOS>SUBSTRUCTURE
     1 QK0         1 TEMP              0 ****  ****    0 ROOT
