@<TRIPOS>MOLECULE
QK0
   45    48     1     0     0
SMALL
bcc


@<TRIPOS>ATOM
      1 C4          0.4290   -0.6650   -0.6500 c2        1 QK0     -0.155000
      2 C5          1.2900    0.4550   -0.4230 c2        1 QK0     -0.326000
      3 C6          1.7930    0.7200    0.8870 c2        1 QK0     -0.112000
      4 C8          0.5490    0.1770   -2.7120 c2        1 QK0     -0.228000
      5 C13        -2.2030    0.4980   -4.1870 cx        1 QK0     -0.123000
      6 C15         1.1820    0.0030    4.4080 c2        1 QK0     -0.120000
      7 C17         3.0960    0.6680    5.7380 c2        1 QK0     -0.044000
      8 C26         3.1130   -5.9230    9.0560 c1        1 QK0      0.330000
      9 C28         0.7690   -5.6580    8.1640 c2        1 QK0      0.267000
     10 O14        -1.6440    1.7070   -3.6470 os        1 QK0     -0.253000
     11 N10         0.4140    0.3840   -4.1060 nu        1 QK0     -0.220000
     12 N7          0.0150   -0.8010   -1.9680 n2        1 QK0     -0.045000
     13 S9          1.5640    1.2910   -1.8190 ss        1 QK0      0.604000
     14 C3          0.0450   -1.5440    0.4020 c1        1 QK0     -0.001000
     15 C2          0.5370   -1.2400    1.7410 c3        1 QK0     -0.202000
     16 C1          1.4510   -0.0790    1.9320 c2        1 QK0     -0.038000
     17 C11         1.9760    0.1650    3.2690 c2        1 QK0     -0.072000
     18 C19         3.3170    0.5840    3.4450 c2        1 QK0     -0.068000
     19 N18         3.8650    0.8350    4.6410 n2        1 QK0     -0.107000
     20 C16         1.7290    0.2430    5.6900 c2        1 QK0      0.048000
     21 N21         0.9780    0.0890    6.8550 nu        1 QK0     -0.829000
     22 S22        -0.1940   -1.0300    7.1750 s6        1 QK0      2.835000
     23 O23        -0.8050   -0.6000    8.3610 o         1 QK0     -0.908000
     24 O24        -0.9600   -1.2350    6.0200 o         1 QK0     -0.908000
     25 C25         0.7970   -2.4340    7.4880 c3        1 QK0     -0.827000
     26 C27         2.1240   -5.2540    8.4860 c2        1 QK0     -0.536000
     27 C29        -0.2460   -4.7940    7.8060 c2        1 QK0     -0.224000
     28 C30        -0.2260   -3.4190    7.7130 c1        1 QK0     -0.135000
     29 H6          2.4560    1.5900    1.0220 ha        1 QK0      0.141000
     30 H13        -0.6530    1.4740   -5.5330 h2        1 QK0      0.157000
     31 H13A       -3.0480    0.6560   -4.8820 h1        1 QK0      0.131500
     32 H13B       -2.3570   -0.3060   -3.4440 h1        1 QK0      0.131500
     33 H15         0.1250   -0.3080    4.3030 ha        1 QK0      0.188000
     34 H26         1.4130   -2.2980    8.4210 h1        1 QK0      0.163500
     35 HN10        0.5810   -0.4730   -4.6120 hn        1 QK0      0.200000
     36 H3         -0.3920   -1.1030    2.3790 hc        1 QK0      0.168500
     37 H2          1.0350   -2.1790    2.1250 hc        1 QK0      0.168500
     38 H19         3.9870    0.7190    2.5760 h4        1 QK0      0.173000
     39 HN21        1.2190    0.7490    7.5650 hn        1 QK0      0.256000
     40 H27         2.3730   -4.2050    8.1930 ha        1 QK0      0.222000
     41 H29        -1.2420   -5.2530    7.6220 ha        1 QK0      0.179000
     42 H30         1.5140   -2.6880    6.6650 h1        1 QK0      0.163500
     43 Cl20        3.8080    1.0040    7.2620 cl        1 QK0      0.016000
     44 C12        -0.8260    0.9550   -4.5610 cx        1 QK0      0.023000
     45 F31         0.4930   -6.9700    8.3220 f         1 QK0     -0.084000
@<TRIPOS>BOND
     1    1    2 1   
     2    1   12 1   
     3    1   14 1   
     4    2    3 1   
     5    2   13 1   
     6    3   16 1   
     7    3   29 1   
     8    4   11 1   
     9    4   12 1   
    10    4   13 1   
    11    5   10 1   
    12    5   31 1   
    13    5   32 1   
    14    5   44 1   
    15    6   17 1   
    16    6   20 1   
    17    6   33 1   
    18    7   19 1   
    19    7   20 1   
    20    7   43 1   
    21    8   26 1   
    22    9   26 1   
    23    9   27 1   
    24    9   45 1   
    25   10   44 1   
    26   11   35 1   
    27   11   44 1   
    28   14   15 1   
    29   15   16 1   
    30   15   36 1   
    31   15   37 1   
    32   16   17 1   
    33   17   18 1   
    34   18   19 1   
    35   18   38 1   
    36   20   21 1   
    37   21   22 1   
    38   21   39 1   
    39   22   23 1   
    40   22   24 1   
    41   22   25 1   
    42   25   28 1   
    43   25   34 1   
    44   25   42 1   
    45   26   40 1   
    46   27   28 1   
    47   27   41 1   
    48   30   44 1   
@<TRIPOS>SUBSTRUCTURE
     1 QK0         1 TEMP              0 ****  ****    0 ROOT
