@<TRIPOS>MOLECULE
QK0
   45    47     1     0     0
SMALL
bcc


@<TRIPOS>ATOM
      1 C4         -0.0530   -0.3710   -0.3340 ca        1 QK0     -0.022000
      2 C5          1.1490    0.4080   -0.2670 ca        1 QK0     -0.314000
      3 C6          1.8610    0.5070    0.9250 ca        1 QK0     -0.070000
      4 C8          0.0210    0.3270   -2.4550 c2        1 QK0     -0.052000
      5 C13        -1.5190    0.5340   -5.9130 c3        1 QK0     -0.247000
      6 C15         1.4710    0.0090    4.5450 c2        1 QK0     -0.116000
      7 C17         3.6420    0.1240    5.6170 c2        1 QK0     -0.045000
      8 C26         2.8060   -6.0690    9.3040 c1        1 QK0      0.325000
      9 C28         0.4780   -5.4100    8.5950 c2        1 QK0      0.257000
     10 O14        -2.5400    0.1180   -3.7720 o         1 QK0     -0.286000
     11 N10        -0.2650    0.5500   -3.7940 n         1 QK0     -0.322000
     12 N7         -0.6710   -0.4160   -1.5910 n2        1 QK0     -0.108000
     13 S9          1.4740    1.1040   -1.7740 ss        1 QK0      0.345000
     14 C3         -0.5170   -1.0260    0.8230 ca        1 QK0     -0.079000
     15 C2          0.2040   -0.9100    1.9990 ca        1 QK0     -0.109000
     16 C1          1.3940   -0.1540    2.0630 ca        1 QK0     -0.046000
     17 C11         2.1340   -0.0620    3.3160 c2        1 QK0     -0.053000
     18 C19         3.5490   -0.0340    3.3190 c2        1 QK0     -0.070000
     19 N18         4.2870    0.0640    4.4320 n2        1 QK0     -0.110000
     20 C16         2.2170    0.0910    5.7430 c2        1 QK0      0.039000
     21 N21         1.5990    0.1500    6.9940 nh        1 QK0     -0.832000
     22 S22         0.2840   -0.7010    7.5050 s6        1 QK0      2.835000
     23 O23        -0.0890   -0.1240    8.7270 o         1 QK0     -0.909500
     24 O24        -0.6450   -0.7920    6.4590 o         1 QK0     -0.909500
     25 C25         1.0130   -2.2640    7.7830 c3        1 QK0     -0.828000
     26 C27         1.9080   -5.2520    8.7810 c2        1 QK0     -0.533000
     27 C29        -0.3950   -4.3830    8.3020 c2        1 QK0     -0.225000
     28 C30        -0.1390   -3.0340    8.1670 c1        1 QK0     -0.126000
     29 H6          2.7790    1.1130    0.9710 ha        1 QK0      0.143000
     30 H13        -2.5640    0.3870   -6.2790 hc        1 QK0      0.111000
     31 H13A       -0.8560   -0.2250   -6.3930 hc        1 QK0      0.111000
     32 H13B       -1.1760    1.5570   -6.2000 hc        1 QK0      0.111000
     33 H15         0.3650    0.0010    4.5760 ha        1 QK0      0.189000
     34 H26         1.7410   -2.2210    8.6410 h1        1 QK0      0.164500
     35 HN10        0.5120    0.7950   -4.3660 hn        1 QK0      0.242000
     36 H3         -1.4450   -1.6180    0.7850 ha        1 QK0      0.162000
     37 H2         -0.1570   -1.4210    2.9070 ha        1 QK0      0.149000
     38 H19         4.1200   -0.1000    2.3750 h4        1 QK0      0.172000
     39 HN21        2.0540    0.7740    7.6270 hn        1 QK0      0.256000
     40 H27         2.3140   -4.2800    8.4090 ha        1 QK0      0.221000
     41 H29        -1.4700   -4.6540    8.2240 ha        1 QK0      0.178000
     42 H30         1.5770   -2.6740    6.9050 h1        1 QK0      0.164500
     43 CL20        4.5980    0.2610    7.0350 cl        1 QK0      0.010000
     44 C12        -1.5120    0.3690   -4.4110 c2        1 QK0      0.310000
     45 F31        -0.0130   -6.6470    8.8280 f         1 QK0     -0.086000
@<TRIPOS>BOND
     1    1    2 1   
     2    1   12 1   
     3    1   14 1   
     4    2    3 1   
     5    2   13 1   
     6    3   16 1   
     7    3   29 1   
     8    4   11 1   
     9    4   12 1   
    10    4   13 1   
    11    5   30 1   
    12    5   31 1   
    13    5   32 1   
    14    5   44 1   
    15    6   17 1   
    16    6   20 1   
    17    6   33 1   
    18    7   19 1   
    19    7   20 1   
    20    7   43 1   
    21    8   26 1   
    22    9   26 1   
    23    9   27 1   
    24    9   45 1   
    25   10   44 1   
    26   11   35 1   
    27   11   44 1   
    28   14   15 1   
    29   14   36 1   
    30   15   16 1   
    31   15   37 1   
    32   16   17 1   
    33   17   18 1   
    34   18   19 1   
    35   18   38 1   
    36   20   21 1   
    37   21   22 1   
    38   21   39 1   
    39   22   23 1   
    40   22   24 1   
    41   22   25 1   
    42   25   28 1   
    43   25   34 1   
    44   25   42 1   
    45   26   40 1   
    46   27   28 1   
    47   27   41 1   
@<TRIPOS>SUBSTRUCTURE
     1 QK0         1 TEMP              0 ****  ****    0 ROOT
