@<TRIPOS>MOLECULE
QK0
   47    46     1     0     0
SMALL
bcc


@<TRIPOS>ATOM
      1 C4         -0.2980    0.8980   -1.5110 c1        1 QK0     -0.096000
      2 C5          1.5750   -1.3550   -1.2320 c2        1 QK0     -0.297000
      3 C6          1.2840   -1.0090   -0.0120 c1        1 QK0     -0.032000
      4 C8          1.2160    0.6100   -3.2180 c2        1 QK0      0.070000
      5 C13        -2.7800    2.2360   -3.1410 c3        1 QK0     -0.236000
      6 C15         0.6840   -0.6930    3.5980 c2        1 QK0     -0.081000
      7 C17         2.7740   -0.9160    4.8080 c2        1 QK0     -0.006000
      8 C26         0.6120   -3.6660   12.2740 c1        1 QK0      0.482000
      9 C28         2.4850   -3.9340   10.6080 c2        1 QK0      0.404000
     10 O14        -0.9650    2.7190   -4.9060 o         1 QK0      0.079000
     11 N10         1.6350    0.8720   -4.4940 n3        1 QK0     -0.346000
     12 N7          0.0450    1.1070   -2.7920 n2        1 QK0     -0.331000
     13 S9          2.4110   -0.3710   -2.3500 ss        1 QK0      0.322000
     14 C3         -0.5780    0.7160   -0.3530 c1        1 QK0     -0.196000
     15 C2         -0.5160    0.2410    1.0020 c3        1 QK0      0.011000
     16 C1          0.7870   -0.5410    1.1140 c2        1 QK0     -0.025000
     17 C11         1.4240   -0.6700    2.4130 c2        1 QK0     -0.057000
     18 C19         2.8350   -0.7850    2.5050 c2        1 QK0     -0.022000
     19 N18         3.4940   -0.8990    3.6650 n2        1 QK0     -0.083000
     20 C16         1.3510   -0.8360    4.8340 c2        1 QK0     -0.089000
     21 N21         0.6250   -0.9470    6.0570 nh        1 QK0     -0.377000
     22 S22         0.0320   -3.2390    6.7060 s4        1 QK0      2.122800
     23 O23        -1.2580   -2.8170    6.8250 o         1 QK0     -0.449900
     24 O24         0.4920   -3.8150    5.5640 o         1 QK0     -0.449900
     25 C25         0.8640   -3.3340    7.9650 c2        1 QK0     -1.290000
     26 C27         1.1280   -3.9550   11.0750 c2        1 QK0     -0.595000
     27 C29         2.8920   -4.0130    9.2760 c2        1 QK0     -0.338000
     28 C30         2.1400   -3.8670    8.1160 c2        1 QK0      0.249000
     29 H6          1.3420   -2.3730   -1.5970 h4        1 QK0      0.189000
     30 H13        -3.5670    3.0430   -3.1990 hc        1 QK0      0.214000
     31 H13A       -3.2570    1.2310   -3.3420 hc        1 QK0      0.214000
     32 H13B       -2.3440    2.2140   -2.0940 hc        1 QK0      0.214000
     33 H15        -0.4140   -0.6080    3.5600 ha        1 QK0      0.156000
     34 H26         0.4360   -2.9080    8.9040 h4        1 QK0      0.226000
     35 HN10        1.2020    1.5580   -5.0630 hn        1 QK0      0.252000
     36 H3         -0.5010    1.0950    1.7330 hc        1 QK0      0.125000
     37 H2         -1.3890   -0.4220    1.2480 hc        1 QK0      0.125000
     38 H19         3.4690   -0.7780    1.5960 h4        1 QK0      0.195000
     39 HN21       -0.2790   -0.5040    5.9700 hn        1 QK0      0.205000
     40 H27         0.3690   -4.3200   10.3370 ha        1 QK0      0.232000
     41 H29         3.9750   -4.2220    9.1230 ha        1 QK0      0.198000
     42 H30         2.6620   -4.1860    7.1800 ha        1 QK0      0.166000
     43 C12        -1.7520    2.4830   -4.0920 c1        1 QK0      0.489000
     44 F31         3.4430   -3.9080   11.5470 f         1 QK0     -0.033000
     45 H102        2.4940    0.4760   -4.8050 hn        1 QK0      0.252000
     46 H212        1.1320   -0.5040    6.8080 hn        1 QK0      0.205000
     47 CL20        3.6290   -1.0320    6.2870 cl        1 QK0      0.034000
@<TRIPOS>BOND
     1    1   12 1   
     2    1   14 1   
     3    2    3 1   
     4    2   13 1   
     5    2   29 1   
     6    3   16 1   
     7    4   11 1   
     8    4   12 1   
     9    4   13 1   
    10    5   30 1   
    11    5   31 1   
    12    5   32 1   
    13    5   43 1   
    14    6   17 1   
    15    6   20 1   
    16    6   33 1   
    17    7   19 1   
    18    7   20 1   
    19    7   47 1   
    20    8   26 1   
    21    9   26 1   
    22    9   27 1   
    23    9   44 1   
    24   10   43 1   
    25   11   35 1   
    26   11   45 1   
    27   14   15 1   
    28   15   16 1   
    29   15   36 1   
    30   15   37 1   
    31   16   17 1   
    32   17   18 1   
    33   18   19 1   
    34   18   38 1   
    35   20   21 1   
    36   21   39 1   
    37   21   46 1   
    38   22   23 1   
    39   22   24 1   
    40   22   25 1   
    41   25   28 1   
    42   25   34 1   
    43   26   40 1   
    44   27   28 1   
    45   27   41 1   
    46   28   42 1   
@<TRIPOS>SUBSTRUCTURE
     1 QK0         1 TEMP              0 ****  ****    0 ROOT
