@<TRIPOS>MOLECULE
QK0
   45    48     1     0     0
SMALL
bcc


@<TRIPOS>ATOM
      1 C4          3.8610   -0.1860    0.8660 ca        1 QK0      0.113400
      2 C5          3.4650   -0.5810   -0.4540 ca        1 QK0     -0.088100
      3 C6          2.1720   -1.0390   -0.6960 ca        1 QK0     -0.073000
      4 C8          5.7900    0.1840   -0.1980 cc        1 QK0      0.460800
      5 C13         9.3310    1.5240   -0.1420 c3        1 QK0     -0.179100
      6 C15        -1.1960   -1.0000    0.7640 ca        1 QK0     -0.137000
      7 C17        -2.6210   -2.5500   -0.4350 ca        1 QK0      0.448300
      8 C26        -5.2610    1.6400   -0.3240 ca        1 QK0      0.015000
      9 C28        -4.3140    3.0930   -2.0010 ca        1 QK0      0.198900
     10 O14         7.3640    2.2300    1.0580 o         1 QK0     -0.530100
     11 N10         7.1010    0.5360   -0.4940 n         1 QK0     -0.484400
     12 N7          5.1930    0.2310    0.9930 nd        1 QK0     -0.531100
     13 S9          4.7550   -0.3910   -1.5280 ss        1 QK0     -0.094100
     14 C3          2.9260   -0.2520    1.9180 ca        1 QK0     -0.077000
     15 C2          1.6450   -0.7040    1.6540 ca        1 QK0     -0.110000
     16 C1          1.2560   -1.1010    0.3560 cp        1 QK0     -0.044000
     17 C11        -0.1020   -1.5750    0.1140 cp        1 QK0     -0.113300
     18 C19        -0.3440   -2.6390   -0.7880 ca        1 QK0      0.390200
     19 N18        -1.5650   -3.1190   -1.0550 nb        1 QK0     -0.629000
     20 C16        -2.5020   -1.4720    0.4980 ca        1 QK0      0.074300
     21 N21        -3.6260   -0.9270    1.1210 nh        1 QK0     -0.764500
     22 S22        -3.8430    0.5950    1.6930 sy        1 QK0      1.522200
     23 O23        -5.0660    0.5870    2.3930 o         1 QK0     -0.645800
     24 O24        -2.7000    1.0320    2.3870 o         1 QK0     -0.645800
     25 C25        -4.0110    1.5130    0.2980 ca        1 QK0     -0.417500
     26 C27        -5.4270    2.4170   -1.4620 ca        1 QK0     -0.194500
     27 C29        -3.0520    2.9860   -1.3830 ca        1 QK0     -0.194500
     28 C30        -2.9190    2.2010   -0.2460 ca        1 QK0      0.015000
     29 H6          1.8730   -1.3370   -1.7120 ha        1 QK0      0.143000
     30 H13         9.4640    1.7570   -1.2260 hc        1 QK0      0.071700
     31 H13A        9.8160    2.3280    0.4650 hc        1 QK0      0.071700
     32 H13B        9.8240    0.5490    0.0880 hc        1 QK0      0.071700
     33 H15        -1.0320   -0.1760    1.4840 ha        1 QK0      0.183000
     34 H26        -6.1360    1.1230    0.1120 ha        1 QK0      0.160500
     35 HN10        7.5580   -0.0310   -1.1720 hn        1 QK0      0.328500
     36 H3          3.2190    0.0560    2.9340 ha        1 QK0      0.162000
     37 H2          0.9120   -0.7610    2.4750 ha        1 QK0      0.148000
     38 H19         0.4890   -3.1380   -1.3150 h4        1 QK0      0.036100
     39 HN21       -4.3950   -1.5650    1.1670 hn        1 QK0      0.464800
     40 H27        -6.4100    2.5120   -1.9450 ha        1 QK0      0.161500
     41 H29        -2.1900    3.5250   -1.8040 ha        1 QK0      0.161500
     42 H30        -1.9330    2.1270    0.2500 ha        1 QK0      0.160500
     43 CL20       -4.1770   -3.1800   -0.7880 cl        1 QK0     -0.150000
     44 C12         7.8650    1.4720    0.2190 c         1 QK0      0.667100
     45 F31        -4.4590    3.8500   -3.1100 f         1 QK0     -0.125900
@<TRIPOS>BOND
     1    1    2 ar  
     2    1   12 1   
     3    1   14 ar  
     4    2    3 ar  
     5    2   13 1   
     6    3   16 ar  
     7    3   29 1   
     8    4   11 1   
     9    4   12 2   
    10    4   13 1   
    11    5   30 1   
    12    5   31 1   
    13    5   32 1   
    14    5   44 1   
    15    6   17 ar  
    16    6   20 ar  
    17    6   33 1   
    18    7   19 ar  
    19    7   20 ar  
    20    7   43 1   
    21    8   25 ar  
    22    8   26 ar  
    23    8   34 1   
    24    9   26 ar  
    25    9   27 ar  
    26    9   45 1   
    27   10   44 2   
    28   11   35 1   
    29   11   44 1   
    30   14   15 ar  
    31   14   36 1   
    32   15   16 ar  
    33   15   37 1   
    34   16   17 1   
    35   17   18 ar  
    36   18   19 ar  
    37   18   38 1   
    38   20   21 1   
    39   21   22 1   
    40   21   39 1   
    41   22   23 2   
    42   22   24 2   
    43   22   25 1   
    44   25   28 ar  
    45   26   40 1   
    46   27   28 ar  
    47   27   41 1   
    48   28   42 1   
@<TRIPOS>SUBSTRUCTURE
     1 QK0         1 TEMP              0 ****  ****    0 ROOT
