@<TRIPOS>MOLECULE
QK5
   58    63     1     0     0
SMALL
bcc


@<TRIPOS>ATOM
      1 N1         -6.5300   -0.7120    1.8530 nb        1 QK5     -0.672000
      2 N3         -0.1080    0.7580   -0.3860 nh        1 QK5     -0.725300
      3 C4         -4.3430    0.2620    1.1420 ca        1 QK5     -0.179100
      4 C5         -3.7890   -0.0210    2.3920 ca        1 QK5     -0.052000
      5 C6         -4.9370    0.8450   -0.9950 cc        1 QK5     -0.033300
      6 C7         -3.8730    0.8650   -0.0880 cd        1 QK5     -0.116400
      7 C8         -2.5250    1.4160   -0.3350 c3        1 QK5      0.000500
      8 C10         0.2420    1.9190    0.4200 c3        1 QK5      0.197800
      9 C13        -4.9620    1.3280   -2.3910 c3        1 QK5     -0.050900
     10 C15         3.1630   -0.8120   -0.5420 ca        1 QK5      0.566100
     11 C17         1.4900   -2.3520   -1.3070 ca        1 QK5      0.467200
     12 C20         6.4780    0.6780    0.3400 ca        1 QK5     -0.095800
     13 C21         7.0120   -0.5920   -0.0190 ca        1 QK5     -0.068100
     14 C22         7.3310    1.7020    0.7780 ca        1 QK5     -0.083000
     15 C24         9.2180    0.2030    0.5000 ca        1 QK5     -0.113000
     16 C19         5.0480    0.7100    0.1840 cc        1 QK5     -0.067200
     17 C23         8.6910    1.4590    0.8560 ca        1 QK5     -0.137000
     18 C25         8.3910   -0.8190    0.0660 ca        1 QK5     -0.100000
     19 S1          5.7900   -1.6420   -0.5100 ss        1 QK5      0.030500
     20 C18         4.5560   -0.4890   -0.2710 cd        1 QK5     -0.179200
     21 N4          2.2080    0.1080   -0.2640 nb        1 QK5     -0.748000
     22 C16         2.8490   -2.0830   -1.0800 ca        1 QK5     -0.420600
     23 N5          0.5070   -1.4790   -1.0520 nb        1 QK5     -0.743000
     24 C14         0.8920   -0.2370   -0.5470 ca        1 QK5      0.873900
     25 C9         -1.4790    0.2870   -0.2480 c3        1 QK5      0.200800
     26 C11        -0.7900    3.0430    0.3540 c3        1 QK5     -0.086400
     27 C12        -2.1860    2.5380    0.6360 c3        1 QK5     -0.077400
     28 C1         -4.5920   -0.6380    3.3420 ca        1 QK5     -0.269300
     29 C2         -5.9360   -0.9570    3.0270 ca        1 QK5      0.414200
     30 C3         -5.7340   -0.1080    0.9230 ca        1 QK5      0.432800
     31 N2         -6.0920    0.3080   -0.3770 na        1 QK5     -0.181100
     32 C27        -7.2510   -1.3170   -1.7880 c1        1 QK5      0.178700
     33 N6         -7.2390   -2.3180   -2.3790 n1        1 QK5     -0.344800
     34 H5         -2.7430    0.2350    2.6160 ha        1 QK5      0.142000
     35 H8         -2.4860    1.8440   -1.3790 hc        1 QK5      0.062700
     36 H10         0.3800    1.6160    1.4990 h1        1 QK5      0.052700
     37 H10A        1.2210    2.3380    0.0490 h1        1 QK5      0.052700
     38 H13        -5.5190    2.2970   -2.4580 hc        1 QK5      0.058700
     39 H13A       -3.9190    1.4890   -2.7610 hc        1 QK5      0.058700
     40 H13B       -5.4590    0.5850   -3.0650 hc        1 QK5      0.058700
     41 H17         1.1620   -3.3270   -1.7130 h4        1 QK5      0.027100
     42 H24        10.3040    0.0360    0.5720 ha        1 QK5      0.134000
     43 H19         4.4480    1.5970    0.4080 ha        1 QK5      0.172000
     44 H23         9.3750    2.2500    1.1970 ha        1 QK5      0.134000
     45 H25         8.8070   -1.7990   -0.2110 ha        1 QK5      0.138000
     46 H16         3.6260   -2.8220   -1.3050 ha        1 QK5      0.156000
     47 H9         -1.7050   -0.4400   -1.0790 h1        1 QK5      0.060700
     48 H9A        -1.6120   -0.2530    0.7350 h1        1 QK5      0.060700
     49 H11        -0.5020    3.8180    1.1110 hc        1 QK5      0.051700
     50 H11A       -0.7600    3.5250   -0.6570 hc        1 QK5      0.051700
     51 H12        -2.9260    3.3720    0.5250 hc        1 QK5      0.048200
     52 H12A       -2.2560    2.1630    1.6900 hc        1 QK5      0.048200
     53 H1         -4.2000   -0.8840    4.3380 ha        1 QK5      0.144000
     54 H2         -6.5790   -1.4510    3.7800 h4        1 QK5      0.023100
     55 C26        -7.3010   -0.0560   -1.0490 c3        1 QK5      0.112400
     56 H22         6.9120    2.6810    1.0530 ha        1 QK5      0.138000
     57 H26        -8.1320   -0.1310   -0.2830 h1        1 QK5      0.098200
     58 H26A       -7.5570    0.7670   -1.7840 h1        1 QK5      0.098200
@<TRIPOS>BOND
     1    1   29 ar  
     2    1   30 ar  
     3    2    8 1   
     4    2   24 1   
     5    2   25 1   
     6    3    4 ar  
     7    3    6 1   
     8    3   30 ar  
     9    4   28 ar  
    10    4   34 1   
    11    5    6 2   
    12    5    9 1   
    13    5   31 1   
    14    6    7 1   
    15    7   25 1   
    16    7   27 1   
    17    7   35 1   
    18    8   26 1   
    19    8   36 1   
    20    8   37 1   
    21    9   38 1   
    22    9   39 1   
    23    9   40 1   
    24   10   20 1   
    25   10   21 ar  
    26   10   22 ar  
    27   11   22 ar  
    28   11   23 ar  
    29   11   41 1   
    30   12   13 ar  
    31   12   14 ar  
    32   12   16 1   
    33   13   18 ar  
    34   13   19 1   
    35   14   17 ar  
    36   14   56 1   
    37   15   17 ar  
    38   15   18 ar  
    39   15   42 1   
    40   16   20 2   
    41   16   43 1   
    42   17   44 1   
    43   18   45 1   
    44   19   20 1   
    45   21   24 ar  
    46   22   46 1   
    47   23   24 ar  
    48   25   47 1   
    49   25   48 1   
    50   26   27 1   
    51   26   49 1   
    52   26   50 1   
    53   27   51 1   
    54   27   52 1   
    55   28   29 ar  
    56   28   53 1   
    57   29   54 1   
    58   30   31 1   
    59   31   55 1   
    60   32   33 3   
    61   32   55 1   
    62   55   57 1   
    63   55   58 1   
@<TRIPOS>SUBSTRUCTURE
     1 QK5         1 TEMP              0 ****  ****    0 ROOT
