@<TRIPOS>MOLECULE
QK5
   58    63     1     0     0
SMALL
bcc


@<TRIPOS>ATOM
      1 N1          0.0990   -0.2830   -0.3830 nb        1 QK5     -0.671000
      2 N3          0.3820    1.2810    6.6270 nh        1 QK5     -0.753300
      3 C4          0.4940   -0.2660    2.0800 ca        1 QK5     -0.184100
      4 C5          1.8700   -0.3960    1.8860 ca        1 QK5     -0.049000
      5 C6         -1.6850   -0.0490    2.7560 cc        1 QK5     -0.033300
      6 C7         -0.3760   -0.1580    3.2320 cd        1 QK5     -0.115400
      7 C8          0.1060   -0.1730    4.6290 c3        1 QK5     -0.001500
      8 C10         0.1190    0.1150    7.4480 c3        1 QK5      0.214800
      9 C13        -2.9360    0.0940    3.5290 c3        1 QK5     -0.052900
     10 C15         1.2610    3.7590    9.1050 ca        1 QK5      0.567100
     11 C17         0.6110    4.8520    7.0700 ca        1 QK5      0.470200
     12 C20         2.5170    3.1970   12.5830 ca        1 QK5     -0.095800
     13 C21         2.4650    4.6140   12.7040 ca        1 QK5     -0.069100
     14 C22         2.9490    2.4120   13.6640 ca        1 QK5     -0.083000
     15 C24         3.2700    4.4380   14.9610 ca        1 QK5     -0.114000
     16 C19         2.0870    2.7640   11.2800 cc        1 QK5     -0.068200
     17 C23         3.3220    3.0360   14.8420 ca        1 QK5     -0.137000
     18 C25         2.8460    5.2270   13.9050 ca        1 QK5     -0.100000
     19 S1          1.9180    5.3210   11.2770 ss        1 QK5      0.030500
     20 C18         1.7370    3.8240   10.4800 cd        1 QK5     -0.178200
     21 N4          1.0060    2.5470    8.5560 nb        1 QK5     -0.748000
     22 C16         1.0800    4.9650    8.3880 ca        1 QK5     -0.426600
     23 N5          0.3370    3.6840    6.4770 nb        1 QK5     -0.751000
     24 C14         0.5580    2.5350    7.2390 ca        1 QK5      0.886900
     25 C9         -0.0920    1.2220    5.2580 c3        1 QK5      0.220800
     26 C11        -0.9190   -0.8290    6.8440 c3        1 QK5     -0.098400
     27 C12        -0.5340   -1.2850    5.4550 c3        1 QK5     -0.077400
     28 C1          2.3410   -0.4630    0.5810 ca        1 QK5     -0.269300
     29 C2          1.4280   -0.4030   -0.5010 ca        1 QK5      0.414200
     30 C3         -0.3570   -0.2160    0.9020 ca        1 QK5      0.433800
     31 N2         -1.6960   -0.1350    1.3410 na        1 QK5     -0.181100
     32 C27        -3.0690    1.5880    0.2810 c1        1 QK5      0.178700
     33 N6         -3.2910    2.7120    0.0860 n1        1 QK5     -0.344800
     34 H5          2.5570   -0.4410    2.7440 ha        1 QK5      0.143000
     35 H8          1.2200   -0.3690    4.6000 hc        1 QK5      0.065700
     36 H10         1.0970   -0.4360    7.5660 h1        1 QK5      0.058700
     37 H10A       -0.2360    0.4060    8.4770 h1        1 QK5      0.058700
     38 H13        -3.6190   -0.7730    3.3420 hc        1 QK5      0.059033
     39 H13A       -2.7020    0.1310    4.6220 hc        1 QK5      0.059033
     40 H13B       -3.4710    1.0360    3.2470 hc        1 QK5      0.059033
     41 H17         0.4340    5.7510    6.4490 h4        1 QK5      0.027100
     42 H24         3.5720    4.9070   15.9090 ha        1 QK5      0.134000
     43 H19         2.0550    1.7110   10.9860 ha        1 QK5      0.172000
     44 H23         3.6630    2.4370   15.6990 ha        1 QK5      0.134000
     45 H25         2.8070    6.3210   14.0020 ha        1 QK5      0.138000
     46 H16         1.2960    5.9410    8.8380 ha        1 QK5      0.155000
     47 H9         -1.1830    1.5020    5.2050 h1        1 QK5      0.058700
     48 H9A         0.4870    1.9610    4.6350 h1        1 QK5      0.058700
     49 H11        -1.0170   -1.7160    7.5220 hc        1 QK5      0.049200
     50 H11A       -1.9180   -0.3180    6.8120 hc        1 QK5      0.049200
     51 H12        -1.4430   -1.6850    4.9330 hc        1 QK5      0.047700
     52 H12A        0.1940   -2.1360    5.5310 hc        1 QK5      0.047700
     53 H1          3.4150   -0.5610    0.3740 ha        1 QK5      0.144000
     54 H2          1.8000   -0.4520   -1.5410 h4        1 QK5      0.023100
     55 C26        -2.8150    0.1640    0.5010 c3        1 QK5      0.112400
     56 H22         2.9870    1.3180   13.5620 ha        1 QK5      0.138000
     57 H26        -2.6450   -0.3210   -0.5090 h1        1 QK5      0.097700
     58 H26A       -3.7400   -0.2860    0.9730 h1        1 QK5      0.097700
@<TRIPOS>BOND
     1    1   29 ar  
     2    1   30 ar  
     3    2    8 1   
     4    2   24 1   
     5    2   25 1   
     6    3    4 ar  
     7    3    6 1   
     8    3   30 ar  
     9    4   28 ar  
    10    4   34 1   
    11    5    6 2   
    12    5    9 1   
    13    5   31 1   
    14    6    7 1   
    15    7   25 1   
    16    7   27 1   
    17    7   35 1   
    18    8   26 1   
    19    8   36 1   
    20    8   37 1   
    21    9   38 1   
    22    9   39 1   
    23    9   40 1   
    24   10   20 1   
    25   10   21 ar  
    26   10   22 ar  
    27   11   22 ar  
    28   11   23 ar  
    29   11   41 1   
    30   12   13 ar  
    31   12   14 ar  
    32   12   16 1   
    33   13   18 ar  
    34   13   19 1   
    35   14   17 ar  
    36   14   56 1   
    37   15   17 ar  
    38   15   18 ar  
    39   15   42 1   
    40   16   20 2   
    41   16   43 1   
    42   17   44 1   
    43   18   45 1   
    44   19   20 1   
    45   21   24 ar  
    46   22   46 1   
    47   23   24 ar  
    48   25   47 1   
    49   25   48 1   
    50   26   27 1   
    51   26   49 1   
    52   26   50 1   
    53   27   51 1   
    54   27   52 1   
    55   28   29 ar  
    56   28   53 1   
    57   29   54 1   
    58   30   31 1   
    59   31   55 1   
    60   32   33 3   
    61   32   55 1   
    62   55   57 1   
    63   55   58 1   
@<TRIPOS>SUBSTRUCTURE
     1 QK5         1 TEMP              0 ****  ****    0 ROOT
