@<TRIPOS>MOLECULE
QK5
   58    63     1     0     0
SMALL
bcc


@<TRIPOS>ATOM
      1 N1          0.3300   -0.2510   -0.0160 nb        1 QK5     -0.672000
      2 N3         -0.1360    1.3570    6.7380 nh        1 QK5     -0.725300
      3 C4          0.0820   -0.1340    2.4660 ca        1 QK5     -0.179100
      4 C5          1.4680   -0.1920    2.6270 ca        1 QK5     -0.052000
      5 C6         -2.2060   -0.0080    2.5490 cc        1 QK5     -0.033300
      6 C7         -1.0610   -0.0370    3.3500 cd        1 QK5     -0.116400
      7 C8         -1.0270    0.0050    4.8270 c3        1 QK5      0.000500
      8 C10         0.3690    0.1510    7.3790 c3        1 QK5      0.197800
      9 C13        -3.6180    0.1010    2.9700 c3        1 QK5     -0.050900
     10 C15         1.1860    3.8120    9.0660 ca        1 QK5      0.566100
     11 C17         0.4200    4.9140    7.0770 ca        1 QK5      0.467200
     12 C20         2.5790    3.2260   12.4870 ca        1 QK5     -0.095800
     13 C21         2.7850    4.6340   12.5160 ca        1 QK5     -0.068100
     14 C22         2.9440    2.4380   13.5890 ca        1 QK5     -0.083000
     15 C24         3.7080    4.4410   14.7250 ca        1 QK5     -0.113000
     16 C19         1.9870    2.8070   11.2440 cc        1 QK5     -0.067200
     17 C23         3.5050    3.0480   14.6970 ca        1 QK5     -0.137000
     18 C25         3.3530    5.2340   13.6460 ca        1 QK5     -0.100000
     19 S1          2.2660    5.3480   11.0810 ss        1 QK5      0.030500
     20 C18         1.7690    3.8660   10.3990 cd        1 QK5     -0.179200
     21 N4          0.8770    2.6060    8.5320 nb        1 QK5     -0.748000
     22 C16         0.9680    5.0220    8.3650 ca        1 QK5     -0.420600
     23 N5          0.0960    3.7480    6.5040 nb        1 QK5     -0.743000
     24 C14         0.3140    2.5980    7.2620 ca        1 QK5      0.873900
     25 C9         -0.2990    1.2810    5.2930 c3        1 QK5      0.200800
     26 C11        -0.3340   -1.1250    6.9180 c3        1 QK5     -0.086400
     27 C12        -0.3650   -1.2350    5.4120 c3        1 QK5     -0.077400
     28 C1          2.2580   -0.2750    1.4880 ca        1 QK5     -0.269300
     29 C2          1.6490   -0.3000    0.2090 ca        1 QK5      0.414200
     30 C3         -0.4400   -0.1670    1.1080 ca        1 QK5      0.432800
     31 N2         -1.8490   -0.1420    1.1860 na        1 QK5     -0.181100
     32 C27        -3.0180    1.4440   -0.2610 c1        1 QK5      0.178700
     33 N6         -3.2620    2.5420   -0.5500 n1        1 QK5     -0.344800
     34 H5          1.9210   -0.1710    3.6300 ha        1 QK5      0.142000
     35 H8         -2.0840    0.0450    5.2200 hc        1 QK5      0.062700
     36 H10         1.4770    0.0440    7.1880 h1        1 QK5      0.052700
     37 H10A        0.2140    0.2380    8.4920 h1        1 QK5      0.052700
     38 H13        -4.1300   -0.8900    2.8750 hc        1 QK5      0.058700
     39 H13A       -3.6770    0.4310    4.0360 hc        1 QK5      0.058700
     40 H13B       -4.1700    0.8470    2.3430 hc        1 QK5      0.058700
     41 H17         0.2330    5.8130    6.4610 h4        1 QK5      0.027100
     42 H24         4.1560    4.9000   15.6190 ha        1 QK5      0.134000
     43 H19         1.7490    1.7620   11.0250 ha        1 QK5      0.172000
     44 H23         3.7970    2.4460   15.5700 ha        1 QK5      0.134000
     45 H25         3.5140    6.3210   13.6720 ha        1 QK5      0.138000
     46 H16         1.2170    5.9950    8.8030 ha        1 QK5      0.156000
     47 H9         -0.9130    2.1590    4.9440 h1        1 QK5      0.060700
     48 H9A         0.7060    1.3310    4.7810 h1        1 QK5      0.060700
     49 H11         0.2180   -1.9970    7.3560 hc        1 QK5      0.051700
     50 H11A       -1.3800   -1.1460    7.3210 hc        1 QK5      0.051700
     51 H12        -0.9350   -2.1490    5.1050 hc        1 QK5      0.048200
     52 H12A        0.6770   -1.3360    5.0100 hc        1 QK5      0.048200
     53 H1          3.3530   -0.3190    1.5640 ha        1 QK5      0.144000
     54 H2          2.2750   -0.3630   -0.7010 h4        1 QK5      0.023100
     55 C26        -2.7280    0.0490    0.0730 c3        1 QK5      0.112400
     56 H22         2.7820    1.3510   13.5590 ha        1 QK5      0.138000
     57 H26        -2.2680   -0.4410   -0.8380 h1        1 QK5      0.098200
     58 H26A       -3.7100   -0.4640    0.3080 h1        1 QK5      0.098200
@<TRIPOS>BOND
     1    1   29 ar  
     2    1   30 ar  
     3    2    8 1   
     4    2   24 1   
     5    2   25 1   
     6    3    4 ar  
     7    3    6 1   
     8    3   30 ar  
     9    4   28 ar  
    10    4   34 1   
    11    5    6 2   
    12    5    9 1   
    13    5   31 1   
    14    6    7 1   
    15    7   25 1   
    16    7   27 1   
    17    7   35 1   
    18    8   26 1   
    19    8   36 1   
    20    8   37 1   
    21    9   38 1   
    22    9   39 1   
    23    9   40 1   
    24   10   20 1   
    25   10   21 ar  
    26   10   22 ar  
    27   11   22 ar  
    28   11   23 ar  
    29   11   41 1   
    30   12   13 ar  
    31   12   14 ar  
    32   12   16 1   
    33   13   18 ar  
    34   13   19 1   
    35   14   17 ar  
    36   14   56 1   
    37   15   17 ar  
    38   15   18 ar  
    39   15   42 1   
    40   16   20 2   
    41   16   43 1   
    42   17   44 1   
    43   18   45 1   
    44   19   20 1   
    45   21   24 ar  
    46   22   46 1   
    47   23   24 ar  
    48   25   47 1   
    49   25   48 1   
    50   26   27 1   
    51   26   49 1   
    52   26   50 1   
    53   27   51 1   
    54   27   52 1   
    55   28   29 ar  
    56   28   53 1   
    57   29   54 1   
    58   30   31 1   
    59   31   55 1   
    60   32   33 3   
    61   32   55 1   
    62   55   57 1   
    63   55   58 1   
@<TRIPOS>SUBSTRUCTURE
     1 QK5         1 TEMP              0 ****  ****    0 ROOT
