@<TRIPOS>MOLECULE
QK5
   58    63     1     0     0
SMALL
bcc


@<TRIPOS>ATOM
      1 N1          0.3690   -0.2640    0.0110 nb        1 QK5     -0.672000
      2 N3         -0.1110    1.3620    6.7600 nh        1 QK5     -0.725300
      3 C4          0.1110   -0.1400    2.4920 ca        1 QK5     -0.179100
      4 C5          1.4950   -0.2150    2.6600 ca        1 QK5     -0.052000
      5 C6         -2.1770    0.0150    2.5640 cc        1 QK5     -0.033300
      6 C7         -1.0360   -0.0270    3.3700 cd        1 QK5     -0.116400
      7 C8         -1.0080    0.0170    4.8470 c3        1 QK5      0.000500
      8 C10         0.3760    0.1500    7.4060 c3        1 QK5      0.197800
      9 C13        -3.5890    0.1420    2.9780 c3        1 QK5     -0.050900
     10 C15         1.2250    3.8050    9.0920 ca        1 QK5      0.566100
     11 C17         0.4920    4.9110    7.0940 ca        1 QK5      0.467200
     12 C20         2.5760    3.2090   12.5290 ca        1 QK5     -0.095800
     13 C21         2.8060    4.6140   12.5530 ca        1 QK5     -0.068100
     14 C22         2.9170    2.4200   13.6380 ca        1 QK5     -0.083000
     15 C24         3.7050    4.4150   14.7720 ca        1 QK5     -0.113000
     16 C19         1.9880    2.7950   11.2830 cc        1 QK5     -0.067200
     17 C23         3.4780    3.0260   14.7490 ca        1 QK5     -0.137000
     18 C25         3.3750    5.2090   13.6870 ca        1 QK5     -0.100000
     19 S1          2.3140    5.3310   11.1110 ss        1 QK5      0.030500
     20 C18         1.7970    3.8550   10.4300 cd        1 QK5     -0.179200
     21 N4          0.9040    2.6010    8.5590 nb        1 QK5     -0.748000
     22 C16         1.0300    5.0160    8.3870 ca        1 QK5     -0.420600
     23 N5          0.1570    3.7490    6.5210 nb        1 QK5     -0.743000
     24 C14         0.3520    2.5980    7.2850 ca        1 QK5      0.873900
     25 C9         -0.2670    1.2850    5.3140 c3        1 QK5      0.200800
     26 C11        -0.3400   -1.1170    6.9440 c3        1 QK5     -0.086400
     27 C12        -0.3650   -1.2290    5.4380 c3        1 QK5     -0.077400
     28 C1          2.2890   -0.3100    1.5240 ca        1 QK5     -0.269300
     29 C2          1.6860   -0.3300    0.2430 ca        1 QK5      0.414200
     30 C3         -0.4060   -0.1690    1.1310 ca        1 QK5      0.432800
     31 N2         -1.8140   -0.1260    1.2020 na        1 QK5     -0.181100
     32 C27        -2.9570    1.4720   -0.2520 c1        1 QK5      0.178700
     33 N6         -3.1860    2.5730   -0.5440 n1        1 QK5     -0.344800
     34 H5          1.9420   -0.1980    3.6640 ha        1 QK5      0.142000
     35 H8         -2.0670    0.0710    5.2350 hc        1 QK5      0.062700
     36 H10         1.4830    0.0290    7.2220 h1        1 QK5      0.052700
     37 H10A        0.2150    0.2420    8.5180 h1        1 QK5      0.052700
     38 H13        -4.1120   -0.8430    2.8830 hc        1 QK5      0.058700
     39 H13A       -4.1290    0.8930    2.3460 hc        1 QK5      0.058700
     40 H13B       -3.6490    0.4770    4.0430 hc        1 QK5      0.058700
     41 H17         0.3220    5.8110    6.4740 h4        1 QK5      0.027100
     42 H24         4.1530    4.8700   15.6680 ha        1 QK5      0.134000
     43 H19         1.7340    1.7530   11.0660 ha        1 QK5      0.172000
     44 H23         3.7510    2.4220   15.6270 ha        1 QK5      0.134000
     45 H25         3.5550    6.2930   13.7090 ha        1 QK5      0.138000
     46 H16         1.2890    5.9860    8.8240 ha        1 QK5      0.156000
     47 H9         -0.8690    2.1700    4.9610 h1        1 QK5      0.060700
     48 H9A         0.7410    1.3210    4.8080 h1        1 QK5      0.060700
     49 H11        -1.3890   -1.1250    7.3410 hc        1 QK5      0.051700
     50 H11A        0.1980   -1.9950    7.3860 hc        1 QK5      0.051700
     51 H12        -0.9440   -2.1380    5.1290 hc        1 QK5      0.048200
     52 H12A        0.6780   -1.3440    5.0420 hc        1 QK5      0.048200
     53 H1          3.3820   -0.3670    1.6060 ha        1 QK5      0.144000
     54 H2          2.3150   -0.4020   -0.6640 h4        1 QK5      0.023100
     55 C26        -2.6860    0.0740    0.0850 c3        1 QK5      0.112400
     56 H22         2.7350    1.3360   13.6120 ha        1 QK5      0.138000
     57 H26        -3.6750   -0.4260    0.3160 h1        1 QK5      0.098200
     58 H26A       -2.2270   -0.4230   -0.8240 h1        1 QK5      0.098200
@<TRIPOS>BOND
     1    1   29 ar  
     2    1   30 ar  
     3    2    8 1   
     4    2   24 1   
     5    2   25 1   
     6    3    4 ar  
     7    3    6 1   
     8    3   30 ar  
     9    4   28 ar  
    10    4   34 1   
    11    5    6 2   
    12    5    9 1   
    13    5   31 1   
    14    6    7 1   
    15    7   25 1   
    16    7   27 1   
    17    7   35 1   
    18    8   26 1   
    19    8   36 1   
    20    8   37 1   
    21    9   38 1   
    22    9   39 1   
    23    9   40 1   
    24   10   20 1   
    25   10   21 ar  
    26   10   22 ar  
    27   11   22 ar  
    28   11   23 ar  
    29   11   41 1   
    30   12   13 ar  
    31   12   14 ar  
    32   12   16 1   
    33   13   18 ar  
    34   13   19 1   
    35   14   17 ar  
    36   14   56 1   
    37   15   17 ar  
    38   15   18 ar  
    39   15   42 1   
    40   16   20 2   
    41   16   43 1   
    42   17   44 1   
    43   18   45 1   
    44   19   20 1   
    45   21   24 ar  
    46   22   46 1   
    47   23   24 ar  
    48   25   47 1   
    49   25   48 1   
    50   26   27 1   
    51   26   49 1   
    52   26   50 1   
    53   27   51 1   
    54   27   52 1   
    55   28   29 ar  
    56   28   53 1   
    57   29   54 1   
    58   30   31 1   
    59   31   55 1   
    60   32   33 3   
    61   32   55 1   
    62   55   57 1   
    63   55   58 1   
@<TRIPOS>SUBSTRUCTURE
     1 QK5         1 TEMP              0 ****  ****    0 ROOT
