@<TRIPOS>MOLECULE
QKV
   34    34     1     0     0
SMALL
bcc


@<TRIPOS>ATOM
      1 N1         -0.0120   -0.0910    0.1130 n3        1 QKV     -0.289000
      2 C4          1.0990    2.8100    4.1770 c2        1 QKV     -0.240000
      3 C5          0.0800    1.9630    1.5360 c3        1 QKV     -0.114000
      4 C6          0.5080   -0.3650    2.5330 c3        1 QKV     -0.114000
      5 C8          0.7230   -0.8630    1.1040 c3        1 QKV     -0.058000
      6 C10         0.2370    5.0910    3.6620 c2        1 QKV      0.127000
      7 C13         2.1700    3.1170    5.1620 c3        1 QKV      0.027000
      8 C15         3.4900    3.1180    4.5960 c1        1 QKV     -0.073000
      9 C14         4.5970    3.1230    4.1360 c1        1 QKV     -0.330000
     10 C3          0.0580    3.7280    3.7970 c2        1 QKV     -0.199000
     11 C11        -1.2850    3.3200    3.6080 c1        1 QKV     -0.127000
     12 O1          1.1670    1.5440    3.7360 os        1 QKV      0.088000
     13 C2          0.6160    1.1130    2.6110 c2        1 QKV     -0.153000
     14 O2          1.4380    5.6720    3.9000 oh        1 QKV     -0.228000
     15 C9          0.3060    1.3270    0.1610 c3        1 QKV     -0.058000
     16 C1          0.0570   -0.6550   -1.2240 c3        1 QKV      0.055000
     17 O3          1.3570   -0.7530   -1.7970 oh        1 QKV     -0.350000
     18 H5         -1.0260    2.1400    1.6800 hc        1 QKV      0.107250
     19 H5A         0.5890    2.9660    1.5440 hc        1 QKV      0.107250
     20 H6         -0.5160   -0.6640    2.8900 hc        1 QKV      0.107250
     21 H6A         1.2610   -0.8570    3.2040 hc        1 QKV      0.107250
     22 H8          0.3650   -1.9290    1.0430 h1        1 QKV      0.078750
     23 H8A         1.8310   -0.8600    0.8810 h1        1 QKV      0.078750
     24 H10         1.3440    6.6300    3.7790 ho        1 QKV      0.229000
     25 H10A       -0.6170    5.7450    3.4050 h4        1 QKV      0.158000
     26 H13         1.9570    4.1340    5.6010 hc        1 QKV      0.115000
     27 H15         2.1390    2.3610    6.0000 hc        1 QKV      0.115000
     28 H11        -1.5330    2.2830    3.8780 ha        1 QKV      0.055000
     29 H9          1.3790    1.5180   -0.1400 h1        1 QKV      0.078750
     30 H9A        -0.3570    1.8560   -0.5820 h1        1 QKV      0.078750
     31 H1         -0.6120   -0.0460   -1.8970 h2        1 QKV      0.103000
     32 H1A        -0.2970   -1.7250   -1.1840 h2        1 QKV      0.103000
     33 HO3         1.6830    0.1380   -1.9700 ho        1 QKV      0.197000
     34 BR1         6.2050    3.1290    3.4710 br        1 QKV      0.219000
@<TRIPOS>BOND
     1    1    5 1   
     2    1   15 1   
     3    1   16 1   
     4    2    7 1   
     5    2   10 1   
     6    2   12 1   
     7    3   13 1   
     8    3   15 1   
     9    3   18 1   
    10    3   19 1   
    11    4    5 1   
    12    4   13 1   
    13    4   20 1   
    14    4   21 1   
    15    5   22 1   
    16    5   23 1   
    17    6   10 1   
    18    6   14 1   
    19    6   25 1   
    20    7    8 1   
    21    7   26 1   
    22    7   27 1   
    23    8    9 1   
    24    9   34 1   
    25   10   11 1   
    26   11   28 1   
    27   12   13 1   
    28   14   24 1   
    29   15   29 1   
    30   15   30 1   
    31   16   17 1   
    32   16   31 1   
    33   16   32 1   
    34   17   33 1   
@<TRIPOS>SUBSTRUCTURE
     1 QKV         1 TEMP              0 ****  ****    0 ROOT
