@<TRIPOS>MOLECULE
QKV
   34    36     1     0     0
SMALL
bcc


@<TRIPOS>ATOM
      1 N1         -4.5770    0.4490    0.4240 n3        1 QKV     -0.783600
      2 C4          0.3810   -1.0730    0.0580 ca        1 QKV      0.153100
      3 C5         -2.1580    0.3430    0.9650 c3        1 QKV     -0.090400
      4 C6         -3.1900   -1.3320   -0.6250 c3        1 QKV     -0.090400
      5 C8         -4.3840   -0.3920   -0.7480 c3        1 QKV      0.177800
      6 C10        -0.3020    0.8960   -1.2920 c3        1 QKV      0.179700
      7 C13         1.3350   -1.8660    0.7140 ca        1 QKV     -0.153000
      8 C15         2.6590   -1.4420    0.7380 ca        1 QKV     -0.072000
      9 C14         3.0330   -0.2410    0.1230 ca        1 QKV     -0.059900
     10 C3          0.7510    0.1240   -0.5780 ca        1 QKV     -0.190300
     11 C11         2.0800    0.5390   -0.5370 ca        1 QKV     -0.061000
     12 O1         -0.9160   -1.5370    0.0270 os        1 QKV     -0.343900
     13 C2         -1.9230   -0.5460   -0.2580 c3        1 QKV      0.342600
     14 O2         -1.5090    0.1470   -1.4200 os        1 QKV     -0.419600
     15 C9         -3.3930    1.2180    0.7720 c3        1 QKV      0.177800
     16 C1         -5.7740    1.2820    0.3330 c3        1 QKV      0.376600
     17 O3         -6.9590    0.5110    0.2180 oh        1 QKV     -0.600800
     18 H5         -2.2870   -0.3250    1.8560 hc        1 QKV      0.071700
     19 H5A        -1.2710    0.9990    1.1480 hc        1 QKV      0.071700
     20 H6         -3.3600   -2.1020    0.1700 hc        1 QKV      0.071700
     21 H6A        -3.0330   -1.8530   -1.6030 hc        1 QKV      0.071700
     22 H8         -5.3210   -1.0060   -0.8780 h1        1 QKV      0.043450
     23 H8A        -4.2460    0.2320   -1.6810 h1        1 QKV      0.043450
     24 H10        -0.5180    1.8640   -0.7640 h1        1 QKV      0.064700
     25 H10A       -0.0090    1.1030   -2.3580 h1        1 QKV      0.064700
     26 H13         1.0280   -2.8080    1.1910 ha        1 QKV      0.157000
     27 H15         3.4120   -2.0620    1.2510 ha        1 QKV      0.150000
     28 H11         2.3690    1.4790   -1.0330 ha        1 QKV      0.148000
     29 H9         -3.1560    1.9940   -0.0160 h1        1 QKV      0.043450
     30 H9A        -3.6010    1.7590    1.7390 h1        1 QKV      0.043450
     31 H1         -5.8260    1.9230    1.2590 h2        1 QKV      0.043200
     32 H1A        -5.7910    1.9350   -0.5910 h2        1 QKV      0.043200
     33 HO3        -7.0060   -0.0920    0.9710 ho        1 QKV      0.411000
     34 BR1         4.8180    0.3200    0.1800 br        1 QKV     -0.087100
@<TRIPOS>BOND
     1    1    5 1   
     2    1   15 1   
     3    1   16 1   
     4    2    7 ar  
     5    2   10 ar  
     6    2   12 1   
     7    3   13 1   
     8    3   15 1   
     9    3   18 1   
    10    3   19 1   
    11    4    5 1   
    12    4   13 1   
    13    4   20 1   
    14    4   21 1   
    15    5   22 1   
    16    5   23 1   
    17    6   10 1   
    18    6   14 1   
    19    6   24 1   
    20    6   25 1   
    21    7    8 ar  
    22    7   26 1   
    23    8    9 ar  
    24    8   27 1   
    25    9   11 ar  
    26    9   34 1   
    27   10   11 ar  
    28   11   28 1   
    29   12   13 1   
    30   13   14 1   
    31   15   29 1   
    32   15   30 1   
    33   16   17 1   
    34   16   31 1   
    35   16   32 1   
    36   17   33 1   
@<TRIPOS>SUBSTRUCTURE
     1 QKV         1 TEMP              0 ****  ****    0 ROOT
