@<TRIPOS>MOLECULE
QKV
   34    33     1     0     0
SMALL
bcc


@<TRIPOS>ATOM
      1 N1          0.5090   -0.0620   -0.1400 n3        1 QKV     -0.196000
      2 C4          1.0840    2.5130    4.2150 c2        1 QKV     -0.221000
      3 C5          0.1060    1.6950    1.5170 c3        1 QKV     -0.150000
      4 C6          1.3030   -0.4830    2.1920 c3        1 QKV     -0.098000
      5 C8          1.4890   -0.7440    0.6970 c3        1 QKV     -0.093000
      6 C10         0.5430    4.5510    2.8940 c2        1 QKV      0.180000
      7 C13         1.7740    2.6560    5.5300 c3        1 QKV      0.021000
      8 C15         2.9570    3.4660    5.4710 c1        1 QKV     -0.076000
      9 C14         3.9480    4.1410    5.4380 c1        1 QKV     -0.327000
     10 C3          0.1660    3.5270    3.7390 c2        1 QKV     -0.222000
     11 C11        -1.1750    3.5990    4.1660 c1        1 QKV     -0.126000
     12 O1          1.3850    1.3560    3.6310 os        1 QKV      0.104000
     13 C2          0.9360    0.9320    2.4610 c2        1 QKV     -0.229000
     14 O2          1.7900    4.6070    2.3780 oh        1 QKV     -0.221000
     15 C9         -0.1380    1.0290    0.2090 c1        1 QKV     -0.115000
     16 C1          0.2560   -0.6630   -1.4480 c3        1 QKV      0.100000
     17 O3         -0.3780   -1.9240   -1.3570 oh        1 QKV     -0.333000
     18 H5          0.5930    2.6870    1.2810 hc        1 QKV      0.125500
     19 H5A        -0.9000    1.9250    1.9730 hc        1 QKV      0.125500
     20 H6          0.4860   -1.1460    2.5910 hc        1 QKV      0.099500
     21 H6A         2.2510   -0.7600    2.7240 hc        1 QKV      0.099500
     22 H8          1.4190   -1.8540    0.5120 h1        1 QKV      0.099500
     23 H8A         2.5170   -0.4020    0.3850 h1        1 QKV      0.099500
     24 H10         1.8660    5.4050    1.8290 ho        1 QKV      0.235000
     25 H10A       -0.1820    5.3380    2.6050 h4        1 QKV      0.162000
     26 H13         1.0420    3.1210    6.2520 hc        1 QKV      0.116500
     27 H15         2.0540    1.6380    5.9300 hc        1 QKV      0.116500
     28 H11        -1.5250    2.8300    4.8690 ha        1 QKV      0.055000
     29 H9          0.3440    4.9170    0.2650 ha        1 QKV      0.001000
     30 H9A         0.7900    4.6730   -0.1840 ha        1 QKV      0.001000
     31 H1         -0.3630    0.0560   -2.0560 h2        1 QKV      0.116500
     32 H1A         1.2430   -0.8860   -1.9490 h2        1 QKV      0.116500
     33 HO3        -1.2880   -1.7900   -1.0640 ho        1 QKV      0.213000
     34 BR1         5.3880    5.1160    5.3940 br        1 QKV      0.219000
@<TRIPOS>BOND
     1    1    5 1   
     2    1   15 1   
     3    1   16 1   
     4    2    7 1   
     5    2   10 1   
     6    2   12 1   
     7    3   13 1   
     8    3   15 1   
     9    3   18 1   
    10    3   19 1   
    11    4    5 1   
    12    4   13 1   
    13    4   20 1   
    14    4   21 1   
    15    5   22 1   
    16    5   23 1   
    17    6   10 1   
    18    6   14 1   
    19    6   25 1   
    20    7    8 1   
    21    7   26 1   
    22    7   27 1   
    23    8    9 1   
    24    9   34 1   
    25   10   11 1   
    26   11   28 1   
    27   12   13 1   
    28   14   24 1   
    29   16   17 1   
    30   16   31 1   
    31   16   32 1   
    32   17   33 1   
    33   29   30 1   
@<TRIPOS>SUBSTRUCTURE
     1 QKV         1 TEMP              0 ****  ****    0 ROOT
