@<TRIPOS>MOLECULE
QL2
   33    35     1     0     0
SMALL
bcc


@<TRIPOS>ATOM
      1 N1          0.5130   -1.4890   -0.1750 nb        1 QL2     -0.662000
      2 C2          1.8090   -1.0370   -0.0480 ca        1 QL2      0.790000
      3 N2          3.3600   -1.4720   -2.0920 n1        1 QL2     -0.238800
      4 N3          2.3710   -0.3900    1.0210 nb        1 QL2     -0.591000
      5 C4          1.5200   -0.1910    2.0540 ca        1 QL2      0.447800
      6 C5          0.1030   -0.6250    2.0440 ca        1 QL2     -0.123200
      7 C6         -0.3180   -1.2790    0.8710 ca        1 QL2      0.545200
      8 N6         -1.7200   -1.7540    0.7710 n4        1 QL2     -0.615100
      9 N7         -0.5100   -0.2800    3.2490 nc        1 QL2     -0.586100
     10 C8          0.4590    0.3290    3.9660 cd        1 QL2      0.503700
     11 N9          1.7040    0.4030    3.3120 na        1 QL2     -0.234000
     12 CAI        -4.1800    0.8530   -1.5520 ca        1 QL2     -0.160000
     13 CAJ        -2.5070   -0.9330   -1.4280 ca        1 QL2     -0.164000
     14 CAK        -3.3800    0.0750    0.6290 ca        1 QL2     -0.164000
     15 CAL         2.9070    1.0400    3.7960 c3        1 QL2      0.032300
     16 CAS         2.6680   -1.2790   -1.1810 cg        1 QL2      0.113800
     17 CAT        -3.3330   -0.0740   -2.1820 ca        1 QL2      0.191400
     18 CAU        -4.1950    0.9220   -0.1480 ca        1 QL2      0.191400
     19 CAV        -2.5540   -0.8450   -0.0310 ca        1 QL2      0.008600
     20 HN6        -2.1040   -1.8170    1.7270 hn        1 QL2      0.482800
     21 H8          0.3200    0.7320    4.9850 h5        1 QL2      0.109800
     22 HAA         2.2180    3.1210    3.8000 hc        1 QL2      0.065700
     23 HAAA        3.0990    2.6200    2.2930 hc        1 QL2      0.065700
     24 HAAB        4.0150    2.8780    3.8360 hc        1 QL2      0.065700
     25 HAI        -4.8230    1.5200   -2.1510 ha        1 QL2      0.201000
     26 HAJ        -1.8440   -1.6390   -1.9550 ha        1 QL2      0.187000
     27 HAK        -3.4130    0.1620    1.7280 ha        1 QL2      0.187000
     28 HAL         3.7860    0.4530    3.3980 h1        1 QL2      0.088700
     29 HALA        2.8970    0.9500    4.9220 h1        1 QL2      0.088700
     30 FAF        -4.9990    1.8090    0.4730 f         1 QL2     -0.093400
     31 H62        -1.7360   -2.6880    0.3330 hn        1 QL2      0.482800
     32 FAE        -3.3040   -0.1500   -3.5280 f         1 QL2     -0.093400
     33 CAA         3.0560    2.4990    3.4020 c3        1 QL2     -0.124100
@<TRIPOS>BOND
     1    1    2 ar  
     2    1    7 ar  
     3    2    4 ar  
     4    2   16 1   
     5    3   16 3   
     6    4    5 ar  
     7    5    6 ar  
     8    5   11 1   
     9    6    7 ar  
    10    6    9 1   
    11    7    8 1   
    12    8   19 1   
    13    8   20 1   
    14    8   31 1   
    15    9   10 2   
    16   10   11 1   
    17   10   21 1   
    18   11   15 1   
    19   12   17 ar  
    20   12   18 ar  
    21   12   25 1   
    22   13   17 ar  
    23   13   19 ar  
    24   13   26 1   
    25   14   18 ar  
    26   14   19 ar  
    27   14   27 1   
    28   15   28 1   
    29   15   29 1   
    30   15   33 1   
    31   17   32 1   
    32   18   30 1   
    33   22   33 1   
    34   23   33 1   
    35   24   33 1   
@<TRIPOS>SUBSTRUCTURE
     1 QL2         1 TEMP              0 ****  ****    0 ROOT
