@<TRIPOS>MOLECULE
QL2
   32    34     1     0     0
SMALL
bcc


@<TRIPOS>ATOM
      1 N1         -0.2810   -1.0530   -0.0090 nb        1 QL2     -0.747000
      2 C2         -1.4380   -1.7860    0.1160 ca        1 QL2      0.786000
      3 N2         -1.0900   -4.3310    0.5630 n1        1 QL2     -0.322800
      4 N3         -2.7340   -1.3690    0.0430 nb        1 QL2     -0.683000
      5 C4         -2.8440   -0.0270   -0.1840 ca        1 QL2      0.445800
      6 C5         -1.7040    0.8720   -0.3360 ca        1 QL2     -0.202200
      7 C6         -0.3950    0.2870   -0.2480 ca        1 QL2      0.755200
      8 N6          0.7090    1.1060   -0.4410 nh        1 QL2     -0.726300
      9 N7         -2.1540    2.1810   -0.5490 nc        1 QL2     -0.546100
     10 C8         -3.4940    2.0960   -0.5330 cd        1 QL2      0.420700
     11 N9         -3.9800    0.7820   -0.3380 na        1 QL2     -0.253000
     12 CAA        -5.8850    0.4390    1.2360 c3        1 QL2     -0.121100
     13 CAI         4.7910    0.0920    0.0900 ca        1 QL2     -0.221000
     14 CAJ         2.5620   -0.4830   -0.7540 ca        1 QL2     -0.201500
     15 CAK         2.9110    1.6190    0.4280 ca        1 QL2     -0.201500
     16 CAL        -5.3500    0.3800   -0.1870 c3        1 QL2      0.043300
     17 CAS        -1.2450   -3.1980    0.3640 cg        1 QL2      0.150800
     18 CAT         3.9230   -0.7880   -0.5750 ca        1 QL2      0.171900
     19 CAU         4.2680    1.2980    0.5830 ca        1 QL2      0.171900
     20 CAV         2.0500    0.7220   -0.2420 ca        1 QL2      0.194600
     21 HN6         0.5270    2.0880   -0.3970 hn        1 QL2      0.464800
     22 H8         -4.1820    2.9390   -0.6750 h5        1 QL2      0.079800
     23 HAA        -6.9520    0.1090    1.2240 hc        1 QL2      0.053033
     24 HAAA       -5.3090   -0.2390    1.9100 hc        1 QL2      0.053033
     25 HAAB       -5.8350    1.4760    1.6470 hc        1 QL2      0.053033
     26 HAI         5.8530   -0.1560    0.2220 ha        1 QL2      0.168000
     27 HAJ         1.9280   -1.2020   -1.2960 ha        1 QL2      0.166000
     28 HAK         2.5420    2.5730    0.8350 ha        1 QL2      0.166000
     29 HAL        -5.9720    1.0530   -0.8460 h1        1 QL2      0.071700
     30 HALA       -5.4430   -0.6780   -0.5710 h1        1 QL2      0.071700
     31 FAE         4.4090   -1.9530   -1.0650 f         1 QL2     -0.131400
     32 FAF         5.0850    2.1660    1.2250 f         1 QL2     -0.131400
@<TRIPOS>BOND
     1    1    2 ar  
     2    1    7 ar  
     3    2    4 ar  
     4    2   17 1   
     5    3   17 3   
     6    4    5 ar  
     7    5    6 ar  
     8    5   11 1   
     9    6    7 ar  
    10    6    9 1   
    11    7    8 1   
    12    8   20 1   
    13    8   21 1   
    14    9   10 2   
    15   10   11 1   
    16   10   22 1   
    17   11   16 1   
    18   12   16 1   
    19   12   23 1   
    20   12   24 1   
    21   12   25 1   
    22   13   18 ar  
    23   13   19 ar  
    24   13   26 1   
    25   14   18 ar  
    26   14   20 ar  
    27   14   27 1   
    28   15   19 ar  
    29   15   20 ar  
    30   15   28 1   
    31   16   29 1   
    32   16   30 1   
    33   18   31 1   
    34   19   32 1   
@<TRIPOS>SUBSTRUCTURE
     1 QL2         1 TEMP              0 ****  ****    0 ROOT
