@<TRIPOS>MOLECULE
QL2
   32    34     1     0     0
SMALL
bcc


@<TRIPOS>ATOM
      1 N1          0.2160   -0.1940   -0.1780 nb        1 QL2     -0.747000
      2 C2          1.5800   -0.1150   -0.0170 ca        1 QL2      0.786000
      3 N2          2.9600   -0.2070   -2.2270 n1        1 QL2     -0.322800
      4 N3          2.3050    0.0090    1.1300 nb        1 QL2     -0.683000
      5 C4          1.5210    0.0590    2.2470 ca        1 QL2      0.445800
      6 C5          0.0640   -0.0120    2.2260 ca        1 QL2     -0.202200
      7 C6         -0.5640   -0.1560    0.9430 ca        1 QL2      0.755200
      8 N6         -1.9460   -0.2800    0.8930 nh        1 QL2     -0.726300
      9 N7         -0.4370    0.0750    3.5310 nc        1 QL2     -0.546100
     10 C8          0.6480    0.1910    4.3140 cd        1 QL2      0.420700
     11 N9          1.8700    0.1670    3.6020 na        1 QL2     -0.253000
     12 CAA         3.6420    1.8050    4.2340 c3        1 QL2     -0.121100
     13 CAI        -4.4050   -0.3160   -2.5600 ca        1 QL2     -0.221000
     14 CAJ        -2.3760   -1.0590   -1.4020 ca        1 QL2     -0.201500
     15 CAK        -3.9140    0.4770   -0.2990 ca        1 QL2     -0.201500
     16 CAL         3.1880    0.3560    4.1400 c3        1 QL2      0.043300
     17 CAS         2.3450   -0.1660   -1.2430 cg        1 QL2      0.150800
     18 CAT        -3.2170   -1.0620   -2.5290 ca        1 QL2      0.171900
     19 CAU        -4.7420    0.4470   -1.4310 ca        1 QL2      0.171900
     20 CAV        -2.7200   -0.2780   -0.2840 ca        1 QL2      0.194600
     21 HN6        -2.4290   -0.0290    1.7320 hn        1 QL2      0.464800
     22 H8          0.6310    0.2780    5.4080 h5        1 QL2      0.079800
     23 HAA         3.6710    2.2830    3.2250 hc        1 QL2      0.053033
     24 HAAA        4.6720    1.8230    4.6660 hc        1 QL2      0.053033
     25 HAAB        2.9670    2.4020    4.8920 hc        1 QL2      0.053033
     26 HAI        -5.0560   -0.3280   -3.4460 ha        1 QL2      0.168000
     27 HAJ        -1.4630   -1.6730   -1.4250 ha        1 QL2      0.166000
     28 HAK        -4.2130    1.0930    0.5620 ha        1 QL2      0.166000
     29 HAL         3.1990   -0.1040    5.1700 h1        1 QL2      0.071700
     30 HALA        3.9110   -0.2140    3.4870 h1        1 QL2      0.071700
     31 FAE        -2.8770   -1.8110   -3.6040 f         1 QL2     -0.131400
     32 FAF        -5.8860    1.1720   -1.4350 f         1 QL2     -0.131400
@<TRIPOS>BOND
     1    1    2 ar  
     2    1    7 ar  
     3    2    4 ar  
     4    2   17 1   
     5    3   17 3   
     6    4    5 ar  
     7    5    6 ar  
     8    5   11 1   
     9    6    7 ar  
    10    6    9 1   
    11    7    8 1   
    12    8   20 1   
    13    8   21 1   
    14    9   10 2   
    15   10   11 1   
    16   10   22 1   
    17   11   16 1   
    18   12   16 1   
    19   12   23 1   
    20   12   24 1   
    21   12   25 1   
    22   13   18 ar  
    23   13   19 ar  
    24   13   26 1   
    25   14   18 ar  
    26   14   20 ar  
    27   14   27 1   
    28   15   19 ar  
    29   15   20 ar  
    30   15   28 1   
    31   16   29 1   
    32   16   30 1   
    33   18   31 1   
    34   19   32 1   
@<TRIPOS>SUBSTRUCTURE
     1 QL2         1 TEMP              0 ****  ****    0 ROOT
