@<TRIPOS>MOLECULE
QLE
   66    66     1     0     0
SMALL
bcc


@<TRIPOS>ATOM
      1 O5          0.2000   -1.2030   -0.0920 o         1 QLE     -0.514100
      2 C22         1.2120   -0.4950   -0.0930 c         1 QLE      0.562300
      3 C20         2.2080   -0.5190    1.0530 c3        1 QLE     -0.157700
      4 C21         1.5750   -1.1230    2.2910 c3        1 QLE     -0.091100
      5 C19         2.7920    0.8530    1.3810 c3        1 QLE     -0.064400
      6 C17         4.0650    1.1570    0.5930 c3        1 QLE     -0.072700
      7 C18         5.2400    0.4380    1.2340 c3        1 QLE     -0.103100
      8 C11         4.3980    2.6550    0.4960 c3        1 QLE      0.163100
      9 O3          3.1750    3.3990    0.7320 os        1 QLE     -0.432900
     10 C12         3.2780    4.6990    1.1170 c         1 QLE      0.619100
     11 O4          4.3850    5.2220    1.2580 o         1 QLE     -0.529000
     12 C13         1.9380    5.3560    1.2760 c3        1 QLE     -0.168400
     13 C14         1.9160    6.7230    0.6050 c3        1 QLE      0.110800
     14 N           2.1980    6.6650   -0.8710 n4        1 QLE     -0.685400
     15 C16         1.1520    7.3740   -1.6510 c3        1 QLE      0.086600
     16 C15         3.5460    7.2120   -1.1900 c3        1 QLE      0.086600
     17 C9          4.9700    3.1250   -0.8550 c3        1 QLE     -0.137700
     18 C10         6.0440    2.2170   -1.4070 c3        1 QLE     -0.094100
     19 C8          3.8840    3.3710   -1.8810 c         1 QLE      0.676100
     20 O2          3.5080    4.4950   -2.2550 o         1 QLE     -0.654000
     21 O1          3.3040    2.2650   -2.3810 os        1 QLE     -0.408900
     22 C5          2.2840    2.3420   -3.4090 c3        1 QLE      0.168100
     23 C6          1.1450    3.3100   -3.1260 c3        1 QLE     -0.105400
     24 C7          0.5880    3.3170   -1.7290 c3        1 QLE     -0.103100
     25 C3          1.8860    0.8750   -3.6600 c3        1 QLE     -0.042500
     26 C4          0.9100    0.7970   -4.8200 c3        1 QLE     -0.096100
     27 C2          1.3850    0.0810   -2.5050 c2        1 QLE     -0.089200
     28 C1          1.5570    0.3900   -1.2170 ce        1 QLE     -0.271200
     29 H20         3.0380   -1.2040    0.7100 hc        1 QLE      0.077700
     30 H1          2.0070    1.3510   -0.9170 ha        1 QLE      0.143000
     31 H211        1.0850   -2.0950    2.0370 hc        1 QLE      0.050367
     32 H212        2.3510   -1.3020    3.0730 hc        1 QLE      0.050367
     33 H213        0.7970   -0.4390    2.7060 hc        1 QLE      0.050367
     34 H191        3.0330    0.8950    2.4770 hc        1 QLE      0.054200
     35 H192        2.0070    1.6310    1.1940 hc        1 QLE      0.054200
     36 H17         3.9340    0.7710   -0.4590 hc        1 QLE      0.080700
     37 H181        5.4240    0.8170    2.2680 hc        1 QLE      0.049367
     38 H182        6.1700    0.5790    0.6320 hc        1 QLE      0.049367
     39 H183        5.0270   -0.6570    1.2960 hc        1 QLE      0.049367
     40 H11         5.1410    2.9350    1.2990 h1        1 QLE      0.092700
     41 H9          5.4310    4.1430   -0.6630 hc        1 QLE      0.093700
     42 H131        1.7480    5.5040    2.3760 hc        1 QLE      0.120700
     43 H132        1.1280    4.6860    0.8760 hc        1 QLE      0.120700
     44 H141        0.9000    7.1860    0.7640 hx        1 QLE      0.115700
     45 H142        2.6900    7.3890    1.0890 hx        1 QLE      0.115700
     46 H161        0.1560    6.8890   -1.4660 hx        1 QLE      0.105533
     47 H162        1.1130    8.4520   -1.3430 hx        1 QLE      0.105533
     48 H163        1.4040    7.3050   -2.7440 hx        1 QLE      0.105533
     49 H151        3.5600    8.3170   -1.0050 hx        1 QLE      0.105533
     50 H152        3.7760    6.9890   -2.2680 hx        1 QLE      0.105533
     51 H153        4.3110    6.6980   -0.5430 hx        1 QLE      0.105533
     52 H101        6.8740    2.1180   -0.6660 hc        1 QLE      0.063033
     53 H102        6.4620    2.6520   -2.3480 hc        1 QLE      0.063033
     54 H103        5.6380    1.2020   -1.6410 hc        1 QLE      0.063033
     55 H5          2.8110    2.7150   -4.3380 h1        1 QLE      0.063700
     56 H61C        1.5120    4.3450   -3.3710 hc        1 QLE      0.058200
     57 H62C        0.3190    3.0750   -3.8510 hc        1 QLE      0.058200
     58 HA          2.8460    0.3580   -3.9770 hc        1 QLE      0.079700
     59 H71C        0.0400    2.3670   -1.5100 hc        1 QLE      0.038367
     60 H72C        1.4090    3.4350   -0.9760 hc        1 QLE      0.038367
     61 H73C       -0.1290    4.1670   -1.6110 hc        1 QLE      0.038367
     62 H41C        0.8700   -0.2520   -5.2050 hc        1 QLE      0.051033
     63 H42C       -0.1200    1.0870   -4.5000 hc        1 QLE      0.051033
     64 H43C        1.2320    1.4660   -5.6530 hc        1 QLE      0.051033
     65 H2          0.8950   -0.8690   -2.7920 ha        1 QLE      0.150000
     66 HN1         2.1920    5.6680   -1.1700 hn        1 QLE      0.479800
@<TRIPOS>BOND
     1    1    2 2   
     2    2    3 1   
     3    2   28 1   
     4    3    4 1   
     5    3    5 1   
     6    3   29 1   
     7    4   31 1   
     8    4   32 1   
     9    4   33 1   
    10    5    6 1   
    11    5   34 1   
    12    5   35 1   
    13    6    7 1   
    14    6    8 1   
    15    6   36 1   
    16    7   37 1   
    17    7   38 1   
    18    7   39 1   
    19    8    9 1   
    20    8   17 1   
    21    8   40 1   
    22    9   10 1   
    23   10   11 2   
    24   10   12 1   
    25   12   13 1   
    26   12   42 1   
    27   12   43 1   
    28   13   14 1   
    29   13   44 1   
    30   13   45 1   
    31   14   15 1   
    32   14   16 1   
    33   14   66 1   
    34   15   46 1   
    35   15   47 1   
    36   15   48 1   
    37   16   49 1   
    38   16   50 1   
    39   16   51 1   
    40   17   18 1   
    41   17   19 1   
    42   17   41 1   
    43   18   52 1   
    44   18   53 1   
    45   18   54 1   
    46   19   20 2   
    47   19   21 1   
    48   21   22 1   
    49   22   23 1   
    50   22   25 1   
    51   22   55 1   
    52   23   24 1   
    53   23   56 1   
    54   23   57 1   
    55   24   59 1   
    56   24   60 1   
    57   24   61 1   
    58   25   26 1   
    59   25   27 1   
    60   25   58 1   
    61   26   62 1   
    62   26   63 1   
    63   26   64 1   
    64   27   28 2   
    65   27   65 1   
    66   28   30 1   
@<TRIPOS>SUBSTRUCTURE
     1 QLE         1 TEMP              0 ****  ****    0 ROOT
