@<TRIPOS>MOLECULE
QLE
   65    64     1     0     0
SMALL
bcc


@<TRIPOS>ATOM
      1 O5         -0.4610   -3.1160   -1.7000 o         1 QLE     -0.287000
      2 C22         0.7190   -3.0160   -1.4420 c1        1 QLE      0.270000
      3 C20         1.1830   -3.0220    0.0170 c2        1 QLE     -0.150000
      4 C21         0.5680   -4.1870    0.7310 c3        1 QLE     -0.206000
      5 C19         0.7540   -1.7210    0.6950 c3        1 QLE     -0.145000
      6 C17         1.9250   -0.7220    0.6810 c3        1 QLE     -0.113000
      7 C18         2.7900   -0.9480    1.8800 c3        1 QLE     -0.215000
      8 C11         1.3850    0.6930    0.7090 c3        1 QLE      0.049000
      9 O3          0.0840    0.6890    1.2440 os        1 QLE     -0.278000
     10 C12        -0.1170    1.6570    2.3100 c2        1 QLE      0.313000
     11 O4          0.7860    2.3860    2.6400 o         1 QLE     -0.362000
     12 C13        -1.5010    1.7830    2.9900 c3        1 QLE     -0.160000
     13 C14        -1.4100    2.7990    4.1720 c3        1 QLE     -0.064000
     14 N          -2.7540    3.1200    4.6450 n3        1 QLE     -0.267000
     15 C16        -2.9300    2.6050    5.9820 c3        1 QLE     -0.119000
     16 C15        -2.9300    4.5480    4.6570 c3        1 QLE     -0.119000
     17 C9          1.3520    1.2540   -0.7080 c3        1 QLE     -0.124000
     18 C10         2.5990    0.8320   -1.4430 c3        1 QLE     -0.207000
     19 C8          0.1280    0.7270   -1.4420 c2        1 QLE      0.319000
     20 O2         -0.6820    1.5060   -1.9120 o         1 QLE     -0.350000
     21 O1          0.4790   -0.4700   -2.1650 os        1 QLE     -0.280000
     22 C5          0.1580   -0.3060   -3.5400 c3        1 QLE      0.056000
     23 C6         -1.2150    0.3140   -3.6690 c3        1 QLE     -0.185000
     24 C7         -1.4370    0.7610   -5.1050 c3        1 QLE     -0.212000
     25 C3          0.1660   -1.6500   -4.2230 c3        1 QLE     -0.100000
     26 C4         -0.9480   -2.5060   -3.6660 c3        1 QLE     -0.227000
     27 C2          1.5010   -2.3340   -3.9820 c2        1 QLE     -0.094000
     28 C1          1.7750   -3.0870   -2.5930 c2        1 QLE     -0.231000
     29 H20         2.1580   -3.0990    0.0480 ha        1 QLE      0.100000
     30 H1          2.6260   -3.5230   -2.4410 ha        1 QLE      0.137000
     31 H211       -0.3750   -4.0080    0.8930 hc        1 QLE      0.082667
     32 H212        0.6570   -4.9890    0.1810 hc        1 QLE      0.082667
     33 H213        1.0280   -4.3260    1.5920 hc        1 QLE      0.082667
     34 H191       -0.0090   -1.3360    0.2110 hc        1 QLE      0.102000
     35 H192        0.4930   -1.9070    1.6250 hc        1 QLE      0.102000
     36 H17         2.4520   -0.8510   -0.1260 hc        1 QLE      0.119000
     37 H181        2.2370   -0.9280    2.6910 hc        1 QLE      0.078000
     38 H182        3.4760   -0.2370    1.9310 hc        1 QLE      0.078000
     39 H183        3.2290   -1.8210    1.8060 hc        1 QLE      0.078000
     40 H11         1.9600    1.2480    1.2630 h1        1 QLE      0.119000
     41 H9          1.3130    2.2270   -0.6710 hc        1 QLE      0.138000
     42 H131       -2.1540    2.0980    2.3410 hc        1 QLE      0.132000
     43 H132       -1.7770    0.9060    3.3330 hc        1 QLE      0.132000
     44 H141       -0.9670    3.6190    3.8640 h1        1 QLE      0.085500
     45 H142       -0.8950    2.4050    4.8990 h1        1 QLE      0.085500
     46 H161       -2.7250    1.6400    5.9930 h1        1 QLE      0.072333
     47 H162       -3.8620    2.7460    6.2680 h1        1 QLE      0.072333
     48 H163       -2.3210    3.0790    6.6010 h1        1 QLE      0.072333
     49 H151       -3.8180    4.7670    5.0340 h1        1 QLE      0.072333
     50 H152       -2.8700    4.8910    3.7430 h1        1 QLE      0.072333
     51 H153       -2.2280    4.9610    5.2090 h1        1 QLE      0.072333
     52 H101        2.6060    1.2410   -2.3460 hc        1 QLE      0.089000
     53 H102        2.6140   -0.1420   -1.5270 hc        1 QLE      0.089000
     54 H103        3.3900    1.1290   -0.9430 hc        1 QLE      0.089000
     55 H5          0.8180    0.2760   -3.9600 h1        1 QLE      0.107000
     56 H61C       -1.8860   -0.3370   -3.4280 hc        1 QLE      0.106500
     57 H62C       -1.2820    1.0890   -3.0720 hc        1 QLE      0.106500
     58 HA          0.0320   -1.5270   -5.1920 hc        1 QLE      0.109000
     59 H71C       -1.9780    0.0870   -5.5780 hc        1 QLE      0.075000
     60 H72C       -1.9090    1.6240   -5.1110 hc        1 QLE      0.075000
     61 H73C       -0.5710    0.8590   -5.5550 hc        1 QLE      0.075000
     62 H41C       -0.6120   -3.4090   -3.4960 hc        1 QLE      0.094333
     63 H42C       -1.6940   -2.5480   -4.3230 hc        1 QLE      0.094333
     64 H43C       -1.2730   -2.1150   -2.8270 hc        1 QLE      0.094333
     65 H2          2.1540   -2.3780   -4.6920 ha        1 QLE      0.114000
@<TRIPOS>BOND
     1    1    2 1   
     2    2   28 1   
     3    3    4 1   
     4    3    5 1   
     5    3   29 1   
     6    4   31 1   
     7    4   32 1   
     8    4   33 1   
     9    5    6 1   
    10    5   34 1   
    11    5   35 1   
    12    6    7 1   
    13    6    8 1   
    14    6   36 1   
    15    7   37 1   
    16    7   38 1   
    17    7   39 1   
    18    8    9 1   
    19    8   17 1   
    20    8   40 1   
    21    9   10 1   
    22   10   11 1   
    23   10   12 1   
    24   12   13 1   
    25   12   42 1   
    26   12   43 1   
    27   13   14 1   
    28   13   44 1   
    29   13   45 1   
    30   14   15 1   
    31   14   16 1   
    32   15   46 1   
    33   15   47 1   
    34   15   48 1   
    35   16   49 1   
    36   16   50 1   
    37   16   51 1   
    38   17   18 1   
    39   17   19 1   
    40   17   41 1   
    41   18   52 1   
    42   18   53 1   
    43   18   54 1   
    44   19   20 1   
    45   19   21 1   
    46   21   22 1   
    47   22   23 1   
    48   22   25 1   
    49   22   55 1   
    50   23   24 1   
    51   23   56 1   
    52   23   57 1   
    53   24   59 1   
    54   24   60 1   
    55   24   61 1   
    56   25   26 1   
    57   25   27 1   
    58   25   58 1   
    59   26   62 1   
    60   26   63 1   
    61   26   64 1   
    62   27   28 1   
    63   27   65 1   
    64   28   30 1   
@<TRIPOS>SUBSTRUCTURE
     1 QLE         1 TEMP              0 ****  ****    0 ROOT
