@<TRIPOS>MOLECULE
QLE
   65    65     1     0     0
SMALL
bcc


@<TRIPOS>ATOM
      1 O5         -3.1490    1.2670   -3.2310 o         1 QLE     -0.532100
      2 C22        -2.9560    1.2940   -2.0100 c         1 QLE      0.568300
      3 C20        -2.3890    2.5090   -1.2980 c3        1 QLE     -0.158700
      4 C21        -2.1700    3.6480   -2.2720 c3        1 QLE     -0.085100
      5 C19        -1.0870    2.1550   -0.5810 c3        1 QLE     -0.059400
      6 C17        -1.2640    1.8560    0.9020 c3        1 QLE     -0.066700
      7 C18        -1.7010    3.1010    1.6540 c3        1 QLE     -0.100100
      8 C11         0.0210    1.3160    1.5570 c3        1 QLE      0.163100
      9 O3          0.9100    0.8700    0.5170 os        1 QLE     -0.440900
     10 C12         2.2590    0.9240    0.7560 c         1 QLE      0.634100
     11 O4          2.6500    1.3430    1.8470 o         1 QLE     -0.546000
     12 C13         3.0550    0.4490   -0.4190 c3        1 QLE     -0.131400
     13 C14         4.4200   -0.0590    0.0510 c3        1 QLE      0.172800
     14 N           5.2470   -0.5150   -1.0570 n3        1 QLE     -0.745600
     15 C16         5.9200    0.5630   -1.7460 c3        1 QLE      0.159100
     16 C15         6.1380   -1.5930   -0.6910 c3        1 QLE      0.159100
     17 C9         -0.1830    0.1590    2.5460 c3        1 QLE     -0.132700
     18 C10        -1.2020    0.4890    3.6160 c3        1 QLE     -0.091100
     19 C8         -0.5120   -1.1820    1.9380 c         1 QLE      0.643100
     20 O2         -0.0460   -2.2640    2.3080 o         1 QLE     -0.551000
     21 O1         -1.4260   -1.1770    0.9270 os        1 QLE     -0.429900
     22 C5         -1.7170   -2.4400    0.2820 c3        1 QLE      0.161100
     23 C6         -0.5410   -2.9110   -0.5650 c3        1 QLE     -0.104400
     24 C7          0.0820   -1.8610   -1.4450 c3        1 QLE     -0.101100
     25 C3         -3.0490   -2.2210   -0.4590 c3        1 QLE     -0.041500
     26 C4         -3.5080   -3.5070   -1.1150 c3        1 QLE     -0.091100
     27 C2         -2.9600   -1.1110   -1.4460 c2        1 QLE     -0.083200
     28 C1         -3.2370    0.1570   -1.1200 ce        1 QLE     -0.252200
     29 H20        -3.1670    2.8270   -0.5480 hc        1 QLE      0.065700
     30 H1         -3.6230    0.4210   -0.1220 ha        1 QLE      0.138000
     31 H211       -3.1150    3.8660   -2.8260 hc        1 QLE      0.043033
     32 H212       -1.8480    4.5660   -1.7260 hc        1 QLE      0.043033
     33 H213       -1.3860    3.3750   -3.0190 hc        1 QLE      0.043033
     34 H191       -0.6290    1.2580   -1.0800 hc        1 QLE      0.057700
     35 H192       -0.3600    3.0030   -0.6910 hc        1 QLE      0.057700
     36 H17        -2.0550    1.0610    1.0070 hc        1 QLE      0.075700
     37 H181       -2.7150    3.4280    1.3210 hc        1 QLE      0.039367
     38 H182       -1.7470    2.9030    2.7530 hc        1 QLE      0.039367
     39 H183       -0.9850    3.9390    1.4760 hc        1 QLE      0.039367
     40 H11         0.5250    2.1510    2.1270 h1        1 QLE      0.076700
     41 H9          0.8240    0.0080    3.0470 hc        1 QLE      0.100700
     42 H131        2.4890   -0.3610   -0.9540 hc        1 QLE      0.088700
     43 H132        3.1650    1.3130   -1.1280 hc        1 QLE      0.088700
     44 H141        4.9200    0.7640    0.6410 h1        1 QLE      0.050200
     45 H142        4.2440   -0.9170    0.7600 h1        1 QLE      0.050200
     46 H161        6.6920    1.0810   -1.1120 h1        1 QLE      0.033200
     47 H162        6.4250    0.1490   -2.6570 h1        1 QLE      0.033200
     48 H163        5.1600    1.3220   -2.0690 h1        1 QLE      0.033200
     49 H151        5.5320   -2.4510   -0.2970 h1        1 QLE      0.033200
     50 H152        6.6870   -1.9330   -1.6080 h1        1 QLE      0.033200
     51 H153        6.8930   -1.3000    0.0890 h1        1 QLE      0.033200
     52 H101       -2.2150    0.6430    3.1730 hc        1 QLE      0.050700
     53 H102       -1.2600   -0.3470    4.3560 hc        1 QLE      0.050700
     54 H103       -0.8960    1.4190    4.1550 hc        1 QLE      0.050700
     55 H5         -1.8930   -3.2090    1.0910 h1        1 QLE      0.063700
     56 H61C        0.2420   -3.2950    0.1460 hc        1 QLE      0.058200
     57 H62C       -0.8850   -3.7790   -1.1870 hc        1 QLE      0.058200
     58 HA         -3.8040   -1.9410    0.3340 hc        1 QLE      0.062700
     59 H71C        1.0760   -2.2160   -1.8140 hc        1 QLE      0.041700
     60 H72C       -0.5580   -1.6410   -2.3320 hc        1 QLE      0.041700
     61 H73C        0.2330   -0.9090   -0.8760 hc        1 QLE      0.041700
     62 H41C       -3.4630   -4.3530   -0.3890 hc        1 QLE      0.043033
     63 H42C       -4.5620   -3.3940   -1.4670 hc        1 QLE      0.043033
     64 H43C       -2.8720   -3.7590   -1.9980 hc        1 QLE      0.043033
     65 H2         -2.6180   -1.3800   -2.4600 ha        1 QLE      0.140000
@<TRIPOS>BOND
     1    1    2 2   
     2    2    3 1   
     3    2   28 1   
     4    3    4 1   
     5    3    5 1   
     6    3   29 1   
     7    4   31 1   
     8    4   32 1   
     9    4   33 1   
    10    5    6 1   
    11    5   34 1   
    12    5   35 1   
    13    6    7 1   
    14    6    8 1   
    15    6   36 1   
    16    7   37 1   
    17    7   38 1   
    18    7   39 1   
    19    8    9 1   
    20    8   17 1   
    21    8   40 1   
    22    9   10 1   
    23   10   11 2   
    24   10   12 1   
    25   12   13 1   
    26   12   42 1   
    27   12   43 1   
    28   13   14 1   
    29   13   44 1   
    30   13   45 1   
    31   14   15 1   
    32   14   16 1   
    33   15   46 1   
    34   15   47 1   
    35   15   48 1   
    36   16   49 1   
    37   16   50 1   
    38   16   51 1   
    39   17   18 1   
    40   17   19 1   
    41   17   41 1   
    42   18   52 1   
    43   18   53 1   
    44   18   54 1   
    45   19   20 2   
    46   19   21 1   
    47   21   22 1   
    48   22   23 1   
    49   22   25 1   
    50   22   55 1   
    51   23   24 1   
    52   23   56 1   
    53   23   57 1   
    54   24   59 1   
    55   24   60 1   
    56   24   61 1   
    57   25   26 1   
    58   25   27 1   
    59   25   58 1   
    60   26   62 1   
    61   26   63 1   
    62   26   64 1   
    63   27   28 2   
    64   27   65 1   
    65   28   30 1   
@<TRIPOS>SUBSTRUCTURE
     1 QLE         1 TEMP              0 ****  ****    0 ROOT
