@<TRIPOS>MOLECULE
QLE
   66    66     1     0     0
SMALL
bcc


@<TRIPOS>ATOM
      1 O5          0.2550   -1.3500   -0.0580 o         1 QLE     -0.517100
      2 C22         1.2130   -0.5700   -0.0260 c         1 QLE      0.562300
      3 C20         2.1350   -0.4940    1.1780 c3        1 QLE     -0.157700
      4 C21         1.4190   -0.9980    2.4180 c3        1 QLE     -0.091100
      5 C19         2.7060    0.8960    1.4410 c3        1 QLE     -0.064400
      6 C17         4.0060    1.1540    0.6840 c3        1 QLE     -0.071700
      7 C18         5.1590    0.4570    1.3870 c3        1 QLE     -0.103100
      8 C11         4.3610    2.6430    0.5270 c3        1 QLE      0.164100
      9 O3          3.1570    3.4160    0.7730 os        1 QLE     -0.418900
     10 C12         3.2960    4.7510    0.9700 c         1 QLE      0.623100
     11 O4          4.4170    5.2670    1.0140 o         1 QLE     -0.551000
     12 C13         1.9890    5.4870    1.0320 c3        1 QLE     -0.164400
     13 C14         2.1670    6.9030    0.4940 c3        1 QLE      0.114800
     14 N           2.7140    6.9470   -0.9040 nx        1 QLE     -0.682400
     15 C16         1.6540    6.6870   -1.9110 c3        1 QLE      0.088100
     16 C15         3.3780    8.2500   -1.1620 c3        1 QLE      0.088100
     17 C9          4.9100    3.0500   -0.8550 c3        1 QLE     -0.142700
     18 C10         5.9390    2.0890   -1.4030 c3        1 QLE     -0.094100
     19 C8          3.7970    3.3020   -1.8520 c         1 QLE      0.678100
     20 O2          3.3770    4.4280   -2.1720 o         1 QLE     -0.655000
     21 O1          3.2540    2.1900   -2.3770 os        1 QLE     -0.408900
     22 C5          2.2240    2.2300   -3.3950 c3        1 QLE      0.169100
     23 C6          1.0600    3.1710   -3.1250 c3        1 QLE     -0.105400
     24 C7          0.4620    3.1350   -1.7460 c3        1 QLE     -0.102100
     25 C3          1.8610    0.7490   -3.6180 c3        1 QLE     -0.042500
     26 C4          0.8820    0.6270   -4.7730 c3        1 QLE     -0.096100
     27 C2          1.3820   -0.0370   -2.4470 c2        1 QLE     -0.085200
     28 C1          1.5570    0.2970   -1.1650 ce        1 QLE     -0.271200
     29 H20         2.9810   -1.2050    0.9460 hc        1 QLE      0.077700
     30 H1          1.9960    1.2690   -0.8870 ha        1 QLE      0.142000
     31 H211        2.1440   -1.1210    3.2580 hc        1 QLE      0.050033
     32 H212        0.9380   -1.9850    2.2090 hc        1 QLE      0.050033
     33 H213        0.6250   -0.2790    2.7300 hc        1 QLE      0.050033
     34 H191        2.9070    1.0070    2.5410 hc        1 QLE      0.055200
     35 H192        1.9290    1.6610    1.1780 hc        1 QLE      0.055200
     36 H17         3.9010    0.7200   -0.3530 hc        1 QLE      0.080700
     37 H181        4.9450   -0.6350    1.4810 hc        1 QLE      0.049033
     38 H182        6.1060    0.5790    0.8080 hc        1 QLE      0.049033
     39 H183        5.3100    0.8730    2.4120 hc        1 QLE      0.049033
     40 H11         5.1270    2.9400    1.3000 h1        1 QLE      0.090700
     41 H9          5.4120    4.0560   -0.7130 hc        1 QLE      0.094700
     42 H131        1.6610    5.5550    2.1060 hc        1 QLE      0.120700
     43 H132        1.1990    4.9190    0.4700 hc        1 QLE      0.120700
     44 H141        1.1780    7.4410    0.5050 hx        1 QLE      0.112700
     45 H142        2.8960    7.4520    1.1610 hx        1 QLE      0.112700
     46 H161        2.1310    6.6000   -2.9250 hx        1 QLE      0.103200
     47 H162        1.1550    5.7060   -1.6730 hx        1 QLE      0.103200
     48 H163        0.9050    7.5210   -1.9010 hx        1 QLE      0.103200
     49 H151        4.2500    8.3680   -0.4640 hx        1 QLE      0.103200
     50 H152        2.6470    9.0860   -1.0010 hx        1 QLE      0.103200
     51 H153        3.7440    8.2700   -2.2240 hx        1 QLE      0.103200
     52 H101        6.7720    1.9680   -0.6690 hc        1 QLE      0.062700
     53 H102        5.4920    1.0890   -1.6190 hc        1 QLE      0.062700
     54 H103        6.3640    2.4940   -2.3550 hc        1 QLE      0.062700
     55 H5          2.7360    2.6000   -4.3340 h1        1 QLE      0.060700
     56 H61C        0.2610    2.9350   -3.8800 hc        1 QLE      0.057700
     57 H62C        1.4140    4.2180   -3.3390 hc        1 QLE      0.057700
     58 HA          2.8320    0.2490   -3.9300 hc        1 QLE      0.078700
     59 H71C       -0.0430    2.1570   -1.5520 hc        1 QLE      0.041033
     60 H72C        1.2540    3.2890   -0.9690 hc        1 QLE      0.041033
     61 H73C       -0.3020    3.9450   -1.6410 hc        1 QLE      0.041033
     62 H41C       -0.1510    0.9070   -4.4550 hc        1 QLE      0.051033
     63 H42C        1.1900    1.2830   -5.6220 hc        1 QLE      0.051033
     64 H43C        0.8580   -0.4310   -5.1330 hc        1 QLE      0.051033
     65 H2          0.9030   -0.9980   -2.7140 ha        1 QLE      0.151000
     66 HN1         3.4290    6.1940   -1.0030 hn        1 QLE      0.487800
@<TRIPOS>BOND
     1    1    2 2   
     2    2    3 1   
     3    2   28 1   
     4    3    4 1   
     5    3    5 1   
     6    3   29 1   
     7    4   31 1   
     8    4   32 1   
     9    4   33 1   
    10    5    6 1   
    11    5   34 1   
    12    5   35 1   
    13    6    7 1   
    14    6    8 1   
    15    6   36 1   
    16    7   37 1   
    17    7   38 1   
    18    7   39 1   
    19    8    9 1   
    20    8   17 1   
    21    8   40 1   
    22    9   10 1   
    23   10   11 2   
    24   10   12 1   
    25   12   13 1   
    26   12   42 1   
    27   12   43 1   
    28   13   14 1   
    29   13   44 1   
    30   13   45 1   
    31   14   15 1   
    32   14   16 1   
    33   14   66 1   
    34   15   46 1   
    35   15   47 1   
    36   15   48 1   
    37   16   49 1   
    38   16   50 1   
    39   16   51 1   
    40   17   18 1   
    41   17   19 1   
    42   17   41 1   
    43   18   52 1   
    44   18   53 1   
    45   18   54 1   
    46   19   20 2   
    47   19   21 1   
    48   21   22 1   
    49   22   23 1   
    50   22   25 1   
    51   22   55 1   
    52   23   24 1   
    53   23   56 1   
    54   23   57 1   
    55   24   59 1   
    56   24   60 1   
    57   24   61 1   
    58   25   26 1   
    59   25   27 1   
    60   25   58 1   
    61   26   62 1   
    62   26   63 1   
    63   26   64 1   
    64   27   28 2   
    65   27   65 1   
    66   28   30 1   
@<TRIPOS>SUBSTRUCTURE
     1 QLE         1 TEMP              0 ****  ****    0 ROOT
