@<TRIPOS>MOLECULE
QLE
   66    66     1     0     0
SMALL
bcc


@<TRIPOS>ATOM
      1 O5          0.2800   -1.3800   -0.1490 o         1 QLE     -0.517100
      2 C22         1.2340   -0.5950   -0.1040 c         1 QLE      0.562300
      3 C20         2.1620   -0.5460    1.0960 c3        1 QLE     -0.157700
      4 C21         1.4570   -1.0840    2.3280 c3        1 QLE     -0.091100
      5 C19         2.7300    0.8400    1.3910 c3        1 QLE     -0.064400
      6 C17         4.0240    1.1220    0.6310 c3        1 QLE     -0.071700
      7 C18         5.1840    0.4120    1.3080 c3        1 QLE     -0.103100
      8 C11         4.3710    2.6160    0.5100 c3        1 QLE      0.164100
      9 O3          3.1660    3.3770    0.7850 os        1 QLE     -0.418900
     10 C12         3.3000    4.7070    1.0140 c         1 QLE      0.623100
     11 O4          4.4200    5.2270    1.0640 o         1 QLE     -0.551000
     12 C13         1.9910    5.4370    1.1050 c3        1 QLE     -0.164400
     13 C14         2.1590    6.8660    0.6020 c3        1 QLE      0.114800
     14 N           2.6960    6.9480   -0.7980 n4        1 QLE     -0.682400
     15 C16         1.6290    6.7100   -1.8040 c3        1 QLE      0.088100
     16 C15         3.3530    8.2610   -1.0270 c3        1 QLE      0.088100
     17 C9          4.9080    3.0610   -0.8650 c3        1 QLE     -0.142700
     18 C10         5.9370    2.1190   -1.4450 c3        1 QLE     -0.094100
     19 C8          3.7870    3.3340   -1.8470 c         1 QLE      0.678100
     20 O2          3.3610    4.4660   -2.1350 o         1 QLE     -0.655000
     21 O1          3.2450    2.2330   -2.3970 os        1 QLE     -0.408900
     22 C5          2.2070    2.2950   -3.4060 c3        1 QLE      0.169100
     23 C6          1.0420    3.2230   -3.1030 c3        1 QLE     -0.105400
     24 C7          0.4540    3.1500   -1.7210 c3        1 QLE     -0.102100
     25 C3          1.8490    0.8180   -3.6650 c3        1 QLE     -0.042500
     26 C4          0.8630    0.7220   -4.8150 c3        1 QLE     -0.096100
     27 C2          1.3830    0.0010   -2.5110 c2        1 QLE     -0.085200
     28 C1          1.5650    0.3020   -1.2220 ce        1 QLE     -0.271200
     29 H20         3.0100   -1.2470    0.8410 hc        1 QLE      0.077700
     30 H1          2.0020    1.2680   -0.9220 ha        1 QLE      0.142000
     31 H211        0.9780   -2.0670    2.0970 hc        1 QLE      0.050033
     32 H212        2.1880   -1.2250    3.1600 hc        1 QLE      0.050033
     33 H213        0.6620   -0.3770    2.6630 hc        1 QLE      0.050033
     34 H191        2.9380    0.9230    2.4910 hc        1 QLE      0.055200
     35 H192        1.9480    1.6080    1.1530 hc        1 QLE      0.055200
     36 H17         3.9130    0.7150   -0.4150 hc        1 QLE      0.080700
     37 H181        6.1270    0.5540    0.7260 hc        1 QLE      0.049033
     38 H182        4.9750   -0.6830    1.3750 hc        1 QLE      0.049033
     39 H183        5.3400    0.8020    2.3430 hc        1 QLE      0.049033
     40 H11         5.1420    2.8970    1.2850 h1        1 QLE      0.090700
     41 H9          5.4080    4.0650   -0.7000 hc        1 QLE      0.094700
     42 H131        1.2000    4.8790    0.5340 hc        1 QLE      0.120700
     43 H132        1.6710    5.4760    2.1830 hc        1 QLE      0.120700
     44 H141        2.8910    7.4010    1.2780 hx        1 QLE      0.112700
     45 H142        1.1680    7.3990    0.6340 hx        1 QLE      0.112700
     46 H161        2.1000    6.6510   -2.8230 hx        1 QLE      0.103200
     47 H162        1.1370    5.7210   -1.5870 hx        1 QLE      0.103200
     48 H163        0.8780    7.5400   -1.7680 hx        1 QLE      0.103200
     49 H151        2.6190    9.0880   -0.8400 hx        1 QLE      0.103200
     50 H152        4.2290    8.3650   -0.3330 hx        1 QLE      0.103200
     51 H153        3.7110    8.3090   -2.0910 hx        1 QLE      0.103200
     52 H101        6.3540    2.5500   -2.3890 hc        1 QLE      0.062700
     53 H102        5.4940    1.1220   -1.6830 hc        1 QLE      0.062700
     54 H103        6.7760    1.9820   -0.7200 hc        1 QLE      0.062700
     55 H5          2.7120    2.6910   -4.3390 h1        1 QLE      0.060700
     56 H61C        0.2380    3.0040   -3.8580 hc        1 QLE      0.057700
     57 H62C        1.3900    4.2770   -3.2930 hc        1 QLE      0.057700
     58 HA          2.8200    0.3310   -3.9970 hc        1 QLE      0.078700
     59 H71C       -0.0450    2.1640   -1.5490 hc        1 QLE      0.041367
     60 H72C       -0.3130    3.9530   -1.5910 hc        1 QLE      0.041367
     61 H73C        1.2510    3.2860   -0.9460 hc        1 QLE      0.041367
     62 H41C       -0.1690    0.9890   -4.4820 hc        1 QLE      0.051033
     63 H42C        0.8410   -0.3260   -5.2030 hc        1 QLE      0.051033
     64 H43C        1.1620    1.4010   -5.6490 hc        1 QLE      0.051033
     65 H2          0.9060   -0.9560   -2.8000 ha        1 QLE      0.151000
     66 HN1         3.4130    6.2020   -0.9210 hn        1 QLE      0.487800
@<TRIPOS>BOND
     1    1    2 2   
     2    2    3 1   
     3    2   28 1   
     4    3    4 1   
     5    3    5 1   
     6    3   29 1   
     7    4   31 1   
     8    4   32 1   
     9    4   33 1   
    10    5    6 1   
    11    5   34 1   
    12    5   35 1   
    13    6    7 1   
    14    6    8 1   
    15    6   36 1   
    16    7   37 1   
    17    7   38 1   
    18    7   39 1   
    19    8    9 1   
    20    8   17 1   
    21    8   40 1   
    22    9   10 1   
    23   10   11 2   
    24   10   12 1   
    25   12   13 1   
    26   12   42 1   
    27   12   43 1   
    28   13   14 1   
    29   13   44 1   
    30   13   45 1   
    31   14   15 1   
    32   14   16 1   
    33   14   66 1   
    34   15   46 1   
    35   15   47 1   
    36   15   48 1   
    37   16   49 1   
    38   16   50 1   
    39   16   51 1   
    40   17   18 1   
    41   17   19 1   
    42   17   41 1   
    43   18   52 1   
    44   18   53 1   
    45   18   54 1   
    46   19   20 2   
    47   19   21 1   
    48   21   22 1   
    49   22   23 1   
    50   22   25 1   
    51   22   55 1   
    52   23   24 1   
    53   23   56 1   
    54   23   57 1   
    55   24   59 1   
    56   24   60 1   
    57   24   61 1   
    58   25   26 1   
    59   25   27 1   
    60   25   58 1   
    61   26   62 1   
    62   26   63 1   
    63   26   64 1   
    64   27   28 2   
    65   27   65 1   
    66   28   30 1   
@<TRIPOS>SUBSTRUCTURE
     1 QLE         1 TEMP              0 ****  ****    0 ROOT
