@<TRIPOS>MOLECULE
QLG
   38    38     1     0     0
SMALL
bcc


@<TRIPOS>ATOM
      1 N           0.7560   -2.4240   -1.6120 n2        1 QLG     -0.766100
      2 CA1         0.7130   -2.1000   -0.3720 ce        1 QLG      0.442000
      3 CA2        -0.0400    1.4000    0.4260 cd        1 QLG      0.004400
      4 CA3         2.9220   -0.6280    1.2870 c3        1 QLG     -0.040000
      5 C           2.5610   -1.3680    2.5990 c         1 QLG      0.883600
      6 O           1.6060   -0.9570    3.3150 o         1 QLG     -0.830800
      7 CB1         0.6850   -3.1270    0.7290 c3        1 QLG     -0.135700
      8 CB2        -0.7930    2.5070    0.5080 c2        1 QLG     -0.080200
      9 CG1        -0.3960   -2.8340    1.7480 c3        1 QLG     -0.155400
     10 CG2        -2.2110    2.6220    0.0740 c3        1 QLG     -0.041500
     11 CD1        -2.3510    3.7250   -0.9590 c3        1 QLG     -0.086100
     12 CD2        -3.0930    2.9080    1.2770 c3        1 QLG     -0.086100
     13 CD3        -0.3740   -3.8730    2.8580 c         1 QLG      0.659100
     14 NE1         0.6560   -3.8410    3.7490 n         1 QLG     -0.652000
     15 OE1        -1.2820   -4.7360    2.9540 o         1 QLG     -0.689100
     16 C1          0.6820   -0.6670    0.0900 cc        1 QLG      0.354600
     17 C2          1.4130    1.3410    0.8820 c         1 QLG      0.676700
     18 N2         -0.3940    0.1040   -0.0670 nd        1 QLG     -0.614300
     19 O2          2.1170    2.2580    1.3130 o         1 QLG     -0.591500
     20 N3          1.8390    0.0070    0.5850 n         1 QLG     -0.366300
     21 OXT         3.2430   -2.3980    2.8720 o         1 QLG     -0.830800
     22 HD11       -3.4150    3.8100   -1.2850 hc        1 QLG      0.032700
     23 HD12       -1.7200    3.5020   -1.8520 hc        1 QLG      0.032700
     24 HD13       -2.0300    4.7070   -0.5340 hc        1 QLG      0.032700
     25 HG2        -2.5540    1.6540   -0.3920 hc        1 QLG      0.078700
     26 HD21       -2.7940    3.8660    1.7660 hc        1 QLG      0.032700
     27 HD22       -4.1590    2.9890    0.9570 hc        1 QLG      0.032700
     28 HD23       -3.0040    2.0840    2.0250 hc        1 QLG      0.032700
     29 HB2        -0.3430    3.4210    0.9350 ha        1 QLG      0.137000
     30 HN          0.7840   -1.6680   -2.2640 hn        1 QLG      0.388400
     31 HB11        0.5280   -4.1540    0.3010 hc        1 QLG      0.090700
     32 HB12        1.6980   -3.1150    1.2280 hc        1 QLG      0.090700
     33 HG11       -1.4070   -2.8610    1.2680 hc        1 QLG      0.086200
     34 HG12       -0.2340   -1.8140    2.1990 hc        1 QLG      0.086200
     35 HE11        1.3580   -3.1280    3.7090 hn        1 QLG      0.332500
     36 HE12        0.6770   -4.4920    4.4900 hn        1 QLG      0.332500
     37 HA31        3.6670    0.1760    1.5450 h1        1 QLG      0.062700
     38 HA32        3.4030   -1.3640    0.5840 h1        1 QLG      0.062700
@<TRIPOS>BOND
     1    1    2 2   
     2    1   30 1   
     3    2    7 1   
     4    2   16 1   
     5    3    8 2   
     6    3   17 1   
     7    3   18 1   
     8    4    5 1   
     9    4   20 1   
    10    4   37 1   
    11    4   38 1   
    12    5    6 1   
    13    5   21 1   
    14    7    9 1   
    15    7   31 1   
    16    7   32 1   
    17    8   10 1   
    18    8   29 1   
    19    9   13 1   
    20    9   33 1   
    21    9   34 1   
    22   10   11 1   
    23   10   12 1   
    24   10   25 1   
    25   11   22 1   
    26   11   23 1   
    27   11   24 1   
    28   12   26 1   
    29   12   27 1   
    30   12   28 1   
    31   13   14 1   
    32   13   15 2   
    33   14   35 1   
    34   14   36 1   
    35   16   18 2   
    36   16   20 1   
    37   17   19 2   
    38   17   20 1   
@<TRIPOS>SUBSTRUCTURE
     1 QLG         1 TEMP              0 ****  ****    0 ROOT
