@<TRIPOS>MOLECULE
QLI
   26    26     1     0     0
SMALL
bcc


@<TRIPOS>ATOM
      1 CAA        -0.5250    0.3810   -0.0580 c2        1 QLI     -0.315000
      2 NAB         2.5090   -1.5640   -2.8720 n3        1 QLI     -0.936800
      3 OAC         0.6770   -1.7440    1.7230 o         1 QLI     -0.816800
      4 OAD         3.2980   -0.0770   -6.6470 o         1 QLI     -0.554000
      5 OAE         1.5930   -2.4080   -0.2090 o         1 QLI     -0.816800
      6 OAF         4.0050   -1.5510   -5.2290 oh        1 QLI     -0.598100
      7 CAG         1.9320    2.5940   -3.6000 ce        1 QLI     -0.187000
      8 CAH         2.4410    1.7050   -4.6220 ce        1 QLI     -0.058000
      9 CAI         1.5300    2.1030   -2.4170 c2        1 QLI     -0.117200
     10 OAJ         1.7510    0.3580   -0.7900 os        1 QLI     -0.343900
     11 CAK         0.6730   -0.2130   -0.1140 ce        1 QLI      0.012900
     12 CAL         1.0200   -1.5570    0.5290 c         1 QLI      0.923800
     13 CAM         3.3300   -0.3930   -5.4470 c         1 QLI      0.650300
     14 CAN         2.7560    0.4160   -4.3540 cf        1 QLI     -0.204400
     15 CAO         2.6390   -0.1220   -2.9470 c3        1 QLI      0.200700
     16 CAP         1.5130    0.6300   -2.1740 c3        1 QLI      0.131300
     17 HAA        -0.7630    1.3050   -0.5950 ha        1 QLI      0.106000
     18 HAAA       -1.3250   -0.0500    0.5550 ha        1 QLI      0.106000
     19 HNAB        3.9010   -1.8420   -4.3010 ho        1 QLI      0.473000
     20 HNAA        1.6020   -1.8530   -3.1850 hn        1 QLI      0.393300
     21 HAG         1.9000    3.6670   -3.8340 ha        1 QLI      0.125000
     22 HAH         2.5800    2.1150   -5.6370 ha        1 QLI      0.144000
     23 HAI         1.1610    2.7330   -1.5940 ha        1 QLI      0.142000
     24 HAO         3.6150    0.1380   -2.4240 h1        1 QLI      0.079700
     25 HAP         0.5020    0.2420   -2.4930 h1        1 QLI      0.066700
     26 HAB3        2.6180   -1.8640   -1.9110 hn        1 QLI      0.393300
@<TRIPOS>BOND
     1    1   11 2   
     2    1   17 1   
     3    1   18 1   
     4    2   15 1   
     5    2   20 1   
     6    2   26 1   
     7    3   12 1   
     8    4   13 2   
     9    5   12 1   
    10    6   13 1   
    11    6   19 1   
    12    7    8 1   
    13    7    9 2   
    14    7   21 1   
    15    8   14 2   
    16    8   22 1   
    17    9   16 1   
    18    9   23 1   
    19   10   11 1   
    20   10   16 1   
    21   11   12 1   
    22   13   14 1   
    23   14   15 1   
    24   15   16 1   
    25   15   24 1   
    26   16   25 1   
@<TRIPOS>SUBSTRUCTURE
     1 QLI         1 TEMP              0 ****  ****    0 ROOT
