@<TRIPOS>MOLECULE
QLI
   25    22     1     0     0
SMALL
bcc


@<TRIPOS>ATOM
      1 CAA        -2.7630    0.8360    1.8840 c1        1 QLI     -0.376000
      2 NAB         1.8250   -1.7650   -0.3320 n3        1 QLI     -0.341000
      3 OAC        -0.7010   -0.1740    3.9450 o         1 QLI     -0.566000
      4 OAD         1.8900    2.5790   -1.6190 o         1 QLI     -0.590500
      5 OAE         0.0130    1.8450    3.5330 o         1 QLI     -0.566000
      6 OAF         3.4560    1.1870   -2.2250 o         1 QLI     -0.590500
      7 CAG        -1.0380   -0.8270   -2.1880 c1        1 QLI     -0.166000
      8 CAH         0.2190   -0.0300   -2.6540 c1        1 QLI     -0.161000
      9 CAI        -1.1970   -1.1250   -0.6950 c1        1 QLI     -0.166000
     10 OAJ        -0.7130    0.8360    0.6670 os        1 QLI     -0.241000
     11 CAK        -1.4160    0.8360    1.8840 c2        1 QLI      0.036000
     12 CAL        -0.6590    0.8360    3.1940 c2        1 QLI      0.348000
     13 CAM         2.2770    1.4010   -1.8370 c2        1 QLI      0.353000
     14 CAN         1.3270    0.2420   -1.6320 c2        1 QLI     -0.116000
     15 CAO         1.2270   -0.4180   -0.2880 c3        1 QLI      0.017000
     16 CAP        -0.2270   -0.4880    0.2610 c2        1 QLI      0.054000
     17 HAA        -3.2510    0.8360    1.0390 DU        1 QLI      0.083000
     18 HAAA       -3.2510    0.8360    2.7290 ha        1 QLI      0.100000
     19 HNAB        2.0400   -2.0300    0.5140 hn        1 QLI      0.147000
     20 HNAA        2.5790   -1.7470   -0.8450 hn        1 QLI      0.147000
     21 HAG        -1.5830   -1.3060   -2.8410 ha        1 QLI      0.127500
     22 HAH         0.3930    0.0940   -3.6060 ha        1 QLI      0.127000
     23 HAI        -2.0260   -1.5180   -0.3610 ha        1 QLI      0.127500
     24 HAO         1.8140    0.0240    0.3540 h1        1 QLI      0.076000
     25 HAP        -0.2340   -0.9560    1.1180 h4        1 QLI      0.136000
@<TRIPOS>BOND
     1    1   11 1   
     2    1   18 1   
     3    2   15 1   
     4    2   19 1   
     5    2   20 1   
     6    3   12 1   
     7    4   13 1   
     8    5   12 1   
     9    6   13 1   
    10    7    9 1   
    11    7   21 1   
    12    8   14 1   
    13    8   22 1   
    14    9   23 1   
    15   10   11 1   
    16   10   16 1   
    17   11   12 1   
    18   13   14 1   
    19   14   15 1   
    20   15   16 1   
    21   15   24 1   
    22   16   25 1   
@<TRIPOS>SUBSTRUCTURE
     1 QLI         1 TEMP              0 ****  ****    0 ROOT
