@<TRIPOS>MOLECULE
QLI
   26    26     1     0     0
SMALL
bcc


@<TRIPOS>ATOM
      1 CAA         0.4300    0.6940    1.0120 c2        1 QLI     -0.245000
      2 NAB         2.8010   -1.5150   -2.8380 nz        1 QLI     -0.844600
      3 OAC        -0.7340   -1.8390    0.3510 o         1 QLI     -0.834300
      4 OAD         3.9040    0.0450   -6.5390 o         1 QLI     -0.818800
      5 OAE         0.8410   -2.1570   -1.1890 o         1 QLI     -0.834300
      6 OAF         4.5140   -1.2820   -4.8580 o         1 QLI     -0.818800
      7 CAG         1.3720    2.2950   -3.9720 ce        1 QLI     -0.142000
      8 CAH         2.2240    1.5190   -4.8480 ce        1 QLI     -0.101000
      9 CAI         1.0360    1.8410   -2.7550 c2        1 QLI     -0.173200
     10 OAJ         1.7530    0.4880   -0.9020 os        1 QLI     -0.370900
     11 CAK         0.7700   -0.0370   -0.0580 ce        1 QLI     -0.025100
     12 CAL         0.2520   -1.4400   -0.3160 c         1 QLI      0.909800
     13 CAM         3.8210   -0.3280   -5.3420 c         1 QLI      0.908800
     14 CAN         2.8540    0.4060   -4.4270 cf        1 QLI     -0.217400
     15 CAO         2.7200   -0.0340   -2.9970 c3        1 QLI      0.178700
     16 CAP         1.4280    0.4750   -2.2990 c3        1 QLI      0.159300
     17 HAA         0.8280    1.6970    1.2010 ha        1 QLI      0.118000
     18 HAAA       -0.2630    0.2790    1.7550 ha        1 QLI      0.118000
     19 HNAB        2.6850   -1.7490   -1.8360 hn        1 QLI      0.470133
     20 HNAA        3.6980   -1.8450   -3.2480 hn        1 QLI      0.470133
     21 HAG         1.0270    3.2730   -4.3390 ha        1 QLI      0.122000
     22 HAH         2.3740    1.8690   -5.8840 ha        1 QLI      0.161000
     23 HAI         0.4180    2.4130   -2.0480 ha        1 QLI      0.138000
     24 HAO         3.6110    0.3900   -2.4330 hx        1 QLI      0.099700
     25 HAP         0.5610   -0.2240   -2.4990 h1        1 QLI      0.101700
     26 HAB3        2.0210   -1.9550   -3.3310 hn        1 QLI      0.470133
@<TRIPOS>BOND
     1    1   11 2   
     2    1   17 1   
     3    1   18 1   
     4    2   15 1   
     5    2   19 1   
     6    2   20 1   
     7    2   26 1   
     8    3   12 1   
     9    4   13 1   
    10    5   12 1   
    11    6   13 1   
    12    7    8 1   
    13    7    9 2   
    14    7   21 1   
    15    8   14 2   
    16    8   22 1   
    17    9   16 1   
    18    9   23 1   
    19   10   11 1   
    20   10   16 1   
    21   11   12 1   
    22   13   14 1   
    23   14   15 1   
    24   15   16 1   
    25   15   24 1   
    26   16   25 1   
@<TRIPOS>SUBSTRUCTURE
     1 QLI         1 TEMP              0 ****  ****    0 ROOT
