@<TRIPOS>MOLECULE
QLI
   26    26     1     0     0
SMALL
bcc


@<TRIPOS>ATOM
      1 CAA        -0.3010    0.6130    0.1060 c2        1 QLI     -0.315000
      2 NAB         2.2250   -1.6240   -2.9780 n3        1 QLI     -0.936800
      3 OAC         1.3680   -2.4430   -0.2880 o         1 QLI     -0.816800
      4 OAD         2.9840   -0.1030   -6.7450 o         1 QLI     -0.554000
      5 OAE         0.6870   -1.7390    1.7260 o         1 QLI     -0.816800
      6 OAF         3.5520   -1.7260   -5.4310 oh        1 QLI     -0.598100
      7 CAG         2.2260    2.6010   -3.5210 ce        1 QLI     -0.187000
      8 CAH         2.5320    1.6940   -4.6050 ce        1 QLI     -0.058000
      9 CAI         1.8330    2.1230   -2.3300 c2        1 QLI     -0.117200
     10 OAJ         1.8950    0.2940   -0.7830 os        1 QLI     -0.342900
     11 CAK         0.7900   -0.1450   -0.0540 ce        1 QLI      0.012900
     12 CAL         0.9760   -1.5520    0.5180 c         1 QLI      0.923800
     13 CAM         3.0450   -0.4730   -5.5620 c         1 QLI      0.650300
     14 CAN         2.6690    0.3620   -4.4040 cf        1 QLI     -0.204400
     15 CAO         2.5630   -0.2150   -3.0120 c3        1 QLI      0.200700
     16 CAP         1.6130    0.6580   -2.1370 c3        1 QLI      0.131300
     17 HAA        -0.4340    1.5850   -0.3820 ha        1 QLI      0.106000
     18 HAAA       -1.1150    0.2760    0.7570 ha        1 QLI      0.106000
     19 HNAB        2.3500   -1.9800   -2.0370 hn        1 QLI      0.393300
     20 HNAA        3.4650   -2.0390   -4.5090 ho        1 QLI      0.473000
     21 HAG         2.3400    3.6770   -3.7140 ha        1 QLI      0.125000
     22 HAH         2.6650    2.1240   -5.6130 ha        1 QLI      0.144000
     23 HAI         1.6150    2.7620   -1.4620 ha        1 QLI      0.142000
     24 HAO         3.5980   -0.1240   -2.5500 h1        1 QLI      0.079700
     25 HAP         0.5370    0.4360   -2.3980 h1        1 QLI      0.066700
     26 HAB3        1.2670   -1.7640   -3.2360 hn        1 QLI      0.393300
@<TRIPOS>BOND
     1    1   11 2   
     2    1   17 1   
     3    1   18 1   
     4    2   15 1   
     5    2   19 1   
     6    2   26 1   
     7    3   12 1   
     8    4   13 2   
     9    5   12 1   
    10    6   13 1   
    11    6   20 1   
    12    7    8 1   
    13    7    9 2   
    14    7   21 1   
    15    8   14 2   
    16    8   22 1   
    17    9   16 1   
    18    9   23 1   
    19   10   11 1   
    20   10   16 1   
    21   11   12 1   
    22   13   14 1   
    23   14   15 1   
    24   15   16 1   
    25   15   24 1   
    26   16   25 1   
@<TRIPOS>SUBSTRUCTURE
     1 QLI         1 TEMP              0 ****  ****    0 ROOT
