@<TRIPOS>MOLECULE
QLI
   25    25     1     0     0
SMALL
bcc


@<TRIPOS>ATOM
      1 CAA        -2.7820    1.9200   -0.1510 c2        1 QLI     -0.416000
      2 NAB         1.3060    0.4610   -2.0190 n3        1 QLI     -0.918800
      3 OAC        -3.8600   -0.3560   -2.2270 o         1 QLI     -0.828800
      4 OAD         4.7230    0.6560    0.1550 o         1 QLI     -0.848300
      5 OAE        -4.2050   -0.9720   -0.1090 o         1 QLI     -0.828800
      6 OAF         3.8070   -0.8020   -1.2510 o         1 QLI     -0.848300
      7 CAG         0.9440    1.0240    2.1330 ce        1 QLI     -0.138000
      8 CAH         2.2310    0.8010    1.5130 ce        1 QLI     -0.183000
      9 CAI        -0.1820    1.0080    1.4040 c2        1 QLI     -0.196200
     10 OAJ        -1.2590    0.0790   -0.5480 os        1 QLI     -0.317900
     11 CAK        -2.5030    0.6620   -0.5270 ce        1 QLI      0.068900
     12 CAL        -3.5970   -0.3120   -0.9950 c         1 QLI      0.928800
     13 CAM         3.7130    0.0690   -0.3330 c         1 QLI      0.904800
     14 CAN         2.3430    0.3990    0.2320 cf        1 QLI     -0.120400
     15 CAO         1.1200    0.1340   -0.6120 c3        1 QLI      0.222700
     16 CAP        -0.1480    0.8700   -0.0820 c3        1 QLI      0.161300
     17 HAA        -3.8140    2.2830   -0.1860 ha        1 QLI      0.094500
     18 HAAA       -2.0390    2.6400    0.2010 ha        1 QLI      0.094500
     19 HNAB        2.2020    0.1230   -2.3270 hn        1 QLI      0.361300
     20 HNAA        0.5810    0.0130   -2.5450 hn        1 QLI      0.361300
     21 HAG         0.9250    1.1850    3.2200 ha        1 QLI      0.091000
     22 HAH         3.1350    0.9510    2.1230 ha        1 QLI      0.129000
     23 HAI        -1.1830    1.1250    1.8430 ha        1 QLI      0.130000
     24 HAO         0.9160   -0.9800   -0.4800 h1        1 QLI      0.039700
     25 HAP        -0.2100    1.9030   -0.5340 h1        1 QLI      0.059700
@<TRIPOS>BOND
     1    1   11 2   
     2    1   17 1   
     3    1   18 1   
     4    2   15 1   
     5    2   19 1   
     6    2   20 1   
     7    3   12 1   
     8    4   13 1   
     9    5   12 1   
    10    6   13 1   
    11    7    8 1   
    12    7    9 2   
    13    7   21 1   
    14    8   14 2   
    15    8   22 1   
    16    9   16 1   
    17    9   23 1   
    18   10   11 1   
    19   10   16 1   
    20   11   12 1   
    21   13   14 1   
    22   14   15 1   
    23   15   16 1   
    24   15   24 1   
    25   16   25 1   
@<TRIPOS>SUBSTRUCTURE
     1 QLI         1 TEMP              0 ****  ****    0 ROOT
