@<TRIPOS>MOLECULE
QLP
   44    44     1     0     0
SMALL
bcc


@<TRIPOS>ATOM
      1 O           0.0000    0.0000    0.0000 o         1 QLP     -0.792300
      2 C           1.3540    0.0000    0.0000 c         1 QLP      0.935600
      3 OXT         2.0110    0.0400   -1.0350 o         1 QLP     -0.792300
      4 CA          1.9890    0.0000    1.3810 c3        1 QLP     -0.228500
      5 CB          2.8050    1.2780    1.6110 c3        1 QLP      0.012600
      6 CG          1.9700    2.5610    1.5740 c3        1 QLP     -0.022400
      7 CD          2.8340    3.7670    1.8670 c         1 QLP      0.008100
      8 NE2         2.1420    4.9570    1.8500 nz        1 QLP      0.284600
      9 OE1         4.0390    3.6770    2.0840 o         1 QLP     -0.632100
     10 N           2.7800   -1.1800    1.6280 ny        1 QLP      0.098000
     11 C4A         1.9750   -2.3960    1.5250 c3        1 QLP      0.010100
     12 C4          2.7940   -3.6330    1.7510 ca        1 QLP     -0.152300
     13 C5          3.4090   -4.2630    0.6780 ca        1 QLP     -0.120600
     14 C5A         3.2890   -3.7550   -0.7170 c3        1 QLP      0.311700
     15 O4P         2.1590   -4.3500   -1.3430 os        1 QLP     -0.474200
     16 P           1.8300   -3.9450   -2.8730 p5        1 QLP      0.765900
     17 O3P         1.7510   -2.3320   -2.8060 o         1 QLP     -0.529500
     18 O2P         3.2200   -4.2170   -3.6520 o         1 QLP     -0.529500
     19 O1P         0.6230   -4.6150   -3.4630 o         1 QLP     -0.529500
     20 C6          4.1540   -5.4010    0.9410 ca        1 QLP      0.402200
     21 N1          4.3160   -5.9320    2.1740 nb        1 QLP     -0.564000
     22 C2          3.7000   -5.2870    3.1910 ca        1 QLP      0.310600
     23 C2A         3.8850   -5.8830    4.5470 c3        1 QLP     -0.039400
     24 C3          2.9340   -4.1440    3.0330 ca        1 QLP      0.012800
     25 O3          2.3410   -3.5440    4.0990 oh        1 QLP     -0.509100
     26 HA          1.1820    0.0010    2.1040 hx        1 QLP      0.072700
     27 HB1         3.5680    1.3420    0.8450 hc        1 QLP      0.023700
     28 HB2         3.2890    1.2090    2.5770 hc        1 QLP      0.023700
     29 HG1         1.1840    2.4970    2.3170 hc        1 QLP      0.027200
     30 HG2         1.5260    2.6710    0.5920 hc        1 QLP      0.027200
     31 HE21        2.7660    5.7090    2.0660 hn        1 QLP      0.160800
     32 HE22        1.7480    5.1010    0.9410 hn        1 QLP      0.160800
     33 HN          3.5220   -1.2220    0.9580 hn        1 QLP      0.215300
     34 H4A1        1.1840   -2.3580    2.2650 hx        1 QLP      0.110700
     35 H4A2        1.5310   -2.4430    0.5380 hx        1 QLP      0.110700
     36 H5A1        4.1850   -4.0080   -1.2720 h1        1 QLP      0.007200
     37 H5A2        3.1680   -2.6790   -0.7000 h1        1 QLP      0.007200
     38 H6          4.6370   -5.8970    0.1070 h4        1 QLP     -0.001900
     39 H2A1        2.9370   -6.2640    4.9070 hc        1 QLP      0.010033
     40 H2A2        4.2510   -5.1240    5.2280 hc        1 QLP      0.010033
     41 H2A3        4.6020   -6.6930    4.4910 hc        1 QLP      0.010033
     42 HO3         1.5550   -4.0130    4.3260 ho        1 QLP      0.412000
     43 HE23        1.4080    4.9260    2.5300 hn        1 QLP      0.160800
     44 H2          3.1730   -1.1230    2.5470 hn        1 QLP      0.215300
@<TRIPOS>BOND
     1    1    2 1   
     2    2    3 1   
     3    2    4 1   
     4    4    5 1   
     5    4   10 1   
     6    4   26 1   
     7    5    6 1   
     8    5   27 1   
     9    5   28 1   
    10    6    7 1   
    11    6   29 1   
    12    6   30 1   
    13    7    8 1   
    14    7    9 2   
    15    8   31 1   
    16    8   32 1   
    17    8   43 1   
    18   10   11 1   
    19   10   33 1   
    20   10   44 1   
    21   11   12 1   
    22   11   34 1   
    23   11   35 1   
    24   12   13 ar  
    25   12   24 ar  
    26   13   14 1   
    27   13   20 ar  
    28   14   15 1   
    29   14   36 1   
    30   14   37 1   
    31   15   16 1   
    32   16   17 1   
    33   16   18 1   
    34   16   19 1   
    35   20   21 ar  
    36   20   38 1   
    37   21   22 ar  
    38   22   23 1   
    39   22   24 ar  
    40   23   39 1   
    41   23   40 1   
    42   23   41 1   
    43   24   25 1   
    44   25   42 1   
@<TRIPOS>SUBSTRUCTURE
     1 QLP         1 TEMP              0 ****  ****    0 ROOT
