@<TRIPOS>MOLECULE
QLP
   42    42     1     0     0
SMALL
bcc


@<TRIPOS>ATOM
      1 O          -4.6420    1.1260    0.5640 o         1 QLP     -0.858800
      2 C          -4.7780   -0.0890    0.8870 c         1 QLP      0.923600
      3 OXT        -5.8470   -0.5400    1.4010 o         1 QLP     -0.858800
      4 CA         -3.5840   -1.0490    0.5880 c3        1 QLP      0.054500
      5 CB         -4.1180   -2.4580    0.2820 c3        1 QLP     -0.070400
      6 CG         -4.7400   -2.5280   -1.1020 c3        1 QLP     -0.141400
      7 CD         -6.1340   -3.1230   -1.0870 c         1 QLP      0.652100
      8 NE2        -7.1220   -2.4280   -0.4420 n         1 QLP     -0.662000
      9 OE1        -6.4100   -4.1890   -1.6960 o         1 QLP     -0.705100
     10 N          -2.6260   -1.0550    1.6910 n3        1 QLP     -0.798200
     11 C4A        -1.8280    0.1500    1.8050 c3        1 QLP      0.197100
     12 C4         -0.6890    0.3250    0.8380 ca        1 QLP     -0.191300
     13 C5          0.5680   -0.2440    1.0580 ca        1 QLP     -0.142600
     14 C5A         0.9240   -1.1690    2.2020 c3        1 QLP      0.245700
     15 O4P         2.1220   -0.8420    2.7860 os        1 QLP     -0.563200
     16 P           3.4140   -1.9820    2.5680 p5        1 QLP      1.316900
     17 O3P         4.3250   -1.6760    3.7230 o         1 QLP     -0.926500
     18 O2P         3.9150   -1.5850    1.2000 o         1 QLP     -0.926500
     19 O1P         2.6860   -3.3000    2.6180 o         1 QLP     -0.926500
     20 C6          1.6150    0.0370    0.1290 ca        1 QLP      0.356200
     21 N1          1.4700    0.8040   -0.9510 nb        1 QLP     -0.682000
     22 C2          0.2450    1.3510   -1.1850 ca        1 QLP      0.293600
     23 C2A         0.0360    2.2180   -2.3810 c3        1 QLP     -0.103400
     24 C3         -0.8500    1.1330   -0.3160 ca        1 QLP      0.007800
     25 O3         -2.0170    1.7730   -0.6680 oh        1 QLP     -0.554100
     26 HA         -3.0910   -0.6570   -0.3580 h1        1 QLP      0.017700
     27 HB1        -4.8650   -2.7200    1.0770 hc        1 QLP      0.049200
     28 HB2        -3.2900   -3.2130    0.3370 hc        1 QLP      0.049200
     29 HG1        -4.7990   -1.5010   -1.5540 hc        1 QLP      0.064200
     30 HG2        -4.1070   -3.1620   -1.7770 hc        1 QLP      0.064200
     31 HE21       -7.9930   -2.8690   -0.2950 hn        1 QLP      0.321500
     32 HE22       -6.8630   -1.6700    0.1660 hn        1 QLP      0.321500
     33 HN         -2.0150   -1.8490    1.6000 hn        1 QLP      0.354800
     34 H4A1       -1.4000    0.1390    2.8510 h1        1 QLP      0.063700
     35 H4A2       -2.5250    1.0370    1.7470 h1        1 QLP      0.063700
     36 H5A1        0.1050   -1.1180    2.9790 h1        1 QLP      0.016700
     37 H5A2        0.9560   -2.2250    1.7920 h1        1 QLP      0.016700
     38 H6          2.6300   -0.4330    0.3490 h4        1 QLP      0.146100
     39 H2A1       -0.0950    3.2790   -2.0540 hc        1 QLP      0.017367
     40 H2A2        0.8910    2.1670   -3.0980 hc        1 QLP      0.017367
     41 H2A3       -0.8990    1.9040   -2.9080 hc        1 QLP      0.017367
     42 HO3        -2.7540    1.4370   -0.1220 ho        1 QLP      0.464000
@<TRIPOS>BOND
     1    1    2 1   
     2    2    3 1   
     3    2    4 1   
     4    4    5 1   
     5    4   10 1   
     6    4   26 1   
     7    5    6 1   
     8    5   27 1   
     9    5   28 1   
    10    6    7 1   
    11    6   29 1   
    12    6   30 1   
    13    7    8 1   
    14    7    9 2   
    15    8   31 1   
    16    8   32 1   
    17   10   11 1   
    18   10   33 1   
    19   11   12 1   
    20   11   34 1   
    21   11   35 1   
    22   12   13 ar  
    23   12   24 ar  
    24   13   14 1   
    25   13   20 ar  
    26   14   15 1   
    27   14   36 1   
    28   14   37 1   
    29   15   16 1   
    30   16   17 1   
    31   16   18 1   
    32   16   19 1   
    33   20   21 ar  
    34   20   38 1   
    35   21   22 ar  
    36   22   23 1   
    37   22   24 ar  
    38   23   39 1   
    39   23   40 1   
    40   23   41 1   
    41   24   25 1   
    42   25   42 1   
@<TRIPOS>SUBSTRUCTURE
     1 QLP         1 TEMP              0 ****  ****    0 ROOT
