@<TRIPOS>MOLECULE
QLR
   50    51     1     0     0
SMALL
bcc


@<TRIPOS>ATOM
      1 N1          0.0060   -0.0840   -0.0060 nb        1 QLR     -0.792000
      2 C2          1.3640   -0.3900    0.0350 ca        1 QLR      0.918900
      3 N3          2.1090   -0.5940    1.1810 nb        1 QLR     -0.834000
      4 C4          1.4280   -0.5510    2.3690 ca        1 QLR      0.750200
      5 C5          0.0170   -0.2530    2.4160 ca        1 QLR     -0.345600
      6 C6         -0.6340   -0.0260    1.1760 ca        1 QLR      0.538600
      7 CAB        -6.0200    1.7600    8.4610 c3        1 QLR      0.111200
      8 CAC        -5.1930   -2.4610    2.7100 c3        1 QLR      0.111200
      9 CAD        -8.2640    0.1750    4.3770 c3        1 QLR      0.115700
     10 CAE        -2.0930    0.3110    1.1890 c3        1 QLR     -0.158400
     11 NAF         2.0190   -0.5470   -1.1860 nh        1 QLR     -0.934500
     12 NAG         2.1120   -0.8290    3.5320 nh        1 QLR     -0.961500
     13 CAH        -0.6700   -0.1920    3.6300 cg        1 QLR     -0.087000
     14 CAI        -1.2580   -0.1450    4.6750 c1        1 QLR     -0.149100
     15 CAJ        -4.2780    0.5290    6.6440 ca        1 QLR     -0.221000
     16 CAK        -4.0030   -0.9080    4.7100 ca        1 QLR     -0.221000
     17 CAL        -1.4980   -1.1600    6.8990 c3        1 QLR     -0.072400
     18 CAU        -3.4520   -0.1530    5.7470 ca        1 QLR     -0.016300
     19 CAW        -5.6690    0.4520    6.5060 ca        1 QLR      0.138100
     20 CAX        -5.3940   -0.9920    4.5720 ca        1 QLR      0.138100
     21 CAY        -6.2460   -0.3270    5.4790 ca        1 QLR      0.040100
     22 CAZ        -1.9610   -0.0680    5.9280 c3        1 QLR      0.068700
     23 HAA         0.2430   -1.7840    8.0170 hc        1 QLR      0.033700
     24 HAAA        0.6120   -0.9620    6.4440 hc        1 QLR      0.033700
     25 HAAB        0.0530    0.0110    7.8650 hc        1 QLR      0.033700
     26 HAB        -6.9260    2.1400    8.9990 h1        1 QLR      0.045533
     27 HABA       -5.4570    1.0370    9.1000 h1        1 QLR      0.045533
     28 HABB       -5.3610    2.6070    8.1520 h1        1 QLR      0.045533
     29 HAC        -5.9200   -2.9650    2.0250 h1        1 QLR      0.045533
     30 HACA       -4.5010   -1.7990    2.1330 h1        1 QLR      0.045533
     31 HACB       -4.6150   -3.2140    3.2980 h1        1 QLR      0.045533
     32 HAD        -7.8770   -0.1920    3.3960 h1        1 QLR      0.041033
     33 HADA       -9.3420   -0.0940    4.5090 h1        1 QLR      0.041033
     34 HADB       -8.1170    1.2780    4.4710 h1        1 QLR      0.041033
     35 HAE        -2.6240   -0.3610    1.9090 hc        1 QLR      0.061033
     36 HAEA       -2.2170    1.3690    1.5330 hc        1 QLR      0.061033
     37 HAEB       -2.5620    0.2050    0.1810 hc        1 QLR      0.061033
     38 HNAF        1.5710   -0.1830   -1.9930 hn        1 QLR      0.432800
     39 HNAA        3.0120   -0.5450   -1.1770 hn        1 QLR      0.432800
     40 HNAG        3.0980   -0.9150    3.5200 hn        1 QLR      0.438800
     41 HNAB        1.6590   -0.6350    4.3920 hn        1 QLR      0.438800
     42 HAJ        -3.8300    1.1250    7.4510 ha        1 QLR      0.145000
     43 HAK        -3.3360   -1.4300    4.0080 ha        1 QLR      0.145000
     44 HAL        -1.6160   -2.1630    6.4120 hc        1 QLR      0.052700
     45 HALA       -2.1710   -1.1400    7.7970 hc        1 QLR      0.052700
     46 HAZ        -1.7200    0.9370    6.3960 hc        1 QLR      0.068700
     47 OAO        -6.5680    1.1100    7.3190 os        1 QLR     -0.312900
     48 CAA        -0.0690   -0.9610    7.3300 c3        1 QLR     -0.091100
     49 OAP        -6.0300   -1.6860    3.5630 os        1 QLR     -0.312900
     50 OAQ        -7.6160   -0.5050    5.4540 os        1 QLR     -0.309900
@<TRIPOS>BOND
     1    1    2 ar  
     2    1    6 ar  
     3    2    3 ar  
     4    2   11 1   
     5    3    4 ar  
     6    4    5 ar  
     7    4   12 1   
     8    5    6 ar  
     9    5   13 1   
    10    6   10 1   
    11    7   26 1   
    12    7   27 1   
    13    7   28 1   
    14    7   47 1   
    15    8   29 1   
    16    8   30 1   
    17    8   31 1   
    18    8   49 1   
    19    9   32 1   
    20    9   33 1   
    21    9   34 1   
    22    9   50 1   
    23   10   35 1   
    24   10   36 1   
    25   10   37 1   
    26   11   38 1   
    27   11   39 1   
    28   12   40 1   
    29   12   41 1   
    30   13   14 3   
    31   14   22 1   
    32   15   18 ar  
    33   15   19 ar  
    34   15   42 1   
    35   16   18 ar  
    36   16   20 ar  
    37   16   43 1   
    38   17   22 1   
    39   17   44 1   
    40   17   45 1   
    41   17   48 1   
    42   18   22 1   
    43   19   21 ar  
    44   19   47 1   
    45   20   21 ar  
    46   20   49 1   
    47   21   50 1   
    48   22   46 1   
    49   23   48 1   
    50   24   48 1   
    51   25   48 1   
@<TRIPOS>SUBSTRUCTURE
     1 QLR         1 TEMP              0 ****  ****    0 ROOT
