@<TRIPOS>MOLECULE
QLR
   52    53     1     0     0
SMALL
bcc


@<TRIPOS>ATOM
      1 N1          0.4140   -0.0140   -0.0800 nb        1 QLR     -0.641000
      2 C2          1.7510   -0.3550    0.0160 ca        1 QLR      0.726900
      3 N3          2.4680   -0.5650    1.1480 nb        1 QLR     -0.660000
      4 C4          1.7620   -0.4120    2.3150 ca        1 QLR      0.458200
      5 C5          0.3920   -0.0590    2.3570 ca        1 QLR     -0.004600
      6 C6         -0.2620    0.1330    1.0700 ca        1 QLR      0.543600
      7 CAB        -5.8910    3.3730    6.7890 c3        1 QLR      0.114700
      8 CAC        -6.7940   -1.5070    2.5600 c3        1 QLR      0.114700
      9 CAD        -8.2750    1.2510    4.5250 c3        1 QLR      0.117700
     10 CAE        -1.7050    0.5040    1.0480 c3        1 QLR     -0.189400
     11 NAF         2.4690   -0.5090   -1.2830 n4        1 QLR     -0.813300
     12 NAG         2.4970   -0.6350    3.5750 n4        1 QLR     -0.814300
     13 CAH        -0.3050    0.0850    3.5440 cg        1 QLR     -0.365000
     14 CAI        -1.0140    0.2220    4.5130 c1        1 QLR      0.191900
     15 CAJ        -4.1310    1.4820    5.7060 ca        1 QLR     -0.191500
     16 CAK        -3.7880   -0.4040    4.2250 ca        1 QLR     -0.191500
     17 CAL        -1.7180   -0.7910    6.6380 c3        1 QLR     -0.081400
     18 CAU        -3.3060    0.4840    5.1830 ca        1 QLR     -0.088300
     19 CAW        -5.4500    1.5980    5.2510 ca        1 QLR      0.132100
     20 CAX        -5.1070   -0.2880    3.7540 ca        1 QLR      0.132100
     21 CAY        -5.9550    0.7220    4.2580 ca        1 QLR      0.068100
     22 CAZ        -1.8830    0.3720    5.6540 c3        1 QLR      0.017700
     23 HAA        -0.2450   -1.7260    7.9100 hc        1 QLR      0.036367
     24 HAAA        0.4350   -0.9590    6.4140 hc        1 QLR      0.036367
     25 HAAB       -0.1010    0.0760    7.8030 hc        1 QLR      0.036367
     26 HAB        -6.7910    4.0050    7.0060 h1        1 QLR      0.058200
     27 HABA       -5.6260    2.7450    7.6740 h1        1 QLR      0.058200
     28 HABB       -5.0290    4.0090    6.4770 h1        1 QLR      0.058200
     29 HAC        -6.7450   -2.4390    1.9410 h1        1 QLR      0.058200
     30 HACA       -7.2930   -1.7010    3.5380 h1        1 QLR      0.058200
     31 HACB       -7.3130   -0.6850    2.0090 h1        1 QLR      0.058200
     32 HAD        -9.1820    0.8920    3.9750 h1        1 QLR      0.059700
     33 HADA       -8.2020    0.7820    5.5330 h1        1 QLR      0.059700
     34 HADB       -8.2740    2.3650    4.6050 h1        1 QLR      0.059700
     35 HAE        -2.2620   -0.0780    1.8300 hc        1 QLR      0.113700
     36 HAEA       -1.8040    1.5970    1.2850 hc        1 QLR      0.113700
     37 HAEB       -2.1800    0.3160    0.0500 hc        1 QLR      0.113700
     38 HNAF        3.4570   -0.7580   -1.1290 hn        1 QLR      0.496800
     39 HNAA        2.0080   -1.2500   -1.8340 hn        1 QLR      0.496800
     40 HNAG        3.1680    0.1310    3.7290 hn        1 QLR      0.489800
     41 HNAB        1.8170   -0.6570    4.3540 hn        1 QLR      0.489800
     42 HAJ        -3.7450    2.1740    6.4680 ha        1 QLR      0.141500
     43 HAK        -3.1600   -1.2170    3.8330 ha        1 QLR      0.141500
     44 HAL        -2.4710   -0.6480    7.4610 hc        1 QLR      0.082700
     45 HALA       -1.9720   -1.7540    6.1230 hc        1 QLR      0.082700
     46 HAZ        -1.5890    1.3310    6.1880 hc        1 QLR      0.113700
     47 OAO        -6.3270    2.5580    5.7030 os        1 QLR     -0.328900
     48 CAA        -0.3320   -0.8500    7.2210 c3        1 QLR     -0.095100
     49 OAP        -5.4170   -1.1660    2.7420 os        1 QLR     -0.328900
     50 OAQ        -7.1960    0.8390    3.6790 os        1 QLR     -0.326900
     51 HAF3        2.4140    0.3810   -1.8030 hn        1 QLR      0.496800
     52 HAG3        3.0100   -1.5290    3.5440 hn        1 QLR      0.489800
@<TRIPOS>BOND
     1    1    2 ar  
     2    1    6 ar  
     3    2    3 ar  
     4    2   11 1   
     5    3    4 ar  
     6    4    5 ar  
     7    4   12 1   
     8    5    6 ar  
     9    5   13 1   
    10    6   10 1   
    11    7   26 1   
    12    7   27 1   
    13    7   28 1   
    14    7   47 1   
    15    8   29 1   
    16    8   30 1   
    17    8   31 1   
    18    8   49 1   
    19    9   32 1   
    20    9   33 1   
    21    9   34 1   
    22    9   50 1   
    23   10   35 1   
    24   10   36 1   
    25   10   37 1   
    26   11   38 1   
    27   11   39 1   
    28   11   51 1   
    29   12   40 1   
    30   12   41 1   
    31   12   52 1   
    32   13   14 3   
    33   14   22 1   
    34   15   18 ar  
    35   15   19 ar  
    36   15   42 1   
    37   16   18 ar  
    38   16   20 ar  
    39   16   43 1   
    40   17   22 1   
    41   17   44 1   
    42   17   45 1   
    43   17   48 1   
    44   18   22 1   
    45   19   21 ar  
    46   19   47 1   
    47   20   21 ar  
    48   20   49 1   
    49   21   50 1   
    50   22   46 1   
    51   23   48 1   
    52   24   48 1   
    53   25   48 1   
@<TRIPOS>SUBSTRUCTURE
     1 QLR         1 TEMP              0 ****  ****    0 ROOT
