@<TRIPOS>MOLECULE
QLR
   50    51     1     0     0
SMALL
bcc


@<TRIPOS>ATOM
      1 N1          4.4380   -2.0450   -0.2270 nb        1 QLR     -0.792000
      2 C2          5.5730   -1.2980    0.0790 ca        1 QLR      0.918900
      3 N3          5.6050    0.0660    0.2970 nb        1 QLR     -0.834000
      4 C4          4.4000    0.7180    0.2670 ca        1 QLR      0.750200
      5 C5          3.1740    0.0180   -0.0300 ca        1 QLR     -0.345600
      6 C6          3.2710   -1.3760   -0.2720 ca        1 QLR      0.538600
      7 CAB        -5.1560    2.0060   -1.9630 c3        1 QLR      0.111200
      8 CAC        -1.3960   -2.4940    2.1810 c3        1 QLR      0.111200
      9 CAD        -4.9060   -2.6640   -0.4290 c3        1 QLR      0.115700
     10 CAE         2.0220   -2.1300   -0.6080 c3        1 QLR     -0.158400
     11 NAF         6.7740   -1.9930    0.2230 nh        1 QLR     -0.934500
     12 NAG         4.3720    2.0650    0.5570 nh        1 QLR     -0.961500
     13 CAH         1.9510    0.6900   -0.0770 cg        1 QLR     -0.087000
     14 CAI         0.9010    1.2700   -0.1120 c1        1 QLR     -0.149100
     15 CAJ        -2.7090    1.3630   -0.7590 ca        1 QLR     -0.221000
     16 CAK        -1.4470   -0.1520    0.6520 ca        1 QLR     -0.221000
     17 CAL        -0.4670    3.0260    0.9270 c3        1 QLR     -0.072400
     18 CAU        -1.5290    1.0280   -0.0890 ca        1 QLR     -0.016300
     19 CAW        -3.8190    0.5140   -0.6810 ca        1 QLR      0.138100
     20 CAX        -2.5570   -1.0010    0.7360 ca        1 QLR      0.138100
     21 CAY        -3.7640   -0.6710    0.0850 ca        1 QLR      0.040100
     22 CAZ        -0.3570    1.9660   -0.1750 c3        1 QLR      0.068700
     23 HAA         0.4310    4.8880    1.5610 hc        1 QLR      0.033700
     24 HAAA        1.5660    3.7510    0.7210 hc        1 QLR      0.033700
     25 HAAB        0.3370    4.6740   -0.2360 hc        1 QLR      0.033700
     26 HAB        -6.2120    1.9920   -2.3360 h1        1 QLR      0.045533
     27 HABA       -5.0060    2.8380   -1.2340 h1        1 QLR      0.045533
     28 HABB       -4.4390    2.0990   -2.8160 h1        1 QLR      0.045533
     29 HAC        -1.6510   -3.4640    2.6780 h1        1 QLR      0.045533
     30 HACA       -0.5090   -2.6150    1.5120 h1        1 QLR      0.045533
     31 HACB       -1.2080   -1.6980    2.9420 h1        1 QLR      0.045533
     32 HAD        -4.0580   -3.2980   -0.0750 h1        1 QLR      0.041033
     33 HADA       -5.8900   -3.1210   -0.1560 h1        1 QLR      0.041033
     34 HADB       -4.8380   -2.4950   -1.5300 h1        1 QLR      0.041033
     35 HAE         1.1950   -1.8030    0.0720 hc        1 QLR      0.061033
     36 HAEA        1.7300   -1.8930   -1.6620 hc        1 QLR      0.061033
     37 HAEB        2.1550   -3.2350   -0.5130 hc        1 QLR      0.061033
     38 HNAF        6.8150   -2.9120   -0.1510 hn        1 QLR      0.432800
     39 HNAA        7.6130   -1.4640    0.2210 hn        1 QLR      0.432800
     40 HNAG        5.2180    2.5730    0.6430 hn        1 QLR      0.438800
     41 HNAB        3.5340    2.5590    0.3740 hn        1 QLR      0.438800
     42 HAJ        -2.7570    2.2920   -1.3450 ha        1 QLR      0.145000
     43 HAK        -0.5060   -0.4030    1.1650 ha        1 QLR      0.145000
     44 HAL        -0.3030    2.5410    1.9240 hc        1 QLR      0.052700
     45 HALA       -1.5110    3.4360    0.9180 hc        1 QLR      0.052700
     46 HAZ        -0.4040    2.4990   -1.1750 hc        1 QLR      0.068700
     47 OAO        -5.0160    0.7400   -1.3280 os        1 QLR     -0.312900
     48 CAA         0.5210    4.1460    0.7310 c3        1 QLR     -0.091100
     49 OAP        -2.5620   -2.2010    1.4190 os        1 QLR     -0.312900
     50 OAQ        -4.9150   -1.4140    0.2650 os        1 QLR     -0.309900
@<TRIPOS>BOND
     1    1    2 ar  
     2    1    6 ar  
     3    2    3 ar  
     4    2   11 1   
     5    3    4 ar  
     6    4    5 ar  
     7    4   12 1   
     8    5    6 ar  
     9    5   13 1   
    10    6   10 1   
    11    7   26 1   
    12    7   27 1   
    13    7   28 1   
    14    7   47 1   
    15    8   29 1   
    16    8   30 1   
    17    8   31 1   
    18    8   49 1   
    19    9   32 1   
    20    9   33 1   
    21    9   34 1   
    22    9   50 1   
    23   10   35 1   
    24   10   36 1   
    25   10   37 1   
    26   11   38 1   
    27   11   39 1   
    28   12   40 1   
    29   12   41 1   
    30   13   14 3   
    31   14   22 1   
    32   15   18 ar  
    33   15   19 ar  
    34   15   42 1   
    35   16   18 ar  
    36   16   20 ar  
    37   16   43 1   
    38   17   22 1   
    39   17   44 1   
    40   17   45 1   
    41   17   48 1   
    42   18   22 1   
    43   19   21 ar  
    44   19   47 1   
    45   20   21 ar  
    46   20   49 1   
    47   21   50 1   
    48   22   46 1   
    49   23   48 1   
    50   24   48 1   
    51   25   48 1   
@<TRIPOS>SUBSTRUCTURE
     1 QLR         1 TEMP              0 ****  ****    0 ROOT
