@<TRIPOS>MOLECULE
QLR
   50    51     1     0     0
SMALL
bcc


@<TRIPOS>ATOM
      1 N1          0.1160   -0.0110   -0.2440 nb        1 QLR     -0.793000
      2 C2          1.4470   -0.4210   -0.2030 ca        1 QLR      0.920900
      3 N3          2.1350   -0.8140    0.9290 nb        1 QLR     -0.835000
      4 C4          1.4550   -0.7300    2.1160 ca        1 QLR      0.752200
      5 C5          0.0780   -0.3020    2.1660 ca        1 QLR     -0.346600
      6 C6         -0.5330    0.0460    0.9340 ca        1 QLR      0.538600
      7 CAB        -5.8460    1.8310    8.3160 c3        1 QLR      0.111200
      8 CAC        -5.2940   -2.0400    2.2920 c3        1 QLR      0.111200
      9 CAD        -8.1810    0.6830    4.1430 c3        1 QLR      0.115700
     10 CAE        -1.9580    0.5020    0.9480 c3        1 QLR     -0.158400
     11 NAF         2.1590   -0.3920   -1.4010 nv        1 QLR     -0.936500
     12 NAG         2.1230   -1.0410    3.2810 nv        1 QLR     -0.962500
     13 CAH        -0.6160   -0.2390    3.3760 cg        1 QLR     -0.087000
     14 CAI        -1.2100   -0.1900    4.4180 c1        1 QLR     -0.149100
     15 CAJ        -4.1890    0.5970    6.4240 ca        1 QLR     -0.222000
     16 CAK        -4.0060   -0.7190    4.3950 ca        1 QLR     -0.222000
     17 CAL        -1.5390   -1.2630    6.6030 c3        1 QLR     -0.073400
     18 CAU        -3.4080   -0.0780    5.4810 ca        1 QLR     -0.015300
     19 CAW        -5.5810    0.6270    6.2810 ca        1 QLR      0.138100
     20 CAX        -5.3990   -0.6960    4.2530 ca        1 QLR      0.138100
     21 CAY        -6.2070   -0.0370    5.2040 ca        1 QLR      0.040100
     22 CAZ        -1.9160   -0.1070    5.6690 c3        1 QLR      0.067700
     23 HAA         0.1460   -2.0430    7.7110 hc        1 QLR      0.033700
     24 HAAA        0.5860   -1.1780    6.1800 hc        1 QLR      0.033700
     25 HAAB        0.0710   -0.2340    7.6350 hc        1 QLR      0.033700
     26 HAB        -6.7240    2.2400    8.8780 h1        1 QLR      0.045367
     27 HABA       -5.3340    1.0350    8.9090 h1        1 QLR      0.045367
     28 HABB       -5.1300    2.6480    8.0560 h1        1 QLR      0.045367
     29 HAC        -6.0530   -2.4430    1.5730 h1        1 QLR      0.045367
     30 HACA       -4.5560   -1.3890    1.7620 h1        1 QLR      0.045367
     31 HACB       -4.7720   -2.8720    2.8230 h1        1 QLR      0.045367
     32 HAD        -7.8160    0.3610    3.1380 h1        1 QLR      0.041367
     33 HADA       -9.2740    0.4810    4.2560 h1        1 QLR      0.041367
     34 HADB       -7.9560    1.7630    4.3160 h1        1 QLR      0.041367
     35 HAE        -2.5510   -0.1410    1.6470 hc        1 QLR      0.061033
     36 HAEA       -1.9940    1.5570    1.3190 hc        1 QLR      0.061033
     37 HAEB       -2.4260    0.4640   -0.0660 hc        1 QLR      0.061033
     38 HNAF        1.6360   -0.3330   -2.2420 hn        1 QLR      0.433300
     39 HNAA        3.0240   -0.8760   -1.4340 hn        1 QLR      0.433300
     40 HNAG        3.0280   -1.4380    3.2460 hn        1 QLR      0.439800
     41 HNAB        1.5910   -1.1270    4.1110 hn        1 QLR      0.439800
     42 HAJ        -3.7030    1.1030    7.2690 ha        1 QLR      0.144500
     43 HAK        -3.3750   -1.2370    3.6580 ha        1 QLR      0.144500
     44 HAL        -1.7160   -2.2370    6.0780 hc        1 QLR      0.051700
     45 HALA       -2.2200   -1.2310    7.4940 hc        1 QLR      0.051700
     46 HAZ        -1.6070    0.8610    6.1720 hc        1 QLR      0.071700
     47 OAO        -6.4350    1.2880    7.1390 os        1 QLR     -0.311900
     48 CAA        -0.1060   -1.1730    7.0570 c3        1 QLR     -0.091100
     49 OAP        -6.0790   -1.2730    3.1990 os        1 QLR     -0.311900
     50 OAQ        -7.5860   -0.1170    5.1670 os        1 QLR     -0.310900
@<TRIPOS>BOND
     1    1    2 ar  
     2    1    6 ar  
     3    2    3 ar  
     4    2   11 1   
     5    3    4 ar  
     6    4    5 ar  
     7    4   12 1   
     8    5    6 ar  
     9    5   13 1   
    10    6   10 1   
    11    7   26 1   
    12    7   27 1   
    13    7   28 1   
    14    7   47 1   
    15    8   29 1   
    16    8   30 1   
    17    8   31 1   
    18    8   49 1   
    19    9   32 1   
    20    9   33 1   
    21    9   34 1   
    22    9   50 1   
    23   10   35 1   
    24   10   36 1   
    25   10   37 1   
    26   11   38 1   
    27   11   39 1   
    28   12   40 1   
    29   12   41 1   
    30   13   14 3   
    31   14   22 1   
    32   15   18 ar  
    33   15   19 ar  
    34   15   42 1   
    35   16   18 ar  
    36   16   20 ar  
    37   16   43 1   
    38   17   22 1   
    39   17   44 1   
    40   17   45 1   
    41   17   48 1   
    42   18   22 1   
    43   19   21 ar  
    44   19   47 1   
    45   20   21 ar  
    46   20   49 1   
    47   21   50 1   
    48   22   46 1   
    49   23   48 1   
    50   24   48 1   
    51   25   48 1   
@<TRIPOS>SUBSTRUCTURE
     1 QLR         1 TEMP              0 ****  ****    0 ROOT
