@<TRIPOS>MOLECULE
QLW
   49    51     1     0     0
SMALL
bcc


@<TRIPOS>ATOM
      1 CAA        -6.4980    2.4450   -1.1940 c3        1 QLW     -0.002400
      2 NAW        -6.5250    1.4120   -0.1870 nh        1 QLW     -0.227100
      3 CAB        -7.7050    1.2640    0.6320 c3        1 QLW     -0.002400
      4 CAV        -5.4560    0.5930   -0.0110 cc        1 QLW      0.431900
      5 CAM        -4.2650    0.7090   -0.8060 cc        1 QLW     -0.329600
      6 CAO        -3.1960   -0.1410   -0.6000 cd        1 QLW      0.121500
      7 CAL        -5.4450   -0.4460    0.9830 cc        1 QLW     -0.329600
      8 CAN        -4.3410   -1.2600    1.1360 cd        1 QLW      0.121500
      9 NAX        -3.2170   -1.1250    0.3580 na        1 QLW     -0.433200
     10 CAR        -2.0740   -2.0310    0.5330 c3        1 QLW      0.245100
     11 CAU        -0.7460   -1.3620    0.3950 ca        1 QLW     -0.174300
     12 CAK        -0.1860   -0.6800    1.4800 ca        1 QLW     -0.102500
     13 CAI         1.0770   -0.1020    1.3650 ca        1 QLW     -0.126000
     14 CAJ        -0.0320   -1.4620   -0.8050 ca        1 QLW     -0.102500
     15 CAH         1.2300   -0.8870   -0.9160 ca        1 QLW     -0.126000
     16 CAT         1.7970   -0.2010    0.1680 ca        1 QLW     -0.029300
     17 CAQ         3.1440    0.4170    0.0410 c3        1 QLW     -0.050100
     18 CAP         4.2420   -0.6360    0.0030 c3        1 QLW     -0.028100
     19 CAS         5.5810   -0.0110   -0.1710 ca        1 QLW     -0.095300
     20 CAF         6.4700    0.0720    0.9070 ca        1 QLW     -0.125500
     21 CAD         7.7290    0.6490    0.7360 ca        1 QLW     -0.124000
     22 CAC         8.1080    1.1470   -0.5100 ca        1 QLW     -0.122000
     23 CAE         7.2260    1.0650   -1.5880 ca        1 QLW     -0.124000
     24 CAG         5.9680    0.4890   -1.4200 ca        1 QLW     -0.125500
     25 HAA1       -5.6560    3.1620   -0.9910 h1        1 QLW      0.071367
     26 HAA2       -6.3580    1.9890   -2.2120 h1        1 QLW      0.071367
     27 HAA3       -7.4640    3.0160   -1.1870 h1        1 QLW      0.071367
     28 HAB1       -8.4750    2.0250    0.3370 h1        1 QLW      0.071367
     29 HAB2       -8.1430    0.2370    0.4960 h1        1 QLW      0.071367
     30 HAB3       -7.4450    1.4150    1.7150 h1        1 QLW      0.071367
     31 HAM        -4.1800    1.4760   -1.5930 ha        1 QLW      0.184000
     32 HAL        -6.3140   -0.6100    1.6400 ha        1 QLW      0.184000
     33 HAO        -2.2650   -0.0600   -1.2010 h4        1 QLW      0.200500
     34 HAN        -4.3270   -2.0640    1.9010 h4        1 QLW      0.200500
     35 HAR1       -2.1560   -2.4960    1.5580 h1        1 QLW      0.089200
     36 HAR2       -2.1800   -2.8490   -0.2400 h1        1 QLW      0.089200
     37 HAK        -0.7350   -0.6060    2.4310 ha        1 QLW      0.136500
     38 HAJ        -0.4580   -2.0120   -1.6590 ha        1 QLW      0.136500
     39 HAI         1.5140    0.4300    2.2250 ha        1 QLW      0.153000
     40 HAH         1.7940   -0.9760   -1.8580 ha        1 QLW      0.153000
     41 HAQ1        3.1870    1.0270   -0.9020 hc        1 QLW      0.064700
     42 HAQ2        3.3330    1.1170    0.8980 hc        1 QLW      0.064700
     43 HAP1        4.2160   -1.2370    0.9510 hc        1 QLW      0.052200
     44 HAP2        4.0470   -1.3450   -0.8470 hc        1 QLW      0.052200
     45 HAF         6.1790   -0.3240    1.8910 ha        1 QLW      0.128500
     46 HAG         5.2760    0.4220   -2.2720 ha        1 QLW      0.128500
     47 HAD         8.4240    0.7080    1.5870 ha        1 QLW      0.137500
     48 HAC         9.1010    1.6000   -0.6440 ha        1 QLW      0.139000
     49 HAE         7.5240    1.4540   -2.5730 ha        1 QLW      0.137500
@<TRIPOS>BOND
     1    1    2 1   
     2    1   25 1   
     3    1   26 1   
     4    1   27 1   
     5    2    3 1   
     6    2    4 2   
     7    3   28 1   
     8    3   29 1   
     9    3   30 1   
    10    4    5 1   
    11    4    7 1   
    12    5    6 2   
    13    5   31 1   
    14    6    9 1   
    15    6   33 1   
    16    7    8 2   
    17    7   32 1   
    18    8    9 1   
    19    8   34 1   
    20    9   10 1   
    21   10   11 1   
    22   10   35 1   
    23   10   36 1   
    24   11   12 ar  
    25   11   14 ar  
    26   12   13 ar  
    27   12   37 1   
    28   13   16 ar  
    29   13   39 1   
    30   14   15 ar  
    31   14   38 1   
    32   15   16 ar  
    33   15   40 1   
    34   16   17 1   
    35   17   18 1   
    36   17   41 1   
    37   17   42 1   
    38   18   19 1   
    39   18   43 1   
    40   18   44 1   
    41   19   20 ar  
    42   19   24 ar  
    43   20   21 ar  
    44   20   45 1   
    45   21   22 ar  
    46   21   47 1   
    47   22   23 ar  
    48   22   48 1   
    49   23   24 ar  
    50   23   49 1   
    51   24   46 1   
@<TRIPOS>SUBSTRUCTURE
     1 QLW         1 TEMP              0 ****  ****    0 ROOT
