@<TRIPOS>MOLECULE
QLW
   50    52     1     0     0
SMALL
bcc


@<TRIPOS>ATOM
      1 CAA         0.0010   -1.0760   -0.0110 c3        1 QLW      0.082100
      2 NAW         1.0520   -0.0330    0.1970 n4        1 QLW     -0.568800
      3 CAB         1.8410   -0.3100    1.4370 c3        1 QLW      0.082100
      4 CAV         1.9300    0.0830   -0.9800 ca        1 QLW      0.067600
      5 CAM         1.9920    1.2900   -1.6970 ca        1 QLW     -0.129000
      6 CAO         2.8380    1.3800   -2.8180 ca        1 QLW      0.000700
      7 CAL         2.7190   -1.0040   -1.4070 ca        1 QLW     -0.129000
      8 CAN         3.5410   -0.8490   -2.5310 ca        1 QLW      0.000700
      9 NAX         3.6000    0.3280   -3.2250 na        1 QLW      0.063900
     10 CAR         4.4900    0.4190   -4.4240 c3        1 QLW      0.061600
     11 CAU         4.6800    1.7980   -4.9300 ca        1 QLW     -0.234300
     12 CAK         5.7550    2.5740   -4.4710 ca        1 QLW     -0.090000
     13 CAI         5.9980    3.8270   -5.0230 ca        1 QLW     -0.129000
     14 CAJ         3.8540    2.2940   -5.9510 ca        1 QLW     -0.090000
     15 CAH         4.1010    3.5460   -6.5000 ca        1 QLW     -0.129000
     16 CAT         5.1770    4.3270   -6.0450 ca        1 QLW      0.011700
     17 CAQ         5.4390    5.6620   -6.6450 c3        1 QLW     -0.063100
     18 CAP         5.9840    5.5430   -8.0620 c3        1 QLW     -0.022100
     19 CAS         6.2200    6.8880   -8.6530 ca        1 QLW     -0.108300
     20 CAF         7.3590    7.6210   -8.2970 ca        1 QLW     -0.124500
     21 CAD         7.5900    8.8750   -8.8600 ca        1 QLW     -0.120500
     22 CAC         6.6880    9.4060   -9.7820 ca        1 QLW     -0.113000
     23 CAE         5.5530    8.6780  -10.1420 ca        1 QLW     -0.120500
     24 CAG         5.3190    7.4240   -9.5800 ca        1 QLW     -0.124500
     25 HAA1       -0.5920   -0.8330   -0.9340 hx        1 QLW      0.121700
     26 HAA2       -0.6800   -1.0800    0.8850 hx        1 QLW      0.121700
     27 HAA3        0.4810   -2.0850   -0.1190 hx        1 QLW      0.121700
     28 HAB1        2.3480   -1.3070    1.3510 hx        1 QLW      0.121700
     29 HAB2        2.6070    0.4990    1.5840 hx        1 QLW      0.121700
     30 HAB3        1.1330   -0.3250    2.3130 hx        1 QLW      0.121700
     31 HAM         1.4020    2.1860   -1.4240 ha        1 QLW      0.212000
     32 HAL         2.7180   -1.9820   -0.8890 ha        1 QLW      0.212000
     33 HAO         2.9100    2.3270   -3.4100 h4        1 QLW      0.249000
     34 HAN         4.1770   -1.6910   -2.8930 h4        1 QLW      0.249000
     35 HAR1        4.0100   -0.2360   -5.2120 h1        1 QLW      0.117200
     36 HAR2        5.4810   -0.0310   -4.1160 h1        1 QLW      0.117200
     37 HAK         6.4280    2.1850   -3.6900 ha        1 QLW      0.140000
     38 HAJ         3.0270    1.6810   -6.3420 ha        1 QLW      0.140000
     39 HAI         6.8520    4.4270   -4.6670 ha        1 QLW      0.169500
     40 HAH         3.4610    3.9280   -7.3130 ha        1 QLW      0.169500
     41 HAQ1        4.4820    6.2530   -6.6660 hc        1 QLW      0.074200
     42 HAQ2        6.1730    6.2360   -6.0170 hc        1 QLW      0.074200
     43 HAP1        5.2570    4.9650   -8.6930 hc        1 QLW      0.053200
     44 HAP2        6.9470    4.9660   -8.0450 hc        1 QLW      0.053200
     45 HAF         8.0770    7.2020   -7.5770 ha        1 QLW      0.126500
     46 HAG         4.4270    6.8510   -9.8740 ha        1 QLW      0.126500
     47 HAD         8.4890    9.4450   -8.5800 ha        1 QLW      0.143000
     48 HAC         6.8730   10.3940  -10.2290 ha        1 QLW      0.146000
     49 HAE         4.8430    9.0920  -10.8740 ha        1 QLW      0.143000
     50 HAW1        0.5730    0.8750    0.3250 hn        1 QLW      0.474800
@<TRIPOS>BOND
     1    1    2 1   
     2    1   25 1   
     3    1   26 1   
     4    1   27 1   
     5    2    3 1   
     6    2    4 1   
     7    2   50 1   
     8    3   28 1   
     9    3   29 1   
    10    3   30 1   
    11    4    5 ar  
    12    4    7 ar  
    13    5    6 ar  
    14    5   31 1   
    15    6    9 1   
    16    6   33 1   
    17    7    8 ar  
    18    7   32 1   
    19    8    9 2   
    20    8   34 1   
    21    9   10 1   
    22   10   11 1   
    23   10   35 1   
    24   10   36 1   
    25   11   12 ar  
    26   11   14 ar  
    27   12   13 ar  
    28   12   37 1   
    29   13   16 ar  
    30   13   39 1   
    31   14   15 ar  
    32   14   38 1   
    33   15   16 ar  
    34   15   40 1   
    35   16   17 1   
    36   17   18 1   
    37   17   41 1   
    38   17   42 1   
    39   18   19 1   
    40   18   43 1   
    41   18   44 1   
    42   19   20 ar  
    43   19   24 ar  
    44   20   21 ar  
    45   20   45 1   
    46   21   22 ar  
    47   21   47 1   
    48   22   23 ar  
    49   22   48 1   
    50   23   24 ar  
    51   23   49 1   
    52   24   46 1   
@<TRIPOS>SUBSTRUCTURE
     1 QLW         1 TEMP              0 ****  ****    0 ROOT
