@<TRIPOS>MOLECULE
QLW
   49    51     1     0     0
SMALL
bcc


@<TRIPOS>ATOM
      1 CAA         0.3540   -1.1830    0.3840 c3        1 QLW     -0.002400
      2 NAW         1.4360   -0.2540    0.1630 nh        1 QLW     -0.227100
      3 CAB         1.9060    0.5490    1.2670 c3        1 QLW     -0.002400
      4 CAV         2.0040   -0.1360   -1.0650 cc        1 QLW      0.431900
      5 CAM         1.5620   -0.9170   -2.1890 cc        1 QLW     -0.329600
      6 CAO         2.1610   -0.7710   -3.4240 cd        1 QLW      0.121500
      7 CAL         3.0830    0.7760   -1.3240 cc        1 QLW     -0.329600
      8 CAN         3.6360    0.8710   -2.5860 cd        1 QLW      0.121500
      9 NAX         3.1930    0.1090   -3.6390 na        1 QLW     -0.433200
     10 CAR         3.8230    0.2130   -4.9620 c3        1 QLW      0.245100
     11 CAU         4.1910    1.6080   -5.3480 ca        1 QLW     -0.173300
     12 CAK         5.5130    2.0480   -5.2080 ca        1 QLW     -0.102500
     13 CAI         5.8680    3.3290   -5.6200 ca        1 QLW     -0.126000
     14 CAJ         3.2310    2.4620   -5.9020 ca        1 QLW     -0.102500
     15 CAH         3.5900    3.7440   -6.3110 ca        1 QLW     -0.126000
     16 CAT         4.9100    4.1900   -6.1740 ca        1 QLW     -0.029300
     17 CAQ         5.2970    5.5600   -6.6070 c3        1 QLW     -0.050100
     18 CAP         6.1330    5.5310   -7.8780 c3        1 QLW     -0.028100
     19 CAS         6.5250    6.9050   -8.2930 ca        1 QLW     -0.095300
     20 CAF         7.8310    7.3650   -8.0860 ca        1 QLW     -0.125500
     21 CAD         8.1950    8.6490   -8.4870 ca        1 QLW     -0.124000
     22 CAC         7.2600    9.4840   -9.0990 ca        1 QLW     -0.122000
     23 CAE         5.9570    9.0300   -9.3090 ca        1 QLW     -0.124000
     24 CAG         5.5910    7.7470   -8.9090 ca        1 QLW     -0.125500
     25 HAA1        0.0220   -1.1390    1.4550 h1        1 QLW      0.071367
     26 HAA2       -0.5190   -0.9230   -0.2740 h1        1 QLW      0.071367
     27 HAA3        0.6910   -2.2310    0.1550 h1        1 QLW      0.071367
     28 HAB1        1.7820    1.6410    1.0300 h1        1 QLW      0.071367
     29 HAB2        1.3160    0.3130    2.1920 h1        1 QLW      0.071367
     30 HAB3        2.9910    0.3340    1.4670 h1        1 QLW      0.071367
     31 HAM         0.7400   -1.6430   -2.0870 ha        1 QLW      0.184000
     32 HAL         3.4890    1.4170   -0.5250 ha        1 QLW      0.184000
     33 HAO         1.8250   -1.3720   -4.2950 h4        1 QLW      0.200500
     34 HAN         4.4670    1.5760   -2.8050 h4        1 QLW      0.200500
     35 HAR1        4.7440   -0.4410   -4.9420 h1        1 QLW      0.089200
     36 HAR2        3.1020   -0.2090   -5.7220 h1        1 QLW      0.089200
     37 HAK         6.2790    1.3770   -4.7890 ha        1 QLW      0.136500
     38 HAJ         2.1920    2.1200   -6.0270 ha        1 QLW      0.136500
     39 HAI         6.9100    3.6710   -5.5160 ha        1 QLW      0.153000
     40 HAH         2.8290    4.4100   -6.7500 ha        1 QLW      0.153000
     41 HAQ1        5.8850    6.0550   -5.7870 hc        1 QLW      0.064700
     42 HAQ2        4.3810    6.1860   -6.7840 hc        1 QLW      0.064700
     43 HAP1        7.0480    4.9020   -7.7050 hc        1 QLW      0.052200
     44 HAP2        5.5440    5.0450   -8.7010 hc        1 QLW      0.052200
     45 HAF         8.5740    6.7090   -7.6090 ha        1 QLW      0.128500
     46 HAG         4.5650    7.3890   -9.0820 ha        1 QLW      0.128500
     47 HAD         9.2240    9.0030   -8.3230 ha        1 QLW      0.137000
     48 HAC         7.5490   10.4960   -9.4170 ha        1 QLW      0.139000
     49 HAE         5.2190    9.6850   -9.7950 ha        1 QLW      0.137000
@<TRIPOS>BOND
     1    1    2 1   
     2    1   25 1   
     3    1   26 1   
     4    1   27 1   
     5    2    3 1   
     6    2    4 2   
     7    3   28 1   
     8    3   29 1   
     9    3   30 1   
    10    4    5 1   
    11    4    7 1   
    12    5    6 2   
    13    5   31 1   
    14    6    9 1   
    15    6   33 1   
    16    7    8 2   
    17    7   32 1   
    18    8    9 1   
    19    8   34 1   
    20    9   10 1   
    21   10   11 1   
    22   10   35 1   
    23   10   36 1   
    24   11   12 ar  
    25   11   14 ar  
    26   12   13 ar  
    27   12   37 1   
    28   13   16 ar  
    29   13   39 1   
    30   14   15 ar  
    31   14   38 1   
    32   15   16 ar  
    33   15   40 1   
    34   16   17 1   
    35   17   18 1   
    36   17   41 1   
    37   17   42 1   
    38   18   19 1   
    39   18   43 1   
    40   18   44 1   
    41   19   20 ar  
    42   19   24 ar  
    43   20   21 ar  
    44   20   45 1   
    45   21   22 ar  
    46   21   47 1   
    47   22   23 ar  
    48   22   48 1   
    49   23   24 ar  
    50   23   49 1   
    51   24   46 1   
@<TRIPOS>SUBSTRUCTURE
     1 QLW         1 TEMP              0 ****  ****    0 ROOT
