@<TRIPOS>MOLECULE
QLW
   49    51     1     0     0
SMALL
bcc


@<TRIPOS>ATOM
      1 CAA         0.1340    0.5450    0.2390 c3        1 QLW     -0.002400
      2 NAW         1.3270   -0.2560    0.0970 nh        1 QLW     -0.227100
      3 CAB         1.6740   -1.1850    1.1470 c3        1 QLW     -0.002400
      4 CAV         2.1100   -0.1380   -1.0060 cc        1 QLW      0.431900
      5 CAM         1.7960    0.7740   -2.0710 cc        1 QLW     -0.329600
      6 CAO         2.6160    0.8700   -3.1780 cd        1 QLW      0.121500
      7 CAL         3.3050   -0.9170   -1.1810 cc        1 QLW     -0.329600
      8 CAN         4.0790   -0.7710   -2.3150 cd        1 QLW      0.121500
      9 NAX         3.7510    0.1090   -3.3170 na        1 QLW     -0.433200
     10 CAR         4.5860    0.2130   -4.5220 c3        1 QLW      0.245100
     11 CAU         4.7360    1.6090   -5.0330 ca        1 QLW     -0.173300
     12 CAK         5.6940    2.4630   -4.4760 ca        1 QLW     -0.102500
     13 CAI         5.8690    3.7450   -4.9900 ca        1 QLW     -0.126000
     14 CAJ         3.9570    2.0480   -6.1100 ca        1 QLW     -0.102500
     15 CAH         4.1360    3.3290   -6.6230 ca        1 QLW     -0.126000
     16 CAT         5.0940    4.1910   -6.0680 ca        1 QLW     -0.029300
     17 CAQ         5.2750    5.5610   -6.6180 c3        1 QLW     -0.050100
     18 CAP         5.9570    5.5320   -7.9790 c3        1 QLW     -0.028100
     19 CAS         6.1210    6.9070   -8.5250 ca        1 QLW     -0.095300
     20 CAF         7.1250    7.7460   -8.0270 ca        1 QLW     -0.125500
     21 CAD         7.2890    9.0300   -8.5440 ca        1 QLW     -0.124000
     22 CAC         6.4520    9.4860   -9.5630 ca        1 QLW     -0.122000
     23 CAE         5.4510    8.6530  -10.0640 ca        1 QLW     -0.124000
     24 CAG         5.2850    7.3690   -9.5480 ca        1 QLW     -0.125500
     25 HAA1       -0.5780    0.3300   -0.6040 h1        1 QLW      0.071367
     26 HAA2        0.3990    1.6370    0.2300 h1        1 QLW      0.071367
     27 HAA3       -0.3760    0.3080    1.2100 h1        1 QLW      0.071367
     28 HAB1        2.6790   -0.9240    1.5770 h1        1 QLW      0.071367
     29 HAB2        1.7050   -2.2330    0.7410 h1        1 QLW      0.071367
     30 HAB3        0.9100   -1.1410    1.9680 h1        1 QLW      0.071367
     31 HAM         0.9010    1.4150   -2.0250 ha        1 QLW      0.184000
     32 HAL         3.6250   -1.6430   -0.4170 ha        1 QLW      0.184000
     33 HAO         2.3930    1.5750   -4.0080 h4        1 QLW      0.200500
     34 HAN         5.0020   -1.3710   -2.4570 h4        1 QLW      0.200500
     35 HAR1        4.1100   -0.4410   -5.3110 h1        1 QLW      0.089200
     36 HAR2        5.6030   -0.2090   -4.2740 h1        1 QLW      0.089200
     37 HAK         6.3190    2.1210   -3.6370 ha        1 QLW      0.136500
     38 HAJ         3.2130    1.3770   -6.5660 ha        1 QLW      0.136500
     39 HAI         6.6280    4.4110   -4.5490 ha        1 QLW      0.153000
     40 HAH         3.5280    3.6700   -7.4760 ha        1 QLW      0.153000
     41 HAQ1        4.2710    6.0560   -6.7170 hc        1 QLW      0.064700
     42 HAQ2        5.8870    6.1860   -5.9130 hc        1 QLW      0.064700
     43 HAP1        5.3500    4.9040   -8.6840 hc        1 QLW      0.052200
     44 HAP2        6.9650    5.0460   -7.8800 hc        1 QLW      0.052200
     45 HAF         7.7900    7.3860   -7.2280 ha        1 QLW      0.128500
     46 HAG         4.4980    6.7150   -9.9520 ha        1 QLW      0.128500
     47 HAD         8.0810    9.6830   -8.1490 ha        1 QLW      0.137000
     48 HAC         6.5830   10.4990   -9.9720 ha        1 QLW      0.139000
     49 HAE         4.7920    9.0090  -10.8700 ha        1 QLW      0.137000
@<TRIPOS>BOND
     1    1    2 1   
     2    1   25 1   
     3    1   26 1   
     4    1   27 1   
     5    2    3 1   
     6    2    4 2   
     7    3   28 1   
     8    3   29 1   
     9    3   30 1   
    10    4    5 1   
    11    4    7 1   
    12    5    6 2   
    13    5   31 1   
    14    6    9 1   
    15    6   33 1   
    16    7    8 2   
    17    7   32 1   
    18    8    9 1   
    19    8   34 1   
    20    9   10 1   
    21   10   11 1   
    22   10   35 1   
    23   10   36 1   
    24   11   12 ar  
    25   11   14 ar  
    26   12   13 ar  
    27   12   37 1   
    28   13   16 ar  
    29   13   39 1   
    30   14   15 ar  
    31   14   38 1   
    32   15   16 ar  
    33   15   40 1   
    34   16   17 1   
    35   17   18 1   
    36   17   41 1   
    37   17   42 1   
    38   18   19 1   
    39   18   43 1   
    40   18   44 1   
    41   19   20 ar  
    42   19   24 ar  
    43   20   21 ar  
    44   20   45 1   
    45   21   22 ar  
    46   21   47 1   
    47   22   23 ar  
    48   22   48 1   
    49   23   24 ar  
    50   23   49 1   
    51   24   46 1   
@<TRIPOS>SUBSTRUCTURE
     1 QLW         1 TEMP              0 ****  ****    0 ROOT
