@<TRIPOS>MOLECULE
QLZ
   46    47     1     0     0
SMALL
bcc


@<TRIPOS>ATOM
      1 N1          3.2730   -2.2370   -1.6490 nb        1 QLZ     -0.835000
      2 C2          4.3860   -1.4210   -1.6980 ca        1 QLZ      0.915900
      3 N3          4.4530   -0.1080   -1.2380 nb        1 QLZ     -0.791000
      4 C4          3.3450    0.3860   -0.6590 ca        1 QLZ      0.540600
      5 C5          2.1510   -0.3700   -0.5190 ca        1 QLZ     -0.347600
      6 C6          2.1620   -1.7170   -1.0360 ca        1 QLZ      0.752200
      7 CAA         4.3830    4.0410    0.0300 c3        1 QLZ     -0.095100
      8 CAB        -4.9500   -2.5390   -1.8850 c3        1 QLZ      0.114700
      9 CAC        -4.5130    1.8530    3.5420 c3        1 QLZ      0.114700
     10 NAD         5.5610   -1.9780   -2.2100 nh        1 QLZ     -0.932500
     11 NAE         1.0500   -2.5160   -0.9020 nh        1 QLZ     -0.962500
     12 CAF         0.0170    0.5940    0.6030 c1        1 QLZ     -0.153100
     13 CAG         1.0090    0.1570    0.0870 cg        1 QLZ     -0.089000
     14 CAH        -4.8820   -0.8020    0.3160 ca        1 QLZ     -0.172000
     15 CAI        -4.7920    0.0950    1.3820 ca        1 QLZ     -0.165000
     16 CAJ        -2.5180   -0.4450   -0.1650 ca        1 QLZ     -0.123000
     17 CAK         4.5250    2.6410   -0.5130 c3        1 QLZ     -0.072400
     18 CAL        -1.1430    1.1350    1.2430 c3        1 QLZ      0.056000
     19 CAM         3.3380    1.7900   -0.1190 c3        1 QLZ     -0.137700
     20 CAT        -3.7480   -1.0690   -0.4520 ca        1 QLZ      0.094100
     21 CAU        -2.4190    0.4440    0.8980 ca        1 QLZ     -0.062300
     22 CAW        -3.5750    0.7130    1.6730 ca        1 QLZ      0.088100
     23 HAA         3.4630    4.5310   -0.3710 hc        1 QLZ      0.032033
     24 HAAA        4.3150    4.0280    1.1450 hc        1 QLZ      0.032033
     25 HAAB        5.2670    4.6580   -0.2620 hc        1 QLZ      0.032033
     26 HAB        -5.7010   -1.7580   -2.1570 h1        1 QLZ      0.043700
     27 HABA       -4.6900   -3.1640   -2.7770 h1        1 QLZ      0.043700
     28 HABB       -5.3360   -3.1800   -1.0550 h1        1 QLZ      0.043700
     29 HAC        -5.3490    2.3120    2.9620 h1        1 QLZ      0.044033
     30 HACA       -4.8470    0.9050    4.0300 h1        1 QLZ      0.044033
     31 HACB       -4.1220    2.5730    4.3050 h1        1 QLZ      0.044033
     32 HNAD        5.4730   -2.8080   -2.7460 hn        1 QLZ      0.429300
     33 HNAA        6.2790   -1.3460   -2.4760 hn        1 QLZ      0.429300
     34 HNAE        1.0130   -3.4020   -1.3420 hn        1 QLZ      0.441800
     35 HNAB        0.2090   -2.0990   -0.5850 hn        1 QLZ      0.441800
     36 HAH        -5.8450   -1.2840    0.0980 ha        1 QLZ      0.139000
     37 HAI        -5.6890    0.3030    1.9820 ha        1 QLZ      0.139000
     38 HAJ        -1.6420   -0.6670   -0.7940 ha        1 QLZ      0.153000
     39 HAK         4.6100    2.6780   -1.6310 hc        1 QLZ      0.052200
     40 HAKA        5.4710    2.1820   -0.1240 hc        1 QLZ      0.052200
     41 HAL        -1.0040    1.0950    2.3650 hc        1 QLZ      0.078700
     42 HALA       -1.2480    2.2270    0.9710 hc        1 QLZ      0.078700
     43 HAM         2.3900    2.2850   -0.4650 hc        1 QLZ      0.064700
     44 HAMA        3.2860    1.7140    1.0020 hc        1 QLZ      0.064700
     45 OAP        -3.7110   -1.9440   -1.5240 os        1 QLZ     -0.330900
     46 OAQ        -3.3890    1.6200    2.7030 os        1 QLZ     -0.329900
@<TRIPOS>BOND
     1    1    2 ar  
     2    1    6 ar  
     3    2    3 ar  
     4    2   10 1   
     5    3    4 ar  
     6    4    5 ar  
     7    4   19 1   
     8    5    6 ar  
     9    5   13 1   
    10    6   11 1   
    11    7   17 1   
    12    7   23 1   
    13    7   24 1   
    14    7   25 1   
    15    8   26 1   
    16    8   27 1   
    17    8   28 1   
    18    8   45 1   
    19    9   29 1   
    20    9   30 1   
    21    9   31 1   
    22    9   46 1   
    23   10   32 1   
    24   10   33 1   
    25   11   34 1   
    26   11   35 1   
    27   12   13 3   
    28   12   18 1   
    29   14   15 ar  
    30   14   20 ar  
    31   14   36 1   
    32   15   22 ar  
    33   15   37 1   
    34   16   20 ar  
    35   16   21 ar  
    36   16   38 1   
    37   17   19 1   
    38   17   39 1   
    39   17   40 1   
    40   18   21 1   
    41   18   41 1   
    42   18   42 1   
    43   19   43 1   
    44   19   44 1   
    45   20   45 1   
    46   21   22 ar  
    47   22   46 1   
@<TRIPOS>SUBSTRUCTURE
     1 QLZ         1 TEMP              0 ****  ****    0 ROOT
