@<TRIPOS>MOLECULE
QLZ
   48    49     1     0     0
SMALL
bcc


@<TRIPOS>ATOM
      1 N1         -0.0200   -0.6140    0.4270 nb        1 QLZ     -0.660000
      2 C2          1.2790   -0.2210    0.3730 ca        1 QLZ      0.722900
      3 N3          2.0220    0.3720    1.3760 nb        1 QLZ     -0.636000
      4 C4          1.4010    0.5920    2.5460 ca        1 QLZ      0.535600
      5 C5          0.0120    0.2210    2.7340 ca        1 QLZ     -0.020600
      6 C6         -0.6410   -0.3820    1.6260 ca        1 QLZ      0.474200
      7 CAA         4.1510    2.2340    4.6900 c3        1 QLZ     -0.105100
      8 CAB        -7.6890    3.4660    5.9260 c3        1 QLZ      0.104700
      9 CAC        -3.9010   -2.3790    4.8990 c3        1 QLZ      0.118700
     10 NAD         2.0020   -0.4490   -0.9120 n4        1 QLZ     -0.813300
     11 NAE        -2.0540   -0.7800    1.7560 n4        1 QLZ     -0.821300
     12 CAF        -1.3440    0.5770    4.9110 c1        1 QLZ      0.161900
     13 CAG        -0.6790    0.4270    3.9160 cg        1 QLZ     -0.325000
     14 CAH        -6.3510    1.2160    4.8720 ca        1 QLZ     -0.176000
     15 CAI        -5.6410    0.1050    4.4250 ca        1 QLZ     -0.099000
     16 CAJ        -4.3490    2.0040    6.0350 ca        1 QLZ     -0.134000
     17 CAK         3.5570    1.6050    3.4540 c3        1 QLZ     -0.075400
     18 CAL        -2.2240    0.7070    6.0330 c3        1 QLZ     -0.001000
     19 CAM         2.1110    1.2280    3.7020 c3        1 QLZ     -0.153700
     20 CAT        -5.7050    2.1670    5.6760 ca        1 QLZ      0.161100
     21 CAU        -3.6430    0.8870    5.5950 ca        1 QLZ     -0.082300
     22 CAW        -4.2960   -0.0520    4.7740 ca        1 QLZ      0.014100
     23 HAA         3.5960    3.1610    4.9730 hc        1 QLZ      0.056367
     24 HAAA        4.1220    1.5250    5.5530 hc        1 QLZ      0.056367
     25 HAAB        5.2180    2.5090    4.4980 hc        1 QLZ      0.056367
     26 HAB        -7.9260    4.4230    6.4610 h1        1 QLZ      0.063700
     27 HABA       -8.2640    2.6140    6.3620 h1        1 QLZ      0.063700
     28 HABB       -7.8860    3.5650    4.8310 h1        1 QLZ      0.063700
     29 HAC        -4.9910   -2.5960    4.7920 h1        1 QLZ      0.057033
     30 HACA       -3.6160   -2.3330    5.9780 h1        1 QLZ      0.057033
     31 HACB       -3.2840   -3.1350    4.3540 h1        1 QLZ      0.057033
     32 HNAD        2.3370    0.4580   -1.2740 hn        1 QLZ      0.495800
     33 HNAA        1.3830   -0.8890   -1.6070 hn        1 QLZ      0.495800
     34 HNAE       -2.2450   -1.0370    2.7480 hn        1 QLZ      0.495467
     35 HNAB       -2.2810   -1.5760    1.1460 hn        1 QLZ      0.495467
     36 HAH        -7.4110    1.3330    4.6000 ha        1 QLZ      0.168000
     37 HAI        -6.1420   -0.6590    3.8090 ha        1 QLZ      0.152000
     38 HAJ        -3.8770    2.7640    6.6770 ha        1 QLZ      0.172000
     39 HAK         3.6240    2.3270    2.5980 hc        1 QLZ      0.057700
     40 HAKA        4.1500    0.6940    3.1770 hc        1 QLZ      0.057700
     41 HAL        -2.1480   -0.2290    6.6670 hc        1 QLZ      0.122700
     42 HALA       -1.8940    1.5730    6.6800 hc        1 QLZ      0.122700
     43 HAM         1.5240    2.1470    3.9900 hc        1 QLZ      0.103200
     44 HAMA        2.0510    0.5080    4.5680 hc        1 QLZ      0.103200
     45 OAQ        -3.5810   -1.1360    4.2570 os        1 QLZ     -0.447900
     46 HAD3        2.8140   -1.0610   -0.7360 hn        1 QLZ      0.495800
     47 HAE3       -2.6560    0.0180    1.5080 hn        1 QLZ      0.495467
     48 OAP        -6.2900    3.3040    6.1670 os        1 QLZ     -0.307900
@<TRIPOS>BOND
     1    1    2 ar  
     2    1    6 ar  
     3    2    3 ar  
     4    2   10 1   
     5    3    4 ar  
     6    4    5 ar  
     7    4   19 1   
     8    5    6 ar  
     9    5   13 1   
    10    6   11 1   
    11    7   17 1   
    12    7   23 1   
    13    7   24 1   
    14    7   25 1   
    15    8   26 1   
    16    8   27 1   
    17    8   28 1   
    18    8   48 1   
    19    9   29 1   
    20    9   30 1   
    21    9   31 1   
    22    9   45 1   
    23   10   32 1   
    24   10   33 1   
    25   10   46 1   
    26   11   34 1   
    27   11   35 1   
    28   11   47 1   
    29   12   13 3   
    30   12   18 1   
    31   14   15 ar  
    32   14   20 ar  
    33   14   36 1   
    34   15   22 ar  
    35   15   37 1   
    36   16   20 ar  
    37   16   21 ar  
    38   16   38 1   
    39   17   19 1   
    40   17   39 1   
    41   17   40 1   
    42   18   21 1   
    43   18   41 1   
    44   18   42 1   
    45   19   43 1   
    46   19   44 1   
    47   20   48 1   
    48   21   22 ar  
    49   22   45 1   
@<TRIPOS>SUBSTRUCTURE
     1 QLZ         1 TEMP              0 ****  ****    0 ROOT
