@<TRIPOS>MOLECULE
QLZ
   46    47     1     0     0
SMALL
bcc


@<TRIPOS>ATOM
      1 N1          0.0950   -0.0830    0.0640 nb        1 QLZ     -0.833000
      2 C2          1.4750   -0.1540    0.0820 ca        1 QLZ      0.919900
      3 N3          2.2810    0.0080    1.2050 nb        1 QLZ     -0.793000
      4 C4          1.6580    0.3080    2.3610 ca        1 QLZ      0.543600
      5 C5          0.2490    0.4330    2.4600 ca        1 QLZ     -0.345600
      6 C6         -0.5170    0.2040    1.2560 ca        1 QLZ      0.749200
      7 CAA         4.1580    1.9680    4.7450 c3        1 QLZ     -0.094100
      8 CAB        -7.4950    2.7570    6.4870 c3        1 QLZ      0.112700
      9 CAC        -3.2530   -4.1020    7.2330 c3        1 QLZ      0.116700
     10 NAD         2.1170   -0.3520   -1.1410 nv        1 QLZ     -0.934500
     11 NAE        -1.8950    0.2250    1.3000 nv        1 QLZ     -0.954500
     12 CAF        -0.9660    1.0380    4.6730 c1        1 QLZ     -0.156100
     13 CAG        -0.3970    0.7580    3.6550 cg        1 QLZ     -0.056000
     14 CAH        -5.2670    1.0620    6.4930 ca        1 QLZ     -0.219000
     15 CAI        -4.1310    0.2010    6.5060 ca        1 QLZ     -0.016000
     16 CAJ        -3.9050    3.0500    5.8440 ca        1 QLZ     -0.067000
     17 CAK         3.3650    1.7490    3.4810 c3        1 QLZ     -0.075400
     18 CAL        -1.6230    1.3690    5.8850 cx        1 QLZ      0.191000
     19 CAM         2.5090    0.5010    3.5880 c3        1 QLZ     -0.138700
     20 CAT        -5.1550    2.4160    6.1780 ca        1 QLZ      0.120100
     21 CAU        -2.8640    2.1890    5.8830 ca        1 QLZ     -0.168300
     22 CAW        -2.9670    0.8250    6.2010 ca        1 QLZ     -0.226300
     23 HAA         3.4790    2.0930    5.6220 hc        1 QLZ      0.033367
     24 HAAA        4.8310    1.0990    4.9430 hc        1 QLZ      0.033367
     25 HAAB        4.7850    2.8870    4.6500 hc        1 QLZ      0.033367
     26 HAB        -7.4890    2.3580    7.5310 h1        1 QLZ      0.045033
     27 HABA       -8.1790    3.6400    6.4050 h1        1 QLZ      0.045033
     28 HABB       -7.7930    1.9590    5.7650 h1        1 QLZ      0.045033
     29 HAC        -2.2790   -3.7180    7.6260 h1        1 QLZ      0.029700
     30 HACA       -3.9520   -4.3150    8.0800 h1        1 QLZ      0.029700
     31 HACB       -3.0790   -5.0330    6.6370 h1        1 QLZ      0.029700
     32 HNAD        1.5690   -0.6900   -1.8960 hn        1 QLZ      0.432800
     33 HNAA        3.0710   -0.6250   -1.1140 hn        1 QLZ      0.432800
     34 HNAE       -2.4140    0.2110    0.4570 hn        1 QLZ      0.439300
     35 HNAB       -2.3210    0.6070    2.1100 hn        1 QLZ      0.439300
     36 HAH        -6.2430    0.6220    6.7390 ha        1 QLZ      0.140000
     37 HAI        -4.2370   -0.8670    6.7460 ha        1 QLZ      0.165000
     38 HAJ        -3.8690    4.1160    5.5960 ha        1 QLZ      0.160000
     39 HAK         2.7080    2.6390    3.2900 hc        1 QLZ      0.051700
     40 HAKA        4.0630    1.6550    2.6080 hc        1 QLZ      0.051700
     41 HAL        -3.3240   -2.9150    5.7120 ho        1 QLZ      0.403000
     42 HALA       -0.9050    1.5150    6.7290 hc        1 QLZ      0.095700
     43 HAM         1.8480    0.5730    4.4920 hc        1 QLZ      0.063700
     44 HAMA        3.1710   -0.3960    3.7260 hc        1 QLZ      0.063700
     45 OAP        -6.2220    3.2930    6.1460 os        1 QLZ     -0.329900
     46 OAQ        -3.9030   -3.1210    6.4550 oh        1 QLZ     -0.607800
@<TRIPOS>BOND
     1    1    2 ar  
     2    1    6 ar  
     3    2    3 ar  
     4    2   10 1   
     5    3    4 ar  
     6    4    5 ar  
     7    4   19 1   
     8    5    6 ar  
     9    5   13 1   
    10    6   11 1   
    11    7   17 1   
    12    7   23 1   
    13    7   24 1   
    14    7   25 1   
    15    8   26 1   
    16    8   27 1   
    17    8   28 1   
    18    8   45 1   
    19    9   29 1   
    20    9   30 1   
    21    9   31 1   
    22    9   46 1   
    23   10   32 1   
    24   10   33 1   
    25   11   34 1   
    26   11   35 1   
    27   12   13 3   
    28   12   18 1   
    29   14   15 ar  
    30   14   20 ar  
    31   14   36 1   
    32   15   22 ar  
    33   15   37 1   
    34   16   20 ar  
    35   16   21 ar  
    36   16   38 1   
    37   17   19 1   
    38   17   39 1   
    39   17   40 1   
    40   18   21 1   
    41   18   22 1   
    42   18   42 1   
    43   19   43 1   
    44   19   44 1   
    45   20   45 1   
    46   21   22 ar  
    47   41   46 1   
@<TRIPOS>SUBSTRUCTURE
     1 QLZ         1 TEMP              0 ****  ****    0 ROOT
