@<TRIPOS>MOLECULE
QLZ
   46    41     1     0     0
SMALL
bcc


@<TRIPOS>ATOM
      1 N1          2.8170   -0.7900   -3.0660 n1        1 QLZ     -0.305000
      2 C2          2.0500   -0.5510   -4.1660 c1        1 QLZ      0.193000
      3 N3          0.6920   -0.5050   -4.0550 n1        1 QLZ     -0.266000
      4 C4          0.1090   -0.6960   -2.8620 c1        1 QLZ      0.117000
      5 C5          0.8770   -0.9360   -1.7590 c1        1 QLZ     -0.200000
      6 C6          2.2370   -0.9820   -1.8720 c2        1 QLZ      0.222000
      7 CAA        -2.8000   -1.7370   -4.5190 c3        1 QLZ     -0.212000
      8 CAB         3.2170    2.3880    3.5870 c3        1 QLZ     -0.076000
      9 CAC        -3.6680    1.2780    3.1880 c3        1 QLZ     -0.075000
     10 NAD         2.6670   -0.2910   -5.4180 n3        1 QLZ     -0.327000
     11 NAE         3.3650   -1.4980   -1.1840 n3        1 QLZ     -0.353000
     12 CAF        -0.2850   -1.1460    0.6780 c1        1 QLZ     -0.135500
     13 CAG         0.2270   -1.0540   -0.3960 c1        1 QLZ     -0.135500
     14 CAH         0.3470    1.8830    4.6510 c1        1 QLZ     -0.172000
     15 CAI        -1.0050    1.6710    4.4330 c1        1 QLZ     -0.166000
     16 CAJ         0.8710    0.0970    3.1350 c1        1 QLZ     -0.125000
     17 CAK        -2.0080   -0.5090   -4.1240 c3        1 QLZ     -0.150000
     18 CAL        -0.9350   -1.2640    2.0400 c2        1 QLZ     -0.004000
     19 CAM        -1.3990   -0.7200   -2.7530 c3        1 QLZ     -0.122000
     20 OAP         2.6550    1.2810    4.2570 os        1 QLZ     -0.213000
     21 OAQ        -2.7550    0.5610    3.9890 os        1 QLZ     -0.214000
     22 CAT         1.2860    1.0960    4.0010 c1        1 QLZ      0.049000
     23 CAU        -0.4810   -0.1160    2.9170 c2        1 QLZ     -0.056000
     24 CAW        -1.4190    0.6720    3.5670 c2        1 QLZ      0.045000
     25 HAA        -2.3580   -2.1820   -5.2730 hc        1 QLZ      0.073667
     26 HAAA       -2.8470   -2.3540   -3.7590 hc        1 QLZ      0.073667
     27 HAAB       -3.7060   -1.4710   -4.7810 hc        1 QLZ      0.073667
     28 HAB         3.1650    2.2440    2.6170 h1        1 QLZ      0.083000
     29 HABA        2.7200    3.2000    3.8240 h1        1 QLZ      0.083000
     30 HABB        4.1560    2.4890    3.8530 h1        1 QLZ      0.083000
     31 HAC        -4.5850    1.0120    3.4190 h1        1 QLZ      0.083333
     32 HACA       -3.5570    2.2400    3.3470 h1        1 QLZ      0.083333
     33 HACB       -3.4990    1.0810    2.2420 h1        1 QLZ      0.083333
     34 HNAD        3.3310   -0.8400   -5.7220 hn        1 QLZ      0.222500
     35 HNAA        2.4150    0.4370   -5.9090 hn        1 QLZ      0.222500
     36 HNAE        3.2950   -1.7370   -0.3040 hn        1 QLZ      0.233000
     37 HNAB        4.1650   -1.5840   -1.6180 hn        1 QLZ      0.233000
     38 HAH         0.6390    2.5870    5.2610 ha        1 QLZ      0.139000
     39 HAI        -1.6650    2.2260    4.8900 ha        1 QLZ      0.139000
     40 HAJ         1.5320   -0.4570    2.6780 ha        1 QLZ      0.156000
     41 HAK        -1.2960   -0.3560   -4.7770 hc        1 QLZ      0.087000
     42 HAKA       -2.6010    0.2680   -4.1010 hc        1 QLZ      0.087000
     43 HAL        -1.9080   -1.2340    1.9410 ha        1 QLZ      0.118000
     44 HALA       -0.6750   -2.1120    2.4530 ha        1 QLZ      0.118000
     45 HAM        -1.6870   -1.5840   -2.3980 hc        1 QLZ      0.102000
     46 HAMA       -1.6940   -0.0060   -2.1520 hc        1 QLZ      0.102000
@<TRIPOS>BOND
     1    1    6 1   
     2    2    3 1   
     3    2   10 1   
     4    4    5 1   
     5    4   19 1   
     6    5    6 1   
     7    6   11 1   
     8    7   17 1   
     9    7   25 1   
    10    7   26 1   
    11    7   27 1   
    12    8   20 1   
    13    8   28 1   
    14    8   29 1   
    15    8   30 1   
    16    9   21 1   
    17    9   31 1   
    18    9   32 1   
    19    9   33 1   
    20   10   34 1   
    21   10   35 1   
    22   11   36 1   
    23   11   37 1   
    24   12   13 1   
    25   14   22 1   
    26   14   38 1   
    27   15   24 1   
    28   15   39 1   
    29   16   23 1   
    30   16   40 1   
    31   17   19 1   
    32   17   41 1   
    33   17   42 1   
    34   18   23 1   
    35   18   43 1   
    36   18   44 1   
    37   19   45 1   
    38   19   46 1   
    39   20   22 1   
    40   21   24 1   
    41   23   24 1   
@<TRIPOS>SUBSTRUCTURE
     1 QLZ         1 TEMP              0 ****  ****    0 ROOT
