@<TRIPOS>MOLECULE
QMI
   33    34     1     0     0
SMALL
bcc


@<TRIPOS>ATOM
      1 ClJ         0.1560    0.6460   -0.2380 cl        1 QMI     -0.046400
      2 CAE         1.7890    0.1850   -0.0800 ca        1 QMI      0.116400
      3 CAD         2.2730    0.1240    1.2280 ca        1 QMI     -0.134500
      4 CAC         3.6120   -0.2020    1.4520 ca        1 QMI      0.033100
      5 BrU         4.2770   -0.3000    3.1960 br        1 QMI     -0.053100
      6 CAB         4.4460   -0.4420    0.3640 ca        1 QMI     -0.134500
      7 CAA         3.9400   -0.3800   -0.9430 ca        1 QMI      0.116400
      8 ClI         5.0850   -0.6500   -2.1620 cl        1 QMI     -0.046400
      9 CAF         2.5880   -0.1000   -1.2080 ca        1 QMI     -0.302500
     10 SAG         1.8440   -0.1520   -2.7860 sy        1 QMI      1.492200
     11 OAH         2.7580   -0.5510   -3.7690 o         1 QMI     -0.632800
     12 OAT         0.7070   -0.9780   -2.6880 o         1 QMI     -0.632800
     13 NAK         1.3660    1.3780   -2.9960 nu        1 QMI     -0.745500
     14 CAL         2.1840    2.4330   -3.3670 cc        1 QMI     -0.077700
     15 CAP         2.5910    3.5370   -2.5720 cd        1 QMI     -0.088600
     16 CAR         2.2810    3.8500   -1.1690 c3        1 QMI     -0.036800
     17 NAO         3.3620    4.3520   -3.4130 na        1 QMI      0.097400
     18 CAQ         4.0270    5.5530   -2.9710 c3        1 QMI      0.039600
     19 NAN         3.4790    3.8430   -4.6500 nd        1 QMI     -0.506800
     20 CAM         2.7680    2.6840   -4.6860 cc        1 QMI      0.343600
     21 CAS         2.6260    1.8120   -5.8660 c3        1 QMI     -0.141400
     22 HAD         1.5990    0.3320    2.0750 ha        1 QMI      0.170000
     23 HAB         5.5120   -0.6830    0.5210 ha        1 QMI      0.170000
     24 HAK         0.4170    1.6440   -2.8470 hn        1 QMI      0.459800
     25 HAR1        3.2170    4.0400   -0.5860 hc        1 QMI      0.055367
     26 HAR2        1.7360    2.9930   -0.7010 hc        1 QMI      0.055367
     27 HAR3        1.6340    4.7620   -1.1030 hc        1 QMI      0.055367
     28 HAQ1        4.3380    6.1760   -3.8510 h1        1 QMI      0.059700
     29 HAQ2        4.9370    5.2820   -2.3710 h1        1 QMI      0.059700
     30 HAQ3        3.3200    6.1390   -2.3260 h1        1 QMI      0.059700
     31 HAS1        1.5420    1.7120   -6.1260 hc        1 QMI      0.064033
     32 HAS2        3.1690    2.2190   -6.7540 hc        1 QMI      0.064033
     33 HAS3        3.0330    0.7940   -5.6300 hc        1 QMI      0.064033
@<TRIPOS>BOND
     1    1    2 1   
     2    2    3 ar  
     3    2    9 ar  
     4    3    4 ar  
     5    3   22 1   
     6    4    5 1   
     7    4    6 ar  
     8    6    7 ar  
     9    6   23 1   
    10    7    8 1   
    11    7    9 ar  
    12    9   10 1   
    13   10   11 2   
    14   10   12 2   
    15   10   13 1   
    16   13   14 1   
    17   13   24 1   
    18   14   15 2   
    19   14   20 1   
    20   15   16 1   
    21   15   17 1   
    22   16   25 1   
    23   16   26 1   
    24   16   27 1   
    25   17   18 1   
    26   17   19 1   
    27   18   28 1   
    28   18   29 1   
    29   18   30 1   
    30   19   20 2   
    31   20   21 1   
    32   21   31 1   
    33   21   32 1   
    34   21   33 1   
@<TRIPOS>SUBSTRUCTURE
     1 QMI         1 TEMP              0 ****  ****    0 ROOT
