@<TRIPOS>MOLECULE
QMI
   33    34     1     0     0
SMALL
bcc


@<TRIPOS>ATOM
      1 CLJ         0.1640    0.6390   -0.2320 cl        1 QMI     -0.046400
      2 CAE         1.7980    0.1790   -0.0810 ca        1 QMI      0.116400
      3 CAD         2.2870    0.1160    1.2250 ca        1 QMI     -0.134000
      4 CAC         3.6270   -0.2090    1.4430 ca        1 QMI      0.033100
      5 BRU         4.2990   -0.3110    3.1850 br        1 QMI     -0.053100
      6 CAB         4.4570   -0.4460    0.3520 ca        1 QMI     -0.134000
      7 CAA         3.9460   -0.3810   -0.9540 ca        1 QMI      0.116400
      8 CLI         5.0870   -0.6480   -2.1780 cl        1 QMI     -0.046400
      9 CAF         2.5920   -0.1030   -1.2120 ca        1 QMI     -0.302500
     10 SAG         1.8430   -0.1510   -2.7880 sy        1 QMI      1.492200
     11 OAH         2.7530   -0.5480   -3.7750 o         1 QMI     -0.632800
     12 OAT         0.7070   -0.9790   -2.6880 o         1 QMI     -0.632800
     13 NAK         1.3630    1.3790   -2.9930 nh        1 QMI     -0.745500
     14 CAL         2.1790    2.4350   -3.3630 cc        1 QMI     -0.077700
     15 CAP         2.5870    3.5380   -2.5670 cd        1 QMI     -0.088600
     16 CAR         2.2800    3.8480   -1.1630 c3        1 QMI     -0.036800
     17 NAO         3.3550    4.3560   -3.4080 na        1 QMI      0.097400
     18 CAQ         4.0200    5.5570   -2.9650 c3        1 QMI      0.039600
     19 NAN         3.4700    3.8500   -4.6470 nd        1 QMI     -0.506800
     20 CAM         2.7600    2.6900   -4.6830 cc        1 QMI      0.343600
     21 CAS         2.6150    1.8210   -5.8650 c3        1 QMI     -0.141400
     22 HAD         1.6160    0.3210    2.0750 ha        1 QMI      0.170000
     23 HAB         5.5230   -0.6870    0.5050 ha        1 QMI      0.170000
     24 HAK         0.4140    1.6440   -2.8400 hn        1 QMI      0.459800
     25 HAR1        1.7360    2.9900   -0.6950 hc        1 QMI      0.055367
     26 HAR2        3.2180    4.0360   -0.5810 hc        1 QMI      0.055367
     27 HAR3        1.6340    4.7600   -1.0930 hc        1 QMI      0.055367
     28 HAQ1        4.9280    5.2850   -2.3620 h1        1 QMI      0.059700
     29 HAQ2        3.3110    6.1430   -2.3220 h1        1 QMI      0.059700
     30 HAQ3        4.3330    6.1790   -3.8450 h1        1 QMI      0.059700
     31 HAS1        3.0240    0.8030   -5.6320 hc        1 QMI      0.064033
     32 HAS2        1.5300    1.7210   -6.1220 hc        1 QMI      0.064033
     33 HAS3        3.1550    2.2300   -6.7530 hc        1 QMI      0.064033
@<TRIPOS>BOND
     1    1    2 1   
     2    2    3 ar  
     3    2    9 ar  
     4    3    4 ar  
     5    3   22 1   
     6    4    5 1   
     7    4    6 ar  
     8    6    7 ar  
     9    6   23 1   
    10    7    8 1   
    11    7    9 ar  
    12    9   10 1   
    13   10   11 2   
    14   10   12 2   
    15   10   13 1   
    16   13   14 1   
    17   13   24 1   
    18   14   15 2   
    19   14   20 1   
    20   15   16 1   
    21   15   17 1   
    22   16   25 1   
    23   16   26 1   
    24   16   27 1   
    25   17   18 1   
    26   17   19 1   
    27   18   28 1   
    28   18   29 1   
    29   18   30 1   
    30   19   20 2   
    31   20   21 1   
    32   21   31 1   
    33   21   32 1   
    34   21   33 1   
@<TRIPOS>SUBSTRUCTURE
     1 QMI         1 TEMP              0 ****  ****    0 ROOT
