@<TRIPOS>MOLECULE
QMI
   34    35     1     0     0
SMALL
bcc


@<TRIPOS>ATOM
      1 CLJ         0.0950    0.5390   -0.2010 cl        1 QMI     -0.008900
      2 CAE         1.7590    0.2030   -0.1040 ca        1 QMI      0.134400
      3 CAD         2.3070    0.1930    1.1720 ca        1 QMI     -0.130000
      4 CAC         3.6850   -0.0050    1.3420 ca        1 QMI      0.078100
      5 BRU         4.4240   -0.0510    3.0490 br        1 QMI      0.030900
      6 CAB         4.4890   -0.1490    0.2130 ca        1 QMI     -0.130000
      7 CAA         3.9260   -0.1440   -1.0690 ca        1 QMI      0.134400
      8 CLI         5.0230   -0.2840   -2.3440 cl        1 QMI     -0.008900
      9 CAF         2.5280   -0.0320   -1.2790 ca        1 QMI     -0.460500
     10 SAG         1.8020   -0.2910   -2.7320 sy        1 QMI      1.445200
     11 OAH         2.6040   -0.5380   -3.8220 o         1 QMI     -0.554300
     12 OAT         0.6200   -1.0040   -2.6480 o         1 QMI     -0.554300
     13 NAK         1.1090    1.4440   -3.0850 n4        1 QMI     -0.506300
     14 CAL         2.1100    2.4140   -3.3630 cc        1 QMI     -0.303700
     15 CAP         2.5630    3.4730   -2.5230 cd        1 QMI     -0.031600
     16 CAR         2.1530    3.8300   -1.1560 c3        1 QMI     -0.058800
     17 NAO         3.4980    4.1730   -3.2810 na        1 QMI      0.137400
     18 CAQ         4.2400    5.3170   -2.7890 c3        1 QMI      0.022600
     19 NAN         3.6510    3.6600   -4.5140 nd        1 QMI     -0.463800
     20 CAM         2.8140    2.5950   -4.6310 cc        1 QMI      0.385600
     21 CAS         2.6500    1.7660   -5.8390 c3        1 QMI     -0.157400
     22 HAD         1.6540    0.3400    2.0540 ha        1 QMI      0.196500
     23 HAB         5.5830   -0.2740    0.3230 ha        1 QMI      0.196500
     24 HAK         0.5300    1.7770   -2.3110 hn        1 QMI      0.451800
     25 HAR1        3.0450    4.0300   -0.5080 hc        1 QMI      0.072033
     26 HAR2        1.5220    4.7580   -1.1730 hc        1 QMI      0.072033
     27 HAR3        1.5590    3.0040   -0.6940 hc        1 QMI      0.072033
     28 HAQ1        4.7660    5.8350   -3.6370 h1        1 QMI      0.082367
     29 HAQ2        4.9980    4.9680   -2.0380 h1        1 QMI      0.082367
     30 HAQ3        3.5210    6.0270   -2.3010 h1        1 QMI      0.082367
     31 HAS1        3.0860    0.7470   -5.6660 hc        1 QMI      0.079033
     32 HAS2        1.5620    1.6620   -6.0800 hc        1 QMI      0.079033
     33 HAS3        3.1640    2.2210   -6.7240 hc        1 QMI      0.079033
     34 HAK2        0.4990    1.3830   -3.9080 hn        1 QMI      0.451800
@<TRIPOS>BOND
     1    1    2 1   
     2    2    3 ar  
     3    2    9 ar  
     4    3    4 ar  
     5    3   22 1   
     6    4    5 1   
     7    4    6 ar  
     8    6    7 ar  
     9    6   23 1   
    10    7    8 1   
    11    7    9 ar  
    12    9   10 1   
    13   10   11 2   
    14   10   12 2   
    15   10   13 1   
    16   13   14 1   
    17   13   24 1   
    18   13   34 1   
    19   14   15 2   
    20   14   20 1   
    21   15   16 1   
    22   15   17 1   
    23   16   25 1   
    24   16   26 1   
    25   16   27 1   
    26   17   18 1   
    27   17   19 1   
    28   18   28 1   
    29   18   29 1   
    30   18   30 1   
    31   19   20 2   
    32   20   21 1   
    33   21   31 1   
    34   21   32 1   
    35   21   33 1   
@<TRIPOS>SUBSTRUCTURE
     1 QMI         1 TEMP              0 ****  ****    0 ROOT
