@<TRIPOS>MOLECULE
QMI
   33    28     1     0     0
SMALL
bcc


@<TRIPOS>ATOM
      1 CLJ        -0.1590   -0.8920    3.2150 cl        1 QMI      0.047000
      2 CAE         1.5620   -0.8060    2.8080 c2        1 QMI      0.044000
      3 CAD         2.5070   -0.7180    3.8120 c2        1 QMI     -0.135000
      4 CAC         3.8510   -0.6880    3.4950 c1        1 QMI     -0.105000
      5 BRU         5.1560   -0.4830    4.8790 br        1 QMI      0.089000
      6 CAB         4.2520   -0.7450    2.1710 c2        1 QMI     -0.130000
      7 CAA         3.3150   -0.8310    1.1700 c1        1 QMI      0.025000
      8 CLI         3.8250   -0.9520   -0.4890 cl        1 QMI      0.025000
      9 CAF         1.9640   -0.8620    1.4840 c2        1 QMI     -0.753000
     10 SAG         0.7720   -1.2090    0.2020 s4        1 QMI      2.066800
     11 OAH        -0.3460   -1.9020    0.7090 o         1 QMI     -0.525900
     12 OAT         1.3020   -2.1920   -0.7660 o         1 QMI     -0.525900
     13 NAK         0.3160    0.1990   -0.5500 n2        1 QMI     -0.803000
     14 CAL        -0.9730    0.2760   -1.2370 c2        1 QMI     -0.112000
     15 CAP        -1.9770    1.1630   -0.9600 c1        1 QMI     -0.060000
     16 CAR        -1.9620    2.2500    0.1800 c2        1 QMI     -0.127000
     17 NAO        -2.9490    1.0000   -1.8930 n2        1 QMI     -0.096000
     18 CAQ        -4.1260    1.8020   -2.0270 c2        1 QMI     -0.127000
     19 NAN        -2.5500    0.0070   -2.7540 n2        1 QMI     -0.096000
     20 CAM        -1.3350   -0.4370   -2.3510 c1        1 QMI     -0.060000
     21 CAS        -0.5450   -1.5590   -2.9870 c2        1 QMI     -0.127000
     22 HAD         2.2290   -0.6610    4.7300 ha        1 QMI      0.171000
     23 HAB         5.1900   -0.7230    1.9510 ha        1 QMI      0.171000
     24 HAK         0.8220    0.9500   -0.4510 hn        1 QMI      0.250000
     25 HAR1       -1.0930    2.2840    0.5780 ha        1 QMI      0.099333
     26 HAR2       -2.1890    3.1520   -0.2120 ha        1 QMI      0.099333
     27 HAR3       -2.5980    2.0250    0.8360 ha        1 QMI      0.099333
     28 HAQ1       -3.8710    2.7170   -2.3440 ha        1 QMI      0.099333
     29 HAQ2       -4.5620    1.8680   -1.1890 ha        1 QMI      0.099333
     30 HAQ3       -4.7220    1.3960   -2.6660 ha        1 QMI      0.099333
     31 HAS1        0.4210   -1.3230   -2.9960 ha        1 QMI      0.099333
     32 HAS2       -0.6780   -2.4130   -2.4540 ha        1 QMI      0.099333
     33 HAS3       -0.8500   -1.6930   -3.8910 ha        1 QMI      0.099333
@<TRIPOS>BOND
     1    1    2 1   
     2    2    3 1   
     3    2    9 1   
     4    3    4 1   
     5    3   22 1   
     6    4    6 1   
     7    6    7 1   
     8    6   23 1   
     9    7    9 1   
    10    9   10 1   
    11   10   11 1   
    12   10   12 1   
    13   13   14 1   
    14   13   24 1   
    15   14   15 1   
    16   14   20 1   
    17   15   17 1   
    18   16   25 1   
    19   16   26 1   
    20   16   27 1   
    21   17   19 1   
    22   18   28 1   
    23   18   29 1   
    24   18   30 1   
    25   19   20 1   
    26   21   31 1   
    27   21   32 1   
    28   21   33 1   
@<TRIPOS>SUBSTRUCTURE
     1 QMI         1 TEMP              0 ****  ****    0 ROOT
