@<TRIPOS>MOLECULE
QMI
   33    34     1     0     0
SMALL
bcc


@<TRIPOS>ATOM
      1 CLJ         0.2830   -2.2640    1.8940 cl        1 QMI     -0.046400
      2 CAE         0.9610   -1.3130    0.6530 ca        1 QMI      0.116400
      3 CAD         2.2840   -0.9150    0.8540 ca        1 QMI     -0.134500
      4 CAC         2.9070   -0.0970   -0.0890 ca        1 QMI      0.033100
      5 BRU         4.6830    0.4370    0.1560 br        1 QMI     -0.053100
      6 CAB         2.1910    0.3250   -1.2050 ca        1 QMI     -0.134500
      7 CAA         0.8630   -0.0880   -1.3910 ca        1 QMI      0.116400
      8 CLI         0.1090    0.5440   -2.7710 cl        1 QMI     -0.046400
      9 CAF         0.2150   -0.9490   -0.4880 ca        1 QMI     -0.302500
     10 SAG        -1.3750   -1.6300   -0.7190 sy        1 QMI      1.492200
     11 OAH        -1.9230   -1.2450   -1.9480 o         1 QMI     -0.632800
     12 OAT        -1.2640   -3.0250   -0.5500 o         1 QMI     -0.632800
     13 NAK        -2.2010   -1.0140    0.5270 nh        1 QMI     -0.745500
     14 CAL        -2.7130    0.2720    0.5960 cc        1 QMI     -0.077700
     15 CAP        -2.2750    1.3370    1.4260 cd        1 QMI     -0.088600
     16 CAR        -1.1770    1.3770    2.4020 c3        1 QMI     -0.036800
     17 NAO        -3.1430    2.4070    1.1680 na        1 QMI      0.097400
     18 CAQ        -3.0010    3.7140    1.7620 c3        1 QMI      0.039600
     19 NAN        -4.0690    2.1030    0.2430 nd        1 QMI     -0.506800
     20 CAM        -3.8660    0.8100   -0.1290 cc        1 QMI      0.343600
     21 CAS        -4.6740    0.0750   -1.1190 c3        1 QMI     -0.141400
     22 HAD         2.8290   -1.2490    1.7530 ha        1 QMI      0.170000
     23 HAB         2.6630    0.9870   -1.9520 ha        1 QMI      0.170000
     24 HAK        -2.3750   -1.5560    1.3460 hn        1 QMI      0.459800
     25 HAR1       -0.4950    2.2420    2.2020 hc        1 QMI      0.055367
     26 HAR2       -1.5780    1.4800    3.4430 hc        1 QMI      0.055367
     27 HAR3       -0.5810    0.4320    2.3430 hc        1 QMI      0.055367
     28 HAQ1       -2.1520    4.2610    1.2700 h1        1 QMI      0.059700
     29 HAQ2       -3.9450    4.3080    1.6360 h1        1 QMI      0.059700
     30 HAQ3       -2.7770    3.5880    2.8540 h1        1 QMI      0.059700
     31 HAS1       -5.1260   -0.8270   -0.6350 hc        1 QMI      0.064033
     32 HAS2       -5.4970    0.7060   -1.5370 hc        1 QMI      0.064033
     33 HAS3       -4.0160   -0.2620   -1.9630 hc        1 QMI      0.064033
@<TRIPOS>BOND
     1    1    2 1   
     2    2    3 ar  
     3    2    9 ar  
     4    3    4 ar  
     5    3   22 1   
     6    4    5 1   
     7    4    6 ar  
     8    6    7 ar  
     9    6   23 1   
    10    7    8 1   
    11    7    9 ar  
    12    9   10 1   
    13   10   11 2   
    14   10   12 2   
    15   10   13 1   
    16   13   14 1   
    17   13   24 1   
    18   14   15 2   
    19   14   20 1   
    20   15   16 1   
    21   15   17 1   
    22   16   25 1   
    23   16   26 1   
    24   16   27 1   
    25   17   18 1   
    26   17   19 1   
    27   18   28 1   
    28   18   29 1   
    29   18   30 1   
    30   19   20 2   
    31   20   21 1   
    32   21   31 1   
    33   21   32 1   
    34   21   33 1   
@<TRIPOS>SUBSTRUCTURE
     1 QMI         1 TEMP              0 ****  ****    0 ROOT
