@<TRIPOS>MOLECULE
QMM
   25    24     1     0     0
SMALL
bcc


@<TRIPOS>ATOM
      1 C           3.0840   -0.1610    0.0760 c         1 QMM      0.891600
      2 CD         -1.9240   -0.4950   -0.0520 c         1 QMM      0.660100
      3 CG         -0.7230    0.3520    0.3050 c3        1 QMM     -0.139400
      4 N           1.7510    1.8450   -0.7390 n3        1 QMM     -0.896800
      5 OXT         3.1850   -1.1360    0.8680 o         1 QMM     -0.840800
      6 OE1        -1.8410   -1.6130   -0.5940 o         1 QMM     -0.607100
      7 NE2        -3.1950    0.0060    0.2710 n         1 QMM     -0.499800
      8 CH1        -3.3540    1.3530    0.7310 c3        1 QMM      0.085300
      9 CH2        -4.3780   -0.6820   -0.1510 c3        1 QMM      0.085300
     10 CA          1.7570    0.6700    0.1250 c3        1 QMM      0.012500
     11 CB          0.5820   -0.2740   -0.1390 c3        1 QMM     -0.056400
     12 O           3.9850    0.2110   -0.7290 o         1 QMM     -0.840800
     13 HG1        -0.8410    1.3630   -0.1710 hc        1 QMM      0.063700
     14 HG2        -0.7020    0.4980    1.4190 hc        1 QMM      0.063700
     15 H           2.6480    2.2920   -0.6360 hn        1 QMM      0.331800
     16 H2          1.7050    1.5340   -1.6940 hn        1 QMM      0.331800
     17 HH1        -3.1690    2.0940   -0.0950 h1        1 QMM      0.031867
     18 HH1A       -4.3980    1.5030    1.1150 h1        1 QMM      0.031867
     19 HH1B       -2.6340    1.5660    1.5650 h1        1 QMM      0.031867
     20 HH2        -4.1180   -1.7190   -0.4940 h1        1 QMM      0.031867
     21 HH2A       -5.1000   -0.7520    0.7070 h1        1 QMM      0.031867
     22 HH2B       -4.8830   -0.1370   -0.9940 h1        1 QMM      0.031867
     23 HA          1.6690    1.0540    1.1840 h1        1 QMM      0.036700
     24 HB2         0.7690   -1.2220    0.4330 hc        1 QMM      0.063200
     25 HB3         0.5240   -0.5470   -1.2240 hc        1 QMM      0.063200
@<TRIPOS>BOND
     1    1    5 1   
     2    1   10 1   
     3    1   12 1   
     4    2    3 1   
     5    2    6 2   
     6    2    7 1   
     7    3   11 1   
     8    3   13 1   
     9    3   14 1   
    10    4   10 1   
    11    4   15 1   
    12    4   16 1   
    13    7    8 1   
    14    7    9 1   
    15    8   17 1   
    16    8   18 1   
    17    8   19 1   
    18    9   20 1   
    19    9   21 1   
    20    9   22 1   
    21   10   11 1   
    22   10   23 1   
    23   11   24 1   
    24   11   25 1   
@<TRIPOS>SUBSTRUCTURE
     1 QMM         1 TEMP              0 ****  ****    0 ROOT
