@<TRIPOS>MOLECULE
QMN
   59    64     1     0     0
SMALL
bcc


@<TRIPOS>ATOM
      1 C1          0.5690   -0.0290    0.1400 c3        1 QMN      0.132100
      2 N2          1.6970    0.1510   -2.5800 nu        1 QMN     -0.600400
      3 C3          2.5230    0.1280   -1.4780 cc        1 QMN      0.163600
      4 C4          2.0200    0.0420   -0.1270 cc        1 QMN     -0.198300
      5 C5          3.1420    0.0450    0.7200 cd        1 QMN     -0.064300
      6 N6          4.2880    0.1300   -0.0440 na        1 QMN     -0.144100
      7 C7          3.9400    0.1830   -1.4030 cd        1 QMN     -0.241900
      8 C8         -0.2150    0.3230   -1.1000 ce        1 QMN     -0.289400
      9 C9          0.3360    0.3700   -2.3570 c2        1 QMN      0.189800
     10 C10        -0.5020    0.6090   -3.5840 c3        1 QMN     -0.059200
     11 C11        -1.7730    1.3660   -3.2660 c3        1 QMN     -0.069400
     12 C12        -2.5040    0.7400   -2.1020 c3        1 QMN     -0.182400
     13 C13        -1.6250    0.6690   -0.8820 c         1 QMN      0.593300
     14 O14        -2.0900    0.9020    0.2430 o         1 QMN     -0.554100
     15 C15         4.8400    0.2900   -2.5260 c         1 QMN      0.685700
     16 O16         4.5180    0.3720   -3.7200 o         1 QMN     -0.576000
     17 O17         6.1710    0.3040   -2.2030 os        1 QMN     -0.448900
     18 C18         7.0890    0.4120   -3.3080 c3        1 QMN      0.143400
     19 C19         8.4730    0.4030   -2.7060 c3        1 QMN     -0.102100
     20 C20         0.1690   -1.3890    0.6510 ca        1 QMN     -0.068300
     21 C21        -0.7830   -1.4790    1.6730 ca        1 QMN     -0.111000
     22 C22        -1.1380   -2.7460    2.1510 ca        1 QMN      0.094100
     23 C23        -0.5650   -3.9180    1.6490 ca        1 QMN     -0.130000
     24 C24         0.3800   -3.8070    0.6300 ca        1 QMN     -0.123000
     25 C25         0.7420   -2.5560    0.1330 ca        1 QMN     -0.120000
     26 C26        -2.4340   -5.7240    8.1620 ca        1 QMN     -0.122000
     27 C27        -1.0360   -5.7510    8.0400 ca        1 QMN     -0.146000
     28 C28        -0.3830   -5.1820    6.9540 ca        1 QMN     -0.081000
     29 C29        -3.2400   -5.1260    7.2010 ca        1 QMN     -0.127000
     30 C30        -2.6050   -4.5480    6.1000 ca        1 QMN     -0.080200
     31 C31        -1.1560   -4.5650    5.9640 ca        1 QMN      0.084400
     32 N32        -0.7760   -3.9060    4.7730 nc        1 QMN     -0.598100
     33 C33        -1.9520   -3.5140    4.2260 cd        1 QMN      0.605100
     34 N34        -3.1020   -3.9110    4.9520 na        1 QMN     -0.279300
     35 O35        -2.1880   -2.7760    3.0820 os        1 QMN     -0.316700
     36 H1          0.3020    0.7330    0.9360 hc        1 QMN      0.081700
     37 HN2         2.0990    0.3210   -3.4770 hn        1 QMN      0.468800
     38 H5          3.1820   -0.0100    1.8100 h4        1 QMN      0.183000
     39 HN6         5.2220    0.1260    0.2780 hn        1 QMN      0.316700
     40 H10         0.0750    1.1770   -4.3640 hc        1 QMN      0.064700
     41 H10A       -0.7590   -0.3950   -4.0220 hc        1 QMN      0.064700
     42 H11        -1.5280    2.4350   -3.0260 hc        1 QMN      0.053700
     43 H11A       -2.4360    1.3690   -4.1710 hc        1 QMN      0.053700
     44 H12        -3.4290    1.3280   -1.8650 hc        1 QMN      0.073200
     45 H12A       -2.8210   -0.3060   -2.3590 hc        1 QMN      0.073200
     46 H18         6.9240   -0.4570   -3.9970 h1        1 QMN      0.053700
     47 H18A        6.8760    1.3650   -3.8590 h1        1 QMN      0.053700
     48 H19         8.6030    1.2610   -2.0040 hc        1 QMN      0.048367
     49 H19A        9.2250    0.4840   -3.5270 hc        1 QMN      0.048367
     50 H19B        8.6500   -0.5430   -2.1410 hc        1 QMN      0.048367
     51 H21        -1.2700   -0.5750    2.0720 ha        1 QMN      0.170000
     52 H23        -0.8450   -4.8970    2.0620 ha        1 QMN      0.150000
     53 H24         0.8430   -4.7160    0.2180 ha        1 QMN      0.135000
     54 H25         1.4910   -2.4810   -0.6700 ha        1 QMN      0.142000
     55 H27        -0.4430   -6.2390    8.8280 ha        1 QMN      0.132000
     56 H28         0.7130   -5.2110    6.8670 ha        1 QMN      0.147000
     57 H29        -4.3330   -5.1120    7.3030 ha        1 QMN      0.136000
     58 HN34       -4.0100   -3.5530    4.8230 hn        1 QMN      0.312700
     59 H26        -2.9030   -6.1880    9.0430 ha        1 QMN      0.132000
@<TRIPOS>BOND
     1    1    4 1   
     2    1    8 1   
     3    1   20 1   
     4    1   36 1   
     5    2    3 1   
     6    2    9 1   
     7    2   37 1   
     8    3    4 1   
     9    3    7 2   
    10    4    5 2   
    11    5    6 1   
    12    5   38 1   
    13    6    7 1   
    14    6   39 1   
    15    7   15 1   
    16    8    9 2   
    17    8   13 1   
    18    9   10 1   
    19   10   11 1   
    20   10   40 1   
    21   10   41 1   
    22   11   12 1   
    23   11   42 1   
    24   11   43 1   
    25   12   13 1   
    26   12   44 1   
    27   12   45 1   
    28   13   14 2   
    29   15   16 2   
    30   15   17 1   
    31   17   18 1   
    32   18   19 1   
    33   18   46 1   
    34   18   47 1   
    35   19   48 1   
    36   19   49 1   
    37   19   50 1   
    38   20   21 ar  
    39   20   25 ar  
    40   21   22 ar  
    41   21   51 1   
    42   22   23 ar  
    43   22   35 1   
    44   23   24 ar  
    45   23   52 1   
    46   24   25 ar  
    47   24   53 1   
    48   25   54 1   
    49   26   27 ar  
    50   26   29 ar  
    51   26   59 1   
    52   27   28 ar  
    53   27   55 1   
    54   28   31 ar  
    55   28   56 1   
    56   29   30 ar  
    57   29   57 1   
    58   30   31 ar  
    59   30   34 1   
    60   31   32 1   
    61   32   33 2   
    62   33   34 1   
    63   33   35 1   
    64   34   58 1   
@<TRIPOS>SUBSTRUCTURE
     1 QMN         1 TEMP              0 ****  ****    0 ROOT
