@<TRIPOS>MOLECULE
QMP
   25    25     1     0     0
SMALL
bcc


@<TRIPOS>ATOM
      1 CAG         1.5120    1.2780   -0.3740 c3        1 QMP     -0.099400
      2 CAE         2.8610    1.2020    0.3070 c3        1 QMP     -0.071400
      3 CAD         3.6040   -0.0630   -0.0720 c3        1 QMP     -0.072400
      4 CAF         2.7710   -1.2930    0.2290 c3        1 QMP     -0.071400
      5 CAH         1.4220   -1.2300   -0.4520 c3        1 QMP     -0.099400
      6 CAJ         0.6600    0.0420   -0.0580 c3        1 QMP      0.220100
      7 OAI        -0.5380    0.1070   -0.7640 os        1 QMP     -0.588200
      8 PAK        -1.9190    0.1270    0.1890 p5        1 QMP      1.341600
      9 CAA        -3.0770    0.2070   -1.0350 c3        1 QMP     -0.365300
     10 OAC        -1.8580    1.3970    0.9490 o         1 QMP     -0.867500
     11 OAB        -1.9510   -1.1890    0.8680 o         1 QMP     -0.867500
     12 H1          0.9610    2.1920   -0.0330 hc        1 QMP      0.046200
     13 H2          1.6430    1.3530   -1.4830 hc        1 QMP      0.046200
     14 H3          3.4770    2.0950    0.0270 hc        1 QMP      0.025200
     15 H4          2.7170    1.2280    1.4200 hc        1 QMP      0.025200
     16 H5          3.8480   -0.0380   -1.1660 hc        1 QMP      0.019200
     17 H6          4.5740   -0.1160    0.4880 hc        1 QMP      0.019200
     18 H7          3.3220   -2.2090   -0.1080 hc        1 QMP      0.025200
     19 H8          2.6230   -1.3780    1.3380 hc        1 QMP      0.025200
     20 H9          1.5500   -1.2450   -1.5650 hc        1 QMP      0.046200
     21 H10         0.8060   -2.1210   -0.1680 hc        1 QMP      0.046200
     22 H11         0.4490    0.0150    1.0530 h1        1 QMP      0.036700
     23 H12        -2.6020    0.2210   -2.0410 hc        1 QMP      0.058367
     24 H13        -3.7580   -0.6710   -0.9970 hc        1 QMP      0.058367
     25 H14        -3.6930    1.1280   -0.9410 hc        1 QMP      0.058367
@<TRIPOS>BOND
     1    1    2 1   
     2    1    6 1   
     3    1   12 1   
     4    1   13 1   
     5    2    3 1   
     6    2   14 1   
     7    2   15 1   
     8    3    4 1   
     9    3   16 1   
    10    3   17 1   
    11    4    5 1   
    12    4   18 1   
    13    4   19 1   
    14    5    6 1   
    15    5   20 1   
    16    5   21 1   
    17    6    7 1   
    18    6   22 1   
    19    7    8 1   
    20    8    9 1   
    21    8   10 1   
    22    8   11 1   
    23    9   23 1   
    24    9   24 1   
    25    9   25 1   
@<TRIPOS>SUBSTRUCTURE
     1 QMP         1 TEMP              0 ****  ****    0 ROOT
