@<TRIPOS>MOLECULE
QMP
   25    25     1     0     0
SMALL
bcc


@<TRIPOS>ATOM
      1 CAG        -0.0280   -0.0120    0.0210 c3        1 QMP     -0.099400
      2 CAE         1.4840   -0.0220    0.0700 c3        1 QMP     -0.071400
      3 CAD         1.9940    0.0890    1.4930 c3        1 QMP     -0.072400
      4 CAF         1.4360    1.3210    2.1750 c3        1 QMP     -0.071400
      5 CAH        -0.0760    1.3380    2.1370 c3        1 QMP     -0.099400
      6 CAJ        -0.5960    1.2420    0.6970 c3        1 QMP      0.220100
      7 OAI        -1.9870    1.1780    0.7060 os        1 QMP     -0.588200
      8 PAK        -2.7560    2.4290   -0.1060 p5        1 QMP      1.341600
      9 CAA        -4.3550    1.9540    0.1400 c3        1 QMP     -0.365300
     10 OAC        -2.3670    2.2780   -1.5280 o         1 QMP     -0.867500
     11 OAB        -2.4400    3.6550    0.6630 o         1 QMP     -0.867500
     12 H1         -0.4370   -0.9180    0.5360 hc        1 QMP      0.046450
     13 H2         -0.3770   -0.0370   -1.0430 hc        1 QMP      0.046450
     14 H3          1.8810    0.8350   -0.5340 hc        1 QMP      0.025200
     15 H4          1.8710   -0.9670   -0.3930 hc        1 QMP      0.025200
     16 H5          3.1150    0.1310    1.4920 hc        1 QMP      0.019200
     17 H6          1.6930   -0.8250    2.0690 hc        1 QMP      0.019200
     18 H7          1.8310    2.2390    1.6650 hc        1 QMP      0.025200
     19 H8          1.7870    1.3500    3.2400 hc        1 QMP      0.025200
     20 H9         -0.4870    0.4800    2.7290 hc        1 QMP      0.046450
     21 H10        -0.4610    2.2840    2.5970 hc        1 QMP      0.046450
     22 H11        -0.2580    2.1550    0.1220 h1        1 QMP      0.036700
     23 H12        -4.8700    1.7720   -0.8290 hc        1 QMP      0.058367
     24 H13        -4.4110    1.0130    0.7330 hc        1 QMP      0.058367
     25 H14        -4.9220    2.7340    0.6940 hc        1 QMP      0.058367
@<TRIPOS>BOND
     1    1    2 1   
     2    1    6 1   
     3    1   12 1   
     4    1   13 1   
     5    2    3 1   
     6    2   14 1   
     7    2   15 1   
     8    3    4 1   
     9    3   16 1   
    10    3   17 1   
    11    4    5 1   
    12    4   18 1   
    13    4   19 1   
    14    5    6 1   
    15    5   20 1   
    16    5   21 1   
    17    6    7 1   
    18    6   22 1   
    19    7    8 1   
    20    8    9 1   
    21    8   10 1   
    22    8   11 1   
    23    9   23 1   
    24    9   24 1   
    25    9   25 1   
@<TRIPOS>SUBSTRUCTURE
     1 QMP         1 TEMP              0 ****  ****    0 ROOT
