@<TRIPOS>MOLECULE
QMP
   25    25     1     0     0
SMALL
bcc


@<TRIPOS>ATOM
      1 CAG        -0.0390   -0.0110    0.0090 c3        1 QMP     -0.099400
      2 CAE         1.4730   -0.0310    0.0490 c3        1 QMP     -0.071400
      3 CAD         1.9920    0.0670    1.4690 c3        1 QMP     -0.072400
      4 CAF         1.4450    1.2980    2.1630 c3        1 QMP     -0.071400
      5 CAH        -0.0670    1.3250    2.1350 c3        1 QMP     -0.099400
      6 CAJ        -0.5960    1.2420    0.6970 c3        1 QMP      0.220100
      7 OAI        -1.9870    1.1870    0.7140 os        1 QMP     -0.588200
      8 PAK        -2.7530    2.4460   -0.0880 p5        1 QMP      1.341600
      9 CAA        -4.3540    1.9880    0.1790 c3        1 QMP     -0.365300
     10 OAC        -2.3850    2.2910   -1.5140 o         1 QMP     -0.867500
     11 OAB        -2.4130    3.6680    0.6770 o         1 QMP     -0.867500
     12 H1         -0.3950   -0.0270   -1.0530 hc        1 QMP      0.046200
     13 H2         -0.4510   -0.9180    0.5200 hc        1 QMP      0.046200
     14 H3          1.8510   -0.9750   -0.4230 hc        1 QMP      0.025200
     15 H4          1.8720    0.8290   -0.5520 hc        1 QMP      0.025200
     16 H5          3.1130    0.1030    1.4610 hc        1 QMP      0.019200
     17 H6          1.6890   -0.8490    2.0410 hc        1 QMP      0.019200
     18 H7          1.8030    1.3180    3.2260 hc        1 QMP      0.025200
     19 H8          1.8430    2.2170    1.6570 hc        1 QMP      0.025200
     20 H9         -0.4430    2.2700    2.6030 hc        1 QMP      0.046200
     21 H10        -0.4800    0.4650    2.7220 hc        1 QMP      0.046200
     22 H11        -0.2560    2.1570    0.1270 h1        1 QMP      0.036700
     23 H12        -4.4120    1.0460    0.7700 hc        1 QMP      0.058367
     24 H13        -4.8840    1.8140   -0.7830 hc        1 QMP      0.058367
     25 H14        -4.9040    2.7730    0.7430 hc        1 QMP      0.058367
@<TRIPOS>BOND
     1    1    2 1   
     2    1    6 1   
     3    1   12 1   
     4    1   13 1   
     5    2    3 1   
     6    2   14 1   
     7    2   15 1   
     8    3    4 1   
     9    3   16 1   
    10    3   17 1   
    11    4    5 1   
    12    4   18 1   
    13    4   19 1   
    14    5    6 1   
    15    5   20 1   
    16    5   21 1   
    17    6    7 1   
    18    6   22 1   
    19    7    8 1   
    20    8    9 1   
    21    8   10 1   
    22    8   11 1   
    23    9   23 1   
    24    9   24 1   
    25    9   25 1   
@<TRIPOS>SUBSTRUCTURE
     1 QMP         1 TEMP              0 ****  ****    0 ROOT
