@<TRIPOS>MOLECULE
QMQ
   71    75     1     0     0
SMALL
bcc


@<TRIPOS>ATOM
      1 CAA        11.4050    0.3090    2.7970 c3        1 QMQ     -0.002400
      2 NBI        11.4390    0.4210    1.3580 nh        1 QMQ     -0.227100
      3 CAB        12.6330    0.9250    0.7240 c3        1 QMQ     -0.002400
      4 CBE        10.3630    0.0580    0.6130 cc        1 QMQ      0.431900
      5 CAM         9.1570   -0.4490    1.2080 cc        1 QMQ     -0.329600
      6 CAP         8.0820   -0.8080    0.4190 cd        1 QMQ      0.121500
      7 CAL        10.3590    0.1570   -0.8210 cc        1 QMQ     -0.329600
      8 CAO         9.2480   -0.2200   -1.5480 cd        1 QMQ      0.121500
      9 NBK         8.1100   -0.7030   -0.9490 na        1 QMQ     -0.433200
     10 CAW         6.9600   -1.1230   -1.7620 c3        1 QMQ      0.245100
     11 CBD         5.6370   -0.7660   -1.1660 ca        1 QMQ     -0.173300
     12 CAK         5.1030    0.5140   -1.3520 ca        1 QMQ     -0.102500
     13 CAG         3.8460    0.8260   -0.8420 ca        1 QMQ     -0.126000
     14 CAJ         4.9010   -1.7290   -0.4660 ca        1 QMQ     -0.102500
     15 CAF         3.6430   -1.4150    0.0410 ca        1 QMQ     -0.126000
     16 CBB         3.1040   -0.1350   -0.1420 ca        1 QMQ     -0.029300
     17 CAU         1.7610    0.2060    0.4010 c3        1 QMQ     -0.052100
     18 CAS         0.7150    0.2820   -0.6970 c3        1 QMQ     -0.076400
     19 CAR        -0.6390    0.6400   -0.1240 c3        1 QMQ     -0.078400
     20 CAT        -1.6900    0.7050   -1.2160 c3        1 QMQ     -0.036100
     21 CBA        -3.0410    0.9940   -0.6610 ca        1 QMQ     -0.075300
     22 CAE        -3.6580    2.2270   -0.8930 ca        1 QMQ     -0.130000
     23 CAI        -4.9310    2.4850   -0.3850 ca        1 QMQ     -0.106000
     24 CAD        -3.7150    0.0220    0.0890 ca        1 QMQ     -0.130000
     25 CAH        -4.9840    0.2800    0.6020 ca        1 QMQ     -0.106000
     26 CBC        -5.5980    1.5150    0.3670 ca        1 QMQ     -0.120300
     27 CAV        -6.9530    1.8060    0.9470 c3        1 QMQ      0.095600
     28 N9         -8.0280    1.0380    0.3910 na        1 QMQ     -0.265000
     29 C8         -8.7220    1.2980   -0.8190 cc        1 QMQ      0.405700
     30 N7         -9.6300    0.3640   -1.1290 nd        1 QMQ     -0.539100
     31 C5         -9.5420   -0.5870   -0.1020 ca        1 QMQ     -0.234200
     32 C4         -8.5240   -0.1880    0.8620 ca        1 QMQ      0.457800
     33 N3         -8.2100   -0.9130    1.9780 nb        1 QMQ     -0.747000
     34 C2         -8.9530   -2.0390    2.0910 ca        1 QMQ      0.687900
     35 N1         -9.9270   -2.5340    1.2830 nb        1 QMQ     -0.795000
     36 C6        -10.2430   -1.8140    0.1530 ca        1 QMQ      0.764200
     37 N6        -11.1900   -2.2650   -0.7280 nh        1 QMQ     -0.955500
     38 HAA1       10.5770    0.9440    3.2150 h1        1 QMQ      0.071533
     39 HAA2       11.2370   -0.7610    3.0980 h1        1 QMQ      0.071533
     40 HAA3       12.3790    0.6560    3.2340 h1        1 QMQ      0.071533
     41 HAB1       13.0550    0.1530    0.0240 h1        1 QMQ      0.071533
     42 HAB2       12.3990    1.8600    0.1460 h1        1 QMQ      0.071533
     43 HAB3       13.4080    1.1670    1.4990 h1        1 QMQ      0.071533
     44 HAM         9.0660   -0.5590    2.3000 ha        1 QMQ      0.184000
     45 HAL        11.2390    0.5350   -1.3660 ha        1 QMQ      0.184000
     46 HAP         7.1390   -1.1950    0.8630 h4        1 QMQ      0.200500
     47 HAO         9.2390   -0.1470   -2.6560 h4        1 QMQ      0.200500
     48 HAW1        7.0580   -0.6370   -2.7760 h1        1 QMQ      0.089200
     49 HAW2        7.0380   -2.2430   -1.8920 h1        1 QMQ      0.089200
     50 HAK         5.6700    1.2740   -1.9110 ha        1 QMQ      0.136500
     51 HAJ         5.3060   -2.7440   -0.3300 ha        1 QMQ      0.136500
     52 HAG         3.4260    1.8330   -0.9950 ha        1 QMQ      0.153000
     53 HAF         3.0650   -2.1800    0.5830 ha        1 QMQ      0.153000
     54 HAU1        1.4470   -0.5600    1.1610 hc        1 QMQ      0.060700
     55 HAU2        1.8160    1.1960    0.9310 hc        1 QMQ      0.060700
     56 HAS1        1.0220    1.0490   -1.4550 hc        1 QMQ      0.046200
     57 HAS2        0.6520   -0.7050   -1.2260 hc        1 QMQ      0.046200
     58 HAR1       -0.9420   -0.1230    0.6410 hc        1 QMQ      0.048700
     59 HAR2       -0.5790    1.6310    0.4000 hc        1 QMQ      0.048700
     60 HAT1       -1.4030    1.4920   -1.9630 hc        1 QMQ      0.050200
     61 HAT2       -1.7200   -0.2760   -1.7630 hc        1 QMQ      0.050200
     62 HAE        -3.1410    2.9980   -1.4840 ha        1 QMQ      0.132500
     63 HAD        -3.2400   -0.9540    0.2710 ha        1 QMQ      0.132500
     64 HAI        -5.4060    3.4590   -0.5780 ha        1 QMQ      0.144500
     65 HAH        -5.5080   -0.4870    1.1940 ha        1 QMQ      0.144500
     66 HAV1       -6.9180    1.6030    2.0590 h1        1 QMQ      0.076700
     67 HAV2       -7.2000    2.8980    0.7930 h1        1 QMQ      0.076700
     68 H8         -8.5140    2.2010   -1.4050 h5        1 QMQ      0.072800
     69 H2         -8.7380   -2.6620    2.9870 h5        1 QMQ      0.051100
     70 H61N      -11.4530   -1.6810   -1.4830 hn        1 QMQ      0.449300
     71 H62N      -11.7280   -3.0690   -0.5200 hn        1 QMQ      0.449300
@<TRIPOS>BOND
     1    1    2 1   
     2    1   38 1   
     3    1   39 1   
     4    1   40 1   
     5    2    3 1   
     6    2    4 2   
     7    3   41 1   
     8    3   42 1   
     9    3   43 1   
    10    4    5 1   
    11    4    7 1   
    12    5    6 2   
    13    5   44 1   
    14    6    9 1   
    15    6   46 1   
    16    7    8 2   
    17    7   45 1   
    18    8    9 1   
    19    8   47 1   
    20    9   10 1   
    21   10   11 1   
    22   10   48 1   
    23   10   49 1   
    24   11   12 ar  
    25   11   14 ar  
    26   12   13 ar  
    27   12   50 1   
    28   13   16 ar  
    29   13   52 1   
    30   14   15 ar  
    31   14   51 1   
    32   15   16 ar  
    33   15   53 1   
    34   16   17 1   
    35   17   18 1   
    36   17   54 1   
    37   17   55 1   
    38   18   19 1   
    39   18   56 1   
    40   18   57 1   
    41   19   20 1   
    42   19   58 1   
    43   19   59 1   
    44   20   21 1   
    45   20   60 1   
    46   20   61 1   
    47   21   22 ar  
    48   21   24 ar  
    49   22   23 ar  
    50   22   62 1   
    51   23   26 ar  
    52   23   64 1   
    53   24   25 ar  
    54   24   63 1   
    55   25   26 ar  
    56   25   65 1   
    57   26   27 1   
    58   27   28 1   
    59   27   66 1   
    60   27   67 1   
    61   28   29 1   
    62   28   32 1   
    63   29   30 2   
    64   29   68 1   
    65   30   31 1   
    66   31   32 ar  
    67   31   36 ar  
    68   32   33 ar  
    69   33   34 ar  
    70   34   35 ar  
    71   34   69 1   
    72   35   36 ar  
    73   36   37 1   
    74   37   70 1   
    75   37   71 1   
@<TRIPOS>SUBSTRUCTURE
     1 QMQ         1 TEMP              0 ****  ****    0 ROOT
