@<TRIPOS>MOLECULE
QMQ
   73    77     1     0     0
SMALL
bcc


@<TRIPOS>ATOM
      1 CAA        -0.0810   -1.0830    0.3920 c3        1 QMQ      0.082100
      2 NBI         1.1510   -0.2610    0.6040 n4        1 QMQ     -0.569800
      3 CAB         1.9940   -0.8380    1.6960 c3        1 QMQ      0.082100
      4 CBE         1.9180   -0.1150   -0.6450 ca        1 QMQ      0.071600
      5 CAM         2.4610   -1.2400   -1.2970 ca        1 QMQ     -0.127000
      6 CAP         3.1850   -1.0570   -2.4830 ca        1 QMQ      0.000200
      7 CAL         2.1210    1.1570   -1.2060 ca        1 QMQ     -0.127000
      8 CAO         2.8580    1.2730   -2.4000 ca        1 QMQ      0.000200
      9 NBK         3.3810    0.1840   -3.0260 na        1 QMQ      0.062900
     10 CAW         4.1600    0.2940   -4.2950 c3        1 QMQ      0.058600
     11 CBD         4.3980    1.6820   -4.7600 ca        1 QMQ     -0.225300
     12 CAK         5.5620    2.3630   -4.3740 ca        1 QMQ     -0.089000
     13 CAG         5.8550    3.6100   -4.9170 ca        1 QMQ     -0.127000
     14 CAJ         3.5320    2.2700   -5.6950 ca        1 QMQ     -0.089000
     15 CAF         3.8310    3.5150   -6.2360 ca        1 QMQ     -0.127000
     16 CBB         4.9980    4.1980   -5.8590 ca        1 QMQ      0.001700
     17 CAU         5.3170    5.5270   -6.4490 c3        1 QMQ     -0.060100
     18 CAS         5.8590    5.4030   -7.8620 c3        1 QMQ     -0.075400
     19 CAR         6.1650    6.7700   -8.4400 c3        1 QMQ     -0.077400
     20 CAT         6.7130    6.6510   -9.8510 c3        1 QMQ     -0.043100
     21 CBA         7.0450    7.9830  -10.4300 ca        1 QMQ     -0.054300
     22 CAE         8.1920    8.6680  -10.0110 ca        1 QMQ     -0.126500
     23 CAI         8.5100    9.9120  -10.5510 ca        1 QMQ     -0.101000
     24 CAD         6.2230    8.5600  -11.4050 ca        1 QMQ     -0.126500
     25 CAH         6.5370    9.8060  -11.9460 ca        1 QMQ     -0.101000
     26 CBC         7.6800   10.4890  -11.5190 ca        1 QMQ     -0.148300
     27 CAV         7.9710   11.8670  -12.0300 c3        1 QMQ      0.086600
     28 N9          8.6220   11.8980  -13.3220 na        1 QMQ     -0.241000
     29 C8          9.4650   10.9290  -13.9010 cc        1 QMQ      0.502700
     30 N7          9.9870   11.2900  -15.0930 nd        1 QMQ     -0.584100
     31 C5          9.4790   12.5690  -15.3310 ca        1 QMQ     -0.138200
     32 C4          8.6020   12.9830  -14.2110 ca        1 QMQ      0.446800
     33 N3          7.9680   14.1820  -14.1720 nb        1 QMQ     -0.618000
     34 C2          8.2090   14.9700  -15.2500 ca        1 QMQ      0.674900
     35 N1          8.9930   14.7110  -16.3380 nb        1 QMQ     -0.673000
     36 C6          9.6220   13.5110  -16.3670 ca        1 QMQ      0.524200
     37 N6         10.4880   13.1750  -17.5120 n4        1 QMQ     -0.816300
     38 HAA1       -0.7090   -0.6180   -0.4160 hx        1 QMQ      0.123033
     39 HAA2        0.2040   -2.1290    0.1010 hx        1 QMQ      0.123033
     40 HAA3       -0.6630   -1.1080    1.3560 hx        1 QMQ      0.123033
     41 HAB1        1.3820   -0.8670    2.6420 hx        1 QMQ      0.123033
     42 HAB2        2.9000   -0.1920    1.8530 hx        1 QMQ      0.123033
     43 HAB3        2.3090   -1.8810    1.4250 hx        1 QMQ      0.123033
     44 HAM         2.3410   -2.2710   -0.9120 ha        1 QMQ      0.214000
     45 HAL         1.7260    2.0860   -0.7520 ha        1 QMQ      0.214000
     46 HAP         3.6270   -1.9290   -3.0210 h4        1 QMQ      0.247500
     47 HAO         3.0360    2.2720   -2.8710 h4        1 QMQ      0.247500
     48 HAW1        3.5720   -0.2870   -5.0690 h1        1 QMQ      0.118200
     49 HAW2        5.1440   -0.2310   -4.1030 h1        1 QMQ      0.118200
     50 HAK         6.2640    1.9040   -3.6600 ha        1 QMQ      0.143000
     51 HAJ         2.6270    1.7360   -6.0260 ha        1 QMQ      0.143000
     52 HAG         6.7780    4.1330   -4.6150 ha        1 QMQ      0.167000
     53 HAF         3.1540    3.9670   -6.9810 ha        1 QMQ      0.167000
     54 HAU1        6.0710    6.0600   -5.8080 hc        1 QMQ      0.069700
     55 HAU2        4.3860    6.1580   -6.4630 hc        1 QMQ      0.069700
     56 HAS1        5.1070    4.8780   -8.5090 hc        1 QMQ      0.050700
     57 HAS2        6.7910    4.7780   -7.8560 hc        1 QMQ      0.050700
     58 HAR1        5.2340    7.3940   -8.4490 hc        1 QMQ      0.052700
     59 HAR2        6.9140    7.2970   -7.7920 hc        1 QMQ      0.052700
     60 HAT1        7.6390    6.0140   -9.8390 hc        1 QMQ      0.058200
     61 HAT2        5.9590    6.1290  -10.5000 hc        1 QMQ      0.058200
     62 HAE         8.8470    8.2210   -9.2470 ha        1 QMQ      0.146000
     63 HAD         5.3200    8.0310  -11.7480 ha        1 QMQ      0.146000
     64 HAI         9.4090   10.4450  -10.2030 ha        1 QMQ      0.144500
     65 HAH         5.8750   10.2550  -12.7030 ha        1 QMQ      0.144500
     66 HAV1        7.0030   12.4450  -12.1230 h1        1 QMQ      0.091700
     67 HAV2        8.6360   12.4140  -11.2970 h1        1 QMQ      0.091700
     68 H8          9.6540    9.9650  -13.3990 h5        1 QMQ      0.108800
     69 H2          7.7050   15.9660  -15.2550 h5        1 QMQ      0.104100
     70 H61N       11.4530   13.0740  -17.1740 hn        1 QMQ      0.479800
     71 H62N       10.1740   12.2790  -17.9080 hn        1 QMQ      0.479800
     72 HBI1        0.8510    0.6830    0.9030 hn        1 QMQ      0.474800
     73 H63        10.4510   13.9060  -18.2360 hn        1 QMQ      0.479800
@<TRIPOS>BOND
     1    1    2 1   
     2    1   38 1   
     3    1   39 1   
     4    1   40 1   
     5    2    3 1   
     6    2    4 1   
     7    2   72 1   
     8    3   41 1   
     9    3   42 1   
    10    3   43 1   
    11    4    5 ar  
    12    4    7 ar  
    13    5    6 ar  
    14    5   44 1   
    15    6    9 1   
    16    6   46 1   
    17    7    8 ar  
    18    7   45 1   
    19    8    9 2   
    20    8   47 1   
    21    9   10 1   
    22   10   11 1   
    23   10   48 1   
    24   10   49 1   
    25   11   12 ar  
    26   11   14 ar  
    27   12   13 ar  
    28   12   50 1   
    29   13   16 ar  
    30   13   52 1   
    31   14   15 ar  
    32   14   51 1   
    33   15   16 ar  
    34   15   53 1   
    35   16   17 1   
    36   17   18 1   
    37   17   54 1   
    38   17   55 1   
    39   18   19 1   
    40   18   56 1   
    41   18   57 1   
    42   19   20 1   
    43   19   58 1   
    44   19   59 1   
    45   20   21 1   
    46   20   60 1   
    47   20   61 1   
    48   21   22 ar  
    49   21   24 ar  
    50   22   23 ar  
    51   22   62 1   
    52   23   26 ar  
    53   23   64 1   
    54   24   25 ar  
    55   24   63 1   
    56   25   26 ar  
    57   25   65 1   
    58   26   27 1   
    59   27   28 1   
    60   27   66 1   
    61   27   67 1   
    62   28   29 1   
    63   28   32 1   
    64   29   30 2   
    65   29   68 1   
    66   30   31 1   
    67   31   32 ar  
    68   31   36 ar  
    69   32   33 ar  
    70   33   34 ar  
    71   34   35 ar  
    72   34   69 1   
    73   35   36 ar  
    74   36   37 1   
    75   37   70 1   
    76   37   71 1   
    77   37   73 1   
@<TRIPOS>SUBSTRUCTURE
     1 QMQ         1 TEMP              0 ****  ****    0 ROOT
