@<TRIPOS>MOLECULE
QMQ
   71    75     1     0     0
SMALL
bcc


@<TRIPOS>ATOM
      1 CAA        -0.1130   -1.2380   -0.0540 c3        1 QMQ     -0.002400
      2 NBI         0.8790   -0.1930   -0.1430 nh        1 QMQ     -0.227100
      3 CAB         0.9910    0.7600    0.9360 c3        1 QMQ     -0.002400
      4 CBE         1.6940   -0.1050   -1.2270 cc        1 QMQ      0.431900
      5 CAM         1.6110   -1.0340   -2.3210 cc        1 QMQ     -0.329600
      6 CAP         2.4530   -0.9160   -3.4080 cd        1 QMQ      0.121500
      7 CAL         2.6920    0.9200   -1.3510 cc        1 QMQ     -0.329600
      8 CAO         3.5030    0.9790   -2.4680 cd        1 QMQ      0.121500
      9 NBK         3.4000    0.0750   -3.4960 na        1 QMQ     -0.433200
     10 CAW         4.2980    0.1500   -4.6570 c3        1 QMQ      0.245100
     11 CBD         4.5690    1.5430   -5.1210 ca        1 QMQ     -0.173300
     12 CAK         5.7640    2.1800   -4.7640 ca        1 QMQ     -0.102500
     13 CAG         6.0430    3.4560   -5.2440 ca        1 QMQ     -0.125500
     14 CAJ         3.6590    2.1960   -5.9590 ca        1 QMQ     -0.102500
     15 CAF         3.9400    3.4750   -6.4340 ca        1 QMQ     -0.125500
     16 CBB         5.1340    4.1170   -6.0820 ca        1 QMQ     -0.029300
     17 CAU         5.4380    5.4830   -6.5880 c3        1 QMQ     -0.052100
     18 CAS         6.5000    5.4550   -7.6730 c3        1 QMQ     -0.076400
     19 CAR         6.7990    6.8540   -8.1670 c3        1 QMQ     -0.078400
     20 CAT         7.8520    6.8300   -9.2590 c3        1 QMQ     -0.036100
     21 CBA         8.1070    8.1910   -9.8050 ca        1 QMQ     -0.074300
     22 CAE         9.3170    8.8460   -9.5500 ca        1 QMQ     -0.130500
     23 CAI         9.5570   10.1140  -10.0780 ca        1 QMQ     -0.106000
     24 CAD         7.1400    8.8250  -10.5950 ca        1 QMQ     -0.130500
     25 CAH         7.3750   10.0930  -11.1180 ca        1 QMQ     -0.106000
     26 CBC         8.5870   10.7440  -10.8620 ca        1 QMQ     -0.120300
     27 CAV         8.8290   12.1260  -11.4000 c3        1 QMQ      0.095600
     28 N9          8.9620   12.2060  -12.8250 na        1 QMQ     -0.265000
     29 C8         10.1270   11.9340  -13.5870 cc        1 QMQ      0.405700
     30 N7          9.9360   12.0160  -14.9110 nd        1 QMQ     -0.539100
     31 C5          8.5790   12.3350  -15.0650 ca        1 QMQ     -0.233200
     32 C4          7.9410   12.4460  -13.7580 ca        1 QMQ      0.457800
     33 N3          6.6190   12.7510  -13.5820 nb        1 QMQ     -0.747000
     34 C2          5.9710   12.9460  -14.7550 ca        1 QMQ      0.687900
     35 N1          6.4290   12.8800  -16.0330 nb        1 QMQ     -0.795000
     36 C6          7.7560   12.5640  -16.2190 ca        1 QMQ      0.764200
     37 N6          8.2830   12.4450  -17.4770 nh        1 QMQ     -0.955500
     38 HAA1       -0.6830   -1.1460    0.9090 h1        1 QMQ      0.071367
     39 HAA2       -0.8370   -1.1580   -0.9100 h1        1 QMQ      0.071367
     40 HAA3        0.3840   -2.2450   -0.0820 h1        1 QMQ      0.071367
     41 HAB1        0.2370    0.5270    1.7340 h1        1 QMQ      0.071367
     42 HAB2        2.0190    0.7140    1.3870 h1        1 QMQ      0.071367
     43 HAB3        0.8010    1.8000    0.5540 h1        1 QMQ      0.071367
     44 HAM         0.8750   -1.8540   -2.3140 ha        1 QMQ      0.184000
     45 HAL         2.8300    1.6770   -0.5630 ha        1 QMQ      0.184000
     46 HAP         2.3950   -1.6300   -4.2550 h4        1 QMQ      0.200500
     47 HAO         4.2760    1.7690   -2.5840 h4        1 QMQ      0.200500
     48 HAW1        5.2630   -0.3570   -4.3620 h1        1 QMQ      0.089200
     49 HAW2        3.8260   -0.4410   -5.4960 h1        1 QMQ      0.089200
     50 HAK         6.4940    1.6670   -4.1190 ha        1 QMQ      0.136500
     51 HAJ         2.7230    1.6980   -6.2540 ha        1 QMQ      0.136500
     52 HAG         6.9890    3.9520   -4.9700 ha        1 QMQ      0.153000
     53 HAF         3.2200    3.9820   -7.0970 ha        1 QMQ      0.153000
     54 HAU1        4.5060    5.9600   -6.9940 hc        1 QMQ      0.060700
     55 HAU2        5.7940    6.1230   -5.7360 hc        1 QMQ      0.060700
     56 HAS1        6.1500    4.8190   -8.5270 hc        1 QMQ      0.046200
     57 HAS2        7.4370    4.9870   -7.2690 hc        1 QMQ      0.046200
     58 HAR1        5.8600    7.3250   -8.5640 hc        1 QMQ      0.048700
     59 HAR2        7.1540    7.4900   -7.3140 hc        1 QMQ      0.048700
     60 HAT1        7.5100    6.1580  -10.0920 hc        1 QMQ      0.050200
     61 HAT2        8.8020    6.3930   -8.8500 hc        1 QMQ      0.050200
     62 HAE        10.0870    8.3580   -8.9340 ha        1 QMQ      0.133000
     63 HAD         6.1880    8.3140  -10.8050 ha        1 QMQ      0.133000
     64 HAI        10.5140   10.6160   -9.8730 ha        1 QMQ      0.144500
     65 HAH         6.6090   10.5880  -11.7370 ha        1 QMQ      0.144500
     66 HAV1        9.7750   12.5450  -10.9470 h1        1 QMQ      0.076700
     67 HAV2        7.9650   12.7870  -11.0930 h1        1 QMQ      0.076700
     68 H8         11.0800   11.7000  -13.0970 h5        1 QMQ      0.072800
     69 H2          4.8930   13.2020  -14.6650 h5        1 QMQ      0.051100
     70 H61N        9.2570   12.3040  -17.5730 hn        1 QMQ      0.449300
     71 H62N        7.7410   12.6760  -18.2730 hn        1 QMQ      0.449300
@<TRIPOS>BOND
     1    1    2 1   
     2    1   38 1   
     3    1   39 1   
     4    1   40 1   
     5    2    3 1   
     6    2    4 2   
     7    3   41 1   
     8    3   42 1   
     9    3   43 1   
    10    4    5 1   
    11    4    7 1   
    12    5    6 2   
    13    5   44 1   
    14    6    9 1   
    15    6   46 1   
    16    7    8 2   
    17    7   45 1   
    18    8    9 1   
    19    8   47 1   
    20    9   10 1   
    21   10   11 1   
    22   10   48 1   
    23   10   49 1   
    24   11   12 ar  
    25   11   14 ar  
    26   12   13 ar  
    27   12   50 1   
    28   13   16 ar  
    29   13   52 1   
    30   14   15 ar  
    31   14   51 1   
    32   15   16 ar  
    33   15   53 1   
    34   16   17 1   
    35   17   18 1   
    36   17   54 1   
    37   17   55 1   
    38   18   19 1   
    39   18   56 1   
    40   18   57 1   
    41   19   20 1   
    42   19   58 1   
    43   19   59 1   
    44   20   21 1   
    45   20   60 1   
    46   20   61 1   
    47   21   22 ar  
    48   21   24 ar  
    49   22   23 ar  
    50   22   62 1   
    51   23   26 ar  
    52   23   64 1   
    53   24   25 ar  
    54   24   63 1   
    55   25   26 ar  
    56   25   65 1   
    57   26   27 1   
    58   27   28 1   
    59   27   66 1   
    60   27   67 1   
    61   28   29 1   
    62   28   32 1   
    63   29   30 2   
    64   29   68 1   
    65   30   31 1   
    66   31   32 ar  
    67   31   36 ar  
    68   32   33 ar  
    69   33   34 ar  
    70   34   35 ar  
    71   34   69 1   
    72   35   36 ar  
    73   36   37 1   
    74   37   70 1   
    75   37   71 1   
@<TRIPOS>SUBSTRUCTURE
     1 QMQ         1 TEMP              0 ****  ****    0 ROOT
