@<TRIPOS>MOLECULE
QMQ
   71    75     1     0     0
SMALL
bcc


@<TRIPOS>ATOM
      1 CAA        -0.0870    0.4920    0.0710 c3        1 QMQ     -0.002400
      2 NBI         1.1380   -0.2670   -0.0120 nh        1 QMQ     -0.227100
      3 CAB         1.4920   -1.1450    1.0780 c3        1 QMQ     -0.002400
      4 CBE         1.9450   -0.1560   -1.0990 cc        1 QMQ      0.431900
      5 CAM         1.6260    0.7060   -2.2030 cc        1 QMQ     -0.329600
      6 CAP         2.4700    0.7940   -3.2920 cd        1 QMQ      0.121500
      7 CAL         3.1730   -0.8940   -1.2170 cc        1 QMQ     -0.329600
      8 CAO         3.9700   -0.7580   -2.3350 cd        1 QMQ      0.121500
      9 NBK         3.6360    0.0730   -3.3760 na        1 QMQ     -0.433200
     10 CAW         4.4970    0.1670   -4.5630 c3        1 QMQ      0.245100
     11 CBD         4.6120    1.5490   -5.1180 ca        1 QMQ     -0.173300
     12 CAK         5.5330    2.4510   -4.5740 ca        1 QMQ     -0.102500
     13 CAG         5.6760    3.7200   -5.1290 ca        1 QMQ     -0.126000
     14 CAJ         3.8390    1.9270   -6.2220 ca        1 QMQ     -0.102500
     15 CAF         3.9870    3.1960   -6.7760 ca        1 QMQ     -0.126000
     16 CBB         4.9060    4.1040   -6.2350 ca        1 QMQ     -0.029300
     17 CAU         5.0640    5.4620   -6.8230 c3        1 QMQ     -0.052100
     18 CAS         6.3470    5.5790   -7.6270 c3        1 QMQ     -0.076400
     19 CAR         6.4920    6.9700   -8.2050 c3        1 QMQ     -0.078400
     20 CAT         7.7660    7.0870   -9.0220 c3        1 QMQ     -0.036100
     21 CBA         7.8930    8.4300   -9.6520 ca        1 QMQ     -0.075300
     22 CAE         8.8660    9.3340   -9.2130 ca        1 QMQ     -0.130000
     23 CAI         8.9910   10.5830   -9.8190 ca        1 QMQ     -0.106000
     24 CAD         7.0440    8.7950  -10.7040 ca        1 QMQ     -0.130000
     25 CAH         7.1630   10.0450  -11.3060 ca        1 QMQ     -0.106000
     26 CBC         8.1390   10.9450  -10.8660 ca        1 QMQ     -0.120300
     27 CAV         8.2470   12.3070  -11.4930 c3        1 QMQ      0.094600
     28 N9          8.6910   12.3120  -12.8560 na        1 QMQ     -0.265000
     29 C8         10.0310   12.2230  -13.3150 cc        1 QMQ      0.405700
     30 N7         10.1400   12.1710  -14.6490 nd        1 QMQ     -0.539100
     31 C5          8.8220   12.2050  -15.1260 ca        1 QMQ     -0.234200
     32 C4          7.8880   12.2790  -14.0070 ca        1 QMQ      0.457800
     33 N3          6.5300   12.3280  -14.1550 nb        1 QMQ     -0.747000
     34 C2          6.1480   12.3090  -15.4540 ca        1 QMQ      0.687900
     35 N1          6.8940   12.2450  -16.5880 nb        1 QMQ     -0.795000
     36 C6          8.2620   12.1850  -16.4480 ca        1 QMQ      0.764200
     37 N6          9.0790   12.0850  -17.5420 nv        1 QMQ     -0.955500
     38 HAA1       -0.6130    0.2700    1.0370 h1        1 QMQ      0.071533
     39 HAA2       -0.7690    0.2200   -0.7810 h1        1 QMQ      0.071533
     40 HAA3        0.1360    1.5930    0.0280 h1        1 QMQ      0.071533
     41 HAB1        2.4750   -0.8310    1.5240 h1        1 QMQ      0.071533
     42 HAB2        0.7050   -1.1020    1.8770 h1        1 QMQ      0.071533
     43 HAB3        1.5740   -2.2040    0.7100 h1        1 QMQ      0.071533
     44 HAM         0.7060    1.3120   -2.2030 ha        1 QMQ      0.184000
     45 HAL         3.5010   -1.5800   -0.4190 ha        1 QMQ      0.184000
     46 HAP         2.2420    1.4610   -4.1520 h4        1 QMQ      0.200500
     47 HAO         4.9180   -1.3260   -2.4320 h4        1 QMQ      0.200500
     48 HAW1        5.5220   -0.2100   -4.2760 h1        1 QMQ      0.089200
     49 HAW2        4.0640   -0.5300   -5.3410 h1        1 QMQ      0.089200
     50 HAK         6.1530    2.1580   -3.7140 ha        1 QMQ      0.136500
     51 HAJ         3.1250    1.2170   -6.6680 ha        1 QMQ      0.136500
     52 HAG         6.4060    4.4270   -4.7020 ha        1 QMQ      0.153000
     53 HAF         3.3820    3.4840   -7.6500 ha        1 QMQ      0.153000
     54 HAU1        4.1890    5.7000   -7.4850 hc        1 QMQ      0.060700
     55 HAU2        5.0730    6.2250   -5.9970 hc        1 QMQ      0.060700
     56 HAS1        6.3420    4.8230   -8.4550 hc        1 QMQ      0.046200
     57 HAS2        7.2250    5.3470   -6.9680 hc        1 QMQ      0.046200
     58 HAR1        5.6090    7.2050   -8.8560 hc        1 QMQ      0.048700
     59 HAR2        6.5060    7.7260   -7.3770 hc        1 QMQ      0.048700
     60 HAT1        8.6510    6.8850   -8.3610 hc        1 QMQ      0.050200
     61 HAT2        7.7660    6.3020   -9.8260 hc        1 QMQ      0.050200
     62 HAE         9.5410    9.0580   -8.3900 ha        1 QMQ      0.132500
     63 HAD         6.2800    8.0870  -11.0600 ha        1 QMQ      0.132500
     64 HAI         9.7630   11.2840   -9.4660 ha        1 QMQ      0.144500
     65 HAH         6.4910   10.3280  -12.1320 ha        1 QMQ      0.144500
     66 HAV1        7.2310   12.8000  -11.4560 h1        1 QMQ      0.076700
     67 HAV2        8.9710   12.9380  -10.8980 h1        1 QMQ      0.076700
     68 H8         10.8690   12.2160  -12.6080 h5        1 QMQ      0.072800
     69 H2          5.0510   12.3520  -15.6270 h5        1 QMQ      0.051100
     70 H61N       10.0590   12.1320  -17.4100 hn        1 QMQ      0.449300
     71 H62N        8.7060   12.1470  -18.4570 hn        1 QMQ      0.449300
@<TRIPOS>BOND
     1    1    2 1   
     2    1   38 1   
     3    1   39 1   
     4    1   40 1   
     5    2    3 1   
     6    2    4 2   
     7    3   41 1   
     8    3   42 1   
     9    3   43 1   
    10    4    5 1   
    11    4    7 1   
    12    5    6 2   
    13    5   44 1   
    14    6    9 1   
    15    6   46 1   
    16    7    8 2   
    17    7   45 1   
    18    8    9 1   
    19    8   47 1   
    20    9   10 1   
    21   10   11 1   
    22   10   48 1   
    23   10   49 1   
    24   11   12 ar  
    25   11   14 ar  
    26   12   13 ar  
    27   12   50 1   
    28   13   16 ar  
    29   13   52 1   
    30   14   15 ar  
    31   14   51 1   
    32   15   16 ar  
    33   15   53 1   
    34   16   17 1   
    35   17   18 1   
    36   17   54 1   
    37   17   55 1   
    38   18   19 1   
    39   18   56 1   
    40   18   57 1   
    41   19   20 1   
    42   19   58 1   
    43   19   59 1   
    44   20   21 1   
    45   20   60 1   
    46   20   61 1   
    47   21   22 ar  
    48   21   24 ar  
    49   22   23 ar  
    50   22   62 1   
    51   23   26 ar  
    52   23   64 1   
    53   24   25 ar  
    54   24   63 1   
    55   25   26 ar  
    56   25   65 1   
    57   26   27 1   
    58   27   28 1   
    59   27   66 1   
    60   27   67 1   
    61   28   29 1   
    62   28   32 1   
    63   29   30 2   
    64   29   68 1   
    65   30   31 1   
    66   31   32 ar  
    67   31   36 ar  
    68   32   33 ar  
    69   33   34 ar  
    70   34   35 ar  
    71   34   69 1   
    72   35   36 ar  
    73   36   37 1   
    74   37   70 1   
    75   37   71 1   
@<TRIPOS>SUBSTRUCTURE
     1 QMQ         1 TEMP              0 ****  ****    0 ROOT
