@<TRIPOS>MOLECULE
QMR
   29    32     1     0     0
SMALL
bcc


@<TRIPOS>ATOM
      1 C01        -0.0120   -0.0260   -0.0230 c3        1 QMR      0.177800
      2 N02         1.4090   -0.3040    0.0930 n3        1 QMR     -0.832200
      3 C03         2.0520   -0.0250    1.3640 c3        1 QMR      0.177800
      4 C04         1.4900    1.2090    2.0950 c3        1 QMR     -0.027400
      5 C05        -0.0330    0.9780    2.2360 c3        1 QMR     -0.085400
      6 C06        -0.4780    1.2080    0.7730 c3        1 QMR     -0.027400
      7 C07         0.3460    2.4070    0.3800 ca        1 QMR     -0.062300
      8 C08         0.1070    3.3770   -0.5440 ca        1 QMR     -0.148300
      9 C09         1.0790    4.4230   -0.7110 ca        1 QMR      0.289300
     10 N10         0.8530    5.4200   -1.6440 nb        1 QMR     -0.624000
     11 C11         1.7790    6.3560   -1.7570 ca        1 QMR      0.289900
     12 C12         2.9780    6.3560   -0.9510 ca        1 QMR      0.289900
     13 N13         3.2240    5.4210   -0.0510 nb        1 QMR     -0.624000
     14 C14         2.2750    4.4230    0.0930 ca        1 QMR      0.289300
     15 C15         2.4880    3.3780    1.0560 ca        1 QMR     -0.148300
     16 C16         1.5430    2.4070    1.1840 ca        1 QMR     -0.062300
     17 H011       -0.6460   -0.8990    0.3140 h1        1 QMR      0.033700
     18 H012       -0.2160    0.1430   -1.1180 h1        1 QMR      0.033700
     19 H02         1.5930   -1.2500   -0.1810 hn        1 QMR      0.367800
     20 H06        -1.5740    1.3610    0.6550 hc        1 QMR      0.074700
     21 H031        1.9800   -0.8980    2.0790 h1        1 QMR      0.033700
     22 H032        3.1430    0.1440    1.1390 h1        1 QMR      0.033700
     23 H04         2.0130    1.3620    3.0660 hc        1 QMR      0.074700
     24 H051       -0.2750   -0.0470    2.5960 hc        1 QMR      0.055200
     25 H052       -0.4950    1.7240    2.9230 hc        1 QMR      0.055200
     26 H08        -0.8020    3.3830   -1.1640 ha        1 QMR      0.154000
     27 H11         1.6080    7.1540   -2.4990 h4        1 QMR      0.032100
     28 H12         3.7300    7.1540   -1.0730 h4        1 QMR      0.032100
     29 H15         3.4050    3.3840    1.6640 ha        1 QMR      0.154000
@<TRIPOS>BOND
     1    1    2 1   
     2    1    6 1   
     3    1   17 1   
     4    1   18 1   
     5    2    3 1   
     6    2   19 1   
     7    3    4 1   
     8    3   21 1   
     9    3   22 1   
    10    4    5 1   
    11    4   16 1   
    12    4   23 1   
    13    5    6 1   
    14    5   24 1   
    15    5   25 1   
    16    6    7 1   
    17    6   20 1   
    18    7    8 ar  
    19    7   16 ar  
    20    8    9 ar  
    21    8   26 1   
    22    9   10 ar  
    23    9   14 ar  
    24   10   11 ar  
    25   11   12 ar  
    26   11   27 1   
    27   12   13 ar  
    28   12   28 1   
    29   13   14 ar  
    30   14   15 ar  
    31   15   16 ar  
    32   15   29 1   
@<TRIPOS>SUBSTRUCTURE
     1 QMR         1 TEMP              0 ****  ****    0 ROOT
