@<TRIPOS>MOLECULE
QMS
   25    26     1     0     0
SMALL
bcc


@<TRIPOS>ATOM
      1 O2          0.0870   -0.3960   -0.0180 o         1 QMS     -0.650300
      2 S1          1.4490   -0.0420    0.0180 s6        1 QMS      1.466900
      3 O1          2.0500    0.0430    1.2910 o         1 QMS     -0.650300
      4 C7          2.3070   -1.1820   -0.9040 c3        1 QMS     -0.370300
      5 N1          1.7280    1.3620   -0.7570 nh        1 QMS     -0.773500
      6 C3          1.2120    1.7800   -1.9920 ca        1 QMS      0.119300
      7 C2         -0.0840    1.4520   -2.3800 ca        1 QMS     -0.174000
      8 C4          2.0310    2.5830   -2.8890 ca        1 QMS      0.370600
      9 N2          3.3180    2.9340   -2.5260 nb        1 QMS     -0.672000
     10 C8          4.0280    3.6640   -3.3660 ca        1 QMS      0.415200
     11 C9          3.5510    4.1210   -4.6360 ca        1 QMS     -0.244300
     12 C10         2.2770    3.7820   -5.0100 ca        1 QMS     -0.081000
     13 C5          1.4710    2.9930   -4.1360 ca        1 QMS     -0.128300
     14 C6          0.1520    2.6190   -4.4880 ca        1 QMS     -0.132000
     15 C1         -0.6010    1.8640   -3.6250 ca        1 QMS     -0.098000
     16 H71         2.1740   -2.2080   -0.4750 h1        1 QMS      0.117700
     17 H72         3.4080   -0.9950   -0.9270 h1        1 QMS      0.117700
     18 H73         1.9720   -1.2460   -1.9680 h1        1 QMS      0.117700
     19 HN1         2.4060    1.9930   -0.3790 hn        1 QMS      0.474800
     20 H2         -0.7400    0.8580   -1.7170 ha        1 QMS      0.176000
     21 H8          5.0530    3.9250   -3.0400 h4        1 QMS      0.025100
     22 H9          4.2070    4.7260   -5.2740 ha        1 QMS      0.148000
     23 H10         1.8540    4.1060   -5.9730 ha        1 QMS      0.142000
     24 H6         -0.2520    2.9450   -5.4580 ha        1 QMS      0.139000
     25 H1         -1.6310    1.5720   -3.8860 ha        1 QMS      0.143000
@<TRIPOS>BOND
     1    1    2 2   
     2    2    3 2   
     3    2    4 1   
     4    2    5 1   
     5    4   16 1   
     6    4   17 1   
     7    4   18 1   
     8    5    6 1   
     9    5   19 1   
    10    6    7 ar  
    11    6    8 ar  
    12    7   15 ar  
    13    7   20 1   
    14    8    9 ar  
    15    8   13 ar  
    16    9   10 ar  
    17   10   11 ar  
    18   10   21 1   
    19   11   12 ar  
    20   11   22 1   
    21   12   13 ar  
    22   12   23 1   
    23   13   14 ar  
    24   14   15 ar  
    25   14   24 1   
    26   15   25 1   
@<TRIPOS>SUBSTRUCTURE
     1 QMS         1 TEMP              0 ****  ****    0 ROOT
