@<TRIPOS>MOLECULE
QMS
   26    27     1     0     0
SMALL
bcc


@<TRIPOS>ATOM
      1 O2          0.6450   -0.7990    0.0330 o         1 QMS     -0.563800
      2 S1          1.8550   -0.1510   -0.1070 s6        1 QMS      1.411900
      3 O1          2.6800    0.0550    0.9800 o         1 QMS     -0.563800
      4 C7          2.6620   -0.5330   -1.4790 c3        1 QMS     -0.449300
      5 N1          1.2820    1.6220   -0.4310 n4        1 QMS     -0.562300
      6 C3          0.8950    1.9100   -1.8020 ca        1 QMS     -0.129700
      7 C2         -0.4250    1.7460   -2.2050 ca        1 QMS     -0.056000
      8 C4          1.8810    2.4240   -2.7240 ca        1 QMS      0.401600
      9 N2          3.1930    2.5810   -2.3190 nb        1 QMS     -0.740000
     10 C8          4.0540    3.0870   -3.1860 ca        1 QMS      0.472200
     11 C9          3.7130    3.4660   -4.5240 ca        1 QMS     -0.230300
     12 C10         2.4190    3.2920   -4.9450 ca        1 QMS     -0.053000
     13 C5          1.4500    2.7550   -4.0430 ca        1 QMS     -0.145300
     14 C6          0.1000    2.5590   -4.4230 ca        1 QMS     -0.037000
     15 C1         -0.8120    2.0560   -3.5230 ca        1 QMS     -0.133000
     16 H71         3.7020   -0.1010   -1.5440 h1        1 QMS      0.176033
     17 H72         2.1680   -0.2390   -2.4470 h1        1 QMS      0.176033
     18 H73         2.8160   -1.6490   -1.5850 h1        1 QMS      0.176033
     19 HN1         2.0170    2.2790   -0.1440 hn        1 QMS      0.467800
     20 H2         -1.1970    1.3700   -1.5080 ha        1 QMS      0.168000
     21 H8          5.0960    3.2120   -2.8250 h4        1 QMS      0.051100
     22 H9          4.4900    3.8850   -5.1810 ha        1 QMS      0.178000
     23 H10         2.1040    3.5600   -5.9680 ha        1 QMS      0.169000
     24 H6         -0.2080    2.8220   -5.4500 ha        1 QMS      0.171000
     25 H1         -1.8650    1.9010   -3.8160 ha        1 QMS      0.177000
     26 H12         0.4730    1.8110    0.1690 hn        1 QMS      0.467800
@<TRIPOS>BOND
     1    1    2 2   
     2    2    3 2   
     3    2    4 1   
     4    2    5 1   
     5    4   16 1   
     6    4   17 1   
     7    4   18 1   
     8    5    6 1   
     9    5   19 1   
    10    5   26 1   
    11    6    7 ar  
    12    6    8 ar  
    13    7   15 ar  
    14    7   20 1   
    15    8    9 ar  
    16    8   13 ar  
    17    9   10 ar  
    18   10   11 ar  
    19   10   21 1   
    20   11   12 ar  
    21   11   22 1   
    22   12   13 ar  
    23   12   23 1   
    24   13   14 ar  
    25   14   15 ar  
    26   14   24 1   
    27   15   25 1   
@<TRIPOS>SUBSTRUCTURE
     1 QMS         1 TEMP              0 ****  ****    0 ROOT
