@<TRIPOS>MOLECULE
QMS
   25    26     1     0     0
SMALL
bcc


@<TRIPOS>ATOM
      1 O2          3.0730    1.0690   -0.1400 o         1 QMS     -0.650300
      2 S1          2.6310   -0.2480    0.0810 s6        1 QMS      1.466900
      3 O1          3.4360   -1.2830   -0.4370 o         1 QMS     -0.650300
      4 C7          2.4860   -0.4730    1.7580 c3        1 QMS     -0.370300
      5 N1          1.1150   -0.4760   -0.4670 nh        1 QMS     -0.773500
      6 C3          0.0100    0.3740   -0.3180 ca        1 QMS      0.119300
      7 C2          0.1560    1.7580   -0.3470 ca        1 QMS     -0.174000
      8 C4         -1.3210   -0.1870   -0.1430 ca        1 QMS      0.370600
      9 N2         -1.5000   -1.5580   -0.1220 nb        1 QMS     -0.672000
     10 C8         -2.7230   -2.0280    0.0370 ca        1 QMS      0.415200
     11 C9         -3.8860   -1.2080    0.1900 ca        1 QMS     -0.244300
     12 C10        -3.7260    0.1530    0.1700 ca        1 QMS     -0.081000
     13 C5         -2.4230    0.7090    0.0010 ca        1 QMS     -0.128300
     14 C6         -2.2160    2.1090   -0.0200 ca        1 QMS     -0.132000
     15 C1         -0.9520    2.6140   -0.1890 ca        1 QMS     -0.098000
     16 H71         1.7770    0.2380    2.2490 h1        1 QMS      0.117700
     17 H72         2.1520   -1.5020    2.0410 h1        1 QMS      0.117700
     18 H73         3.4760   -0.3190    2.2590 h1        1 QMS      0.117700
     19 HN1         0.8850   -1.3510   -0.8930 hn        1 QMS      0.474800
     20 H2          1.1510    2.2190   -0.4940 ha        1 QMS      0.176000
     21 H8         -2.8250   -3.1300    0.0490 h4        1 QMS      0.025100
     22 H9         -4.8690   -1.6800    0.3160 ha        1 QMS      0.148000
     23 H10        -4.5830    0.8360    0.2790 ha        1 QMS      0.142000
     24 H6         -3.0830    2.7760    0.0990 ha        1 QMS      0.139000
     25 H1         -0.7800    3.7020   -0.2130 ha        1 QMS      0.143000
@<TRIPOS>BOND
     1    1    2 2   
     2    2    3 2   
     3    2    4 1   
     4    2    5 1   
     5    4   16 1   
     6    4   17 1   
     7    4   18 1   
     8    5    6 1   
     9    5   19 1   
    10    6    7 ar  
    11    6    8 ar  
    12    7   15 ar  
    13    7   20 1   
    14    8    9 ar  
    15    8   13 ar  
    16    9   10 ar  
    17   10   11 ar  
    18   10   21 1   
    19   11   12 ar  
    20   11   22 1   
    21   12   13 ar  
    22   12   23 1   
    23   13   14 ar  
    24   14   15 ar  
    25   14   24 1   
    26   15   25 1   
@<TRIPOS>SUBSTRUCTURE
     1 QMS         1 TEMP              0 ****  ****    0 ROOT
