@<TRIPOS>MOLECULE
QMS
   25    26     1     0     0
SMALL
bcc


@<TRIPOS>ATOM
      1 O2          0.0790   -0.3880   -0.0170 o         1 QMS     -0.650300
      2 S1          1.4410   -0.0380    0.0200 s6        1 QMS      1.466900
      3 O1          2.0410    0.0460    1.2930 o         1 QMS     -0.650300
      4 C7          2.2970   -1.1820   -0.9000 c3        1 QMS     -0.370300
      5 N1          1.7260    1.3640   -0.7570 nu        1 QMS     -0.773500
      6 C3          1.2120    1.7830   -1.9930 ca        1 QMS      0.119300
      7 C2         -0.0850    1.4580   -2.3820 ca        1 QMS     -0.174000
      8 C4          2.0330    2.5810   -2.8890 ca        1 QMS      0.370600
      9 N2          3.3220    2.9300   -2.5260 nb        1 QMS     -0.672000
     10 C8          4.0350    3.6570   -3.3660 ca        1 QMS      0.415200
     11 C9          3.5600    4.1130   -4.6370 ca        1 QMS     -0.244300
     12 C10         2.2850    3.7780   -5.0110 ca        1 QMS     -0.081000
     13 C5          1.4760    2.9920   -4.1380 ca        1 QMS     -0.128300
     14 C6          0.1560    2.6220   -4.4900 ca        1 QMS     -0.132000
     15 C1         -0.6000    1.8700   -3.6270 ca        1 QMS     -0.098000
     16 H71         2.1600   -2.2070   -0.4700 h1        1 QMS      0.117700
     17 H72         3.3990   -0.9990   -0.9220 h1        1 QMS      0.117700
     18 H73         1.9630   -1.2460   -1.9640 h1        1 QMS      0.117700
     19 HN1         2.4050    1.9930   -0.3790 hn        1 QMS      0.474800
     20 H2         -0.7430    0.8660   -1.7180 ha        1 QMS      0.176000
     21 H8          5.0600    3.9140   -3.0400 h4        1 QMS      0.025100
     22 H9          4.2180    4.7160   -5.2750 ha        1 QMS      0.148000
     23 H10         1.8630    4.1020   -5.9750 ha        1 QMS      0.142000
     24 H6         -0.2460    2.9480   -5.4610 ha        1 QMS      0.139000
     25 H1         -1.6300    1.5810   -3.8880 ha        1 QMS      0.143000
@<TRIPOS>BOND
     1    1    2 2   
     2    2    3 2   
     3    2    4 1   
     4    2    5 1   
     5    4   16 1   
     6    4   17 1   
     7    4   18 1   
     8    5    6 1   
     9    5   19 1   
    10    6    7 ar  
    11    6    8 ar  
    12    7   15 ar  
    13    7   20 1   
    14    8    9 ar  
    15    8   13 ar  
    16    9   10 ar  
    17   10   11 ar  
    18   10   21 1   
    19   11   12 ar  
    20   11   22 1   
    21   12   13 ar  
    22   12   23 1   
    23   13   14 ar  
    24   14   15 ar  
    25   14   24 1   
    26   15   25 1   
@<TRIPOS>SUBSTRUCTURE
     1 QMS         1 TEMP              0 ****  ****    0 ROOT
