@<TRIPOS>MOLECULE
QN2
   70    61     1     0     0
SMALL
bcc


@<TRIPOS>ATOM
      1 C1         -0.6260   -4.8570   -3.3790 c1        1 QN2     -0.108750
      2 C17        -0.6680   -3.8210   -2.4260 c1        1 QN2     -0.008500
      3 C26        -1.7880   -3.0760   -2.2830 c1        1 QN2     -0.837500
      4 C19        -2.9000   -3.3340   -3.0780 c2        1 QN2     -0.020000
      5 C3         -2.8570   -4.3740   -4.0350 c1        1 QN2     -0.160000
      6 C4         -1.7370   -5.1170   -4.1750 c1        1 QN2     -0.108750
      7 S8         -1.9000   -1.8990   -0.9580 ss        1 QN2      2.849000
      8 N28        -0.7310   -0.6920   -1.1550 n2        1 QN2     -0.808000
      9 C7          0.5470   -1.0180   -1.7500 c3        1 QN2      0.022000
     10 C12         0.5200   -0.6980   -3.2400 c2        1 QN2     -0.095000
     11 C14         1.4460    0.1780   -3.7690 c2        1 QN2     -0.126000
     12 C30         1.5130    0.3740   -5.1510 c1        1 QN2     -0.100000
     13 C31         0.6500   -0.3120   -5.9900 c1        1 QN2     -0.261500
     14 I2          0.7870   -0.0460   -8.1420 i         1 QN2      0.143500
     15 C29        -0.2700   -1.1830   -5.4640 c1        1 QN2     -0.097500
     16 C13        -0.3370   -1.3790   -4.0730 c1        1 QN2     -0.127000
     17 C23        -1.0130    0.7370   -0.6820 c3        1 QN2     -0.006000
     18 C24        -1.7360    0.7210    0.7930 c3        1 QN2     -0.020000
     19 N32        -0.6570    0.5970    1.9350 n3        1 QN2     -0.811000
     20 S9          0.6520   -0.5210    1.7610 s4        1 QN2      2.063800
     21 O11         1.2190   -0.4700    0.4120 o         1 QN2     -0.547900
     22 C27         1.8830   -0.2140    2.9890 c1        1 QN2     -0.837500
     23 C18         2.8810    0.7450    2.7560 c2        1 QN2     -0.020000
     24 C2          3.8460    0.9770    3.7080 c1        1 QN2     -0.160000
     25 C6          3.8300    0.2550    4.9100 c1        1 QN2     -0.108750
     26 C5          2.8330   -0.7020    5.1400 c1        1 QN2     -0.108750
     27 C20         1.8700   -0.9340    4.1900 c1        1 QN2     -0.008500
     28 O40         0.2000   -1.8500    1.8190 o         1 QN2     -0.547900
     29 C33        -0.9330    1.1640    3.2290 c3        1 QN2      0.025000
     30 C34        -0.0620    2.4830    3.4340 c2        1 QN2     -0.095000
     31 C38         0.5390    2.7460    4.6950 c2        1 QN2     -0.127000
     32 C39         1.3270    3.8420    4.8590 c1        1 QN2     -0.099000
     33 C37         1.5500    4.7220    3.7720 c1        1 QN2     -0.261500
     34 I1          2.6680    6.5130    4.0640 i         1 QN2      0.143500
     35 C36         0.9490    4.4590    2.5090 c1        1 QN2     -0.097500
     36 C35         0.1600    3.3620    2.3470 c1        1 QN2     -0.122000
     37 C25        -2.3410    1.8020    0.8940 c3        1 QN2     -0.110000
     38 N22        -2.6720    2.2320   -0.5890 n3        1 QN2     -0.255000
     39 C21        -1.8420    1.3090   -1.4780 c3        1 QN2     -0.119000
     40 O41        -3.2640   -1.3220   -0.8630 o         1 QN2     -0.941500
     41 O10        -1.7760   -2.5510    0.3510 o         1 QN2     -0.941500
     42 H1          0.1570   -5.3770   -3.4780 ha        1 QN2      0.142750
     43 H17         0.1170   -3.6400   -1.8650 ha        1 QN2      0.169500
     44 H19        -3.7620   -2.7600   -2.9700 ha        1 QN2      0.156500
     45 H3         -3.6420   -4.5590   -4.6000 ha        1 QN2      0.142500
     46 H4         -1.7070   -5.8220   -4.8240 ha        1 QN2      0.142750
     47 H71         1.2530   -0.4910   -1.3140 h1        1 QN2      0.105000
     48 H72         0.7380   -2.0200   -1.6200 h1        1 QN2      0.105000
     49 H14         2.0760    0.6830   -3.1530 ha        1 QN2      0.139000
     50 H30         2.1600    0.9820   -5.5180 ha        1 QN2      0.147000
     51 H29        -0.8580   -1.6500   -6.0350 ha        1 QN2      0.148500
     52 H13        -0.9850   -1.9970   -3.7020 ha        1 QN2      0.169000
     53 H23        -0.1650    1.2580   -0.6390 h1        1 QN2      0.125000
     54 H24        -2.3680   -0.0190    0.8480 h1        1 QN2      0.134000
     55 H18         2.8900    1.2430    1.9260 ha        1 QN2      0.156500
     56 H2          4.5780    1.6790    3.5390 ha        1 QN2      0.142500
     57 H6          4.5120    0.4200    5.5850 ha        1 QN2      0.142750
     58 H5          2.8230   -1.2120    5.9910 ha        1 QN2      0.142750
     59 H20         1.2100   -1.5660    4.3450 ha        1 QN2      0.169500
     60 H331       -0.7050    0.5130    3.9250 h1        1 QN2      0.097500
     61 H332       -1.8390    1.3770    3.2870 h1        1 QN2      0.097500
     62 H38         0.3870    2.1390    5.4420 ha        1 QN2      0.132000
     63 H39         1.7380    4.0220    5.7270 ha        1 QN2      0.148000
     64 H36         1.1020    5.0660    1.7590 ha        1 QN2      0.148500
     65 H35        -0.2440    3.1860    1.5000 ha        1 QN2      0.176000
     66 H251       -3.2430    1.6750    1.4550 h1        1 QN2      0.113500
     67 H252       -1.7840    2.4510    1.3070 h1        1 QN2      0.113500
     68 HN22       -2.4040    3.1190   -0.7240 hn        1 QN2      0.137000
     69 H211       -1.3590    1.8340   -2.1560 h1        1 QN2      0.108000
     70 H212       -2.4400    0.6150   -1.9250 h1        1 QN2      0.108000
@<TRIPOS>BOND
     1    1    6 1   
     2    1   42 1   
     3    2    3 1   
     4    2   43 1   
     5    3    4 1   
     6    4    5 1   
     7    4   44 1   
     8    5   45 1   
     9    6   46 1   
    10    7   40 1   
    11    7   41 1   
    12    8    9 1   
    13    8   17 1   
    14    9   10 1   
    15    9   47 1   
    16    9   48 1   
    17   10   11 1   
    18   10   16 1   
    19   11   12 1   
    20   11   49 1   
    21   12   50 1   
    22   13   15 1   
    23   15   51 1   
    24   16   52 1   
    25   17   18 1   
    26   17   39 1   
    27   17   53 1   
    28   18   19 1   
    29   18   37 1   
    30   18   54 1   
    31   19   20 1   
    32   19   29 1   
    33   20   21 1   
    34   20   28 1   
    35   22   23 1   
    36   22   27 1   
    37   23   24 1   
    38   23   55 1   
    39   24   56 1   
    40   25   26 1   
    41   25   57 1   
    42   26   58 1   
    43   27   59 1   
    44   29   30 1   
    45   29   60 1   
    46   29   61 1   
    47   30   31 1   
    48   30   36 1   
    49   31   32 1   
    50   31   62 1   
    51   32   63 1   
    52   33   35 1   
    53   35   64 1   
    54   36   65 1   
    55   37   38 1   
    56   37   66 1   
    57   37   67 1   
    58   38   39 1   
    59   38   68 1   
    60   39   69 1   
    61   39   70 1   
@<TRIPOS>SUBSTRUCTURE
     1 QN2         1 TEMP              0 ****  ****    0 ROOT
