@<TRIPOS>MOLECULE
QN2
   72    74     1     0     0
SMALL
bcc


@<TRIPOS>ATOM
      1 C1          2.0310   -1.4310   -1.5480 ca        1 QN2     -0.149000
      2 C17         2.5730   -1.2700   -0.2850 ca        1 QN2      0.031000
      3 C26         2.1590   -0.2120    0.5700 ca        1 QN2     -0.612000
      4 C19         1.1810    0.6870    0.0630 ca        1 QN2      0.031000
      5 C3          0.6410    0.5250   -1.2000 ca        1 QN2     -0.149000
      6 C4          1.0590   -0.5370   -2.0140 ca        1 QN2      0.043500
      7 S8          2.7110   -0.0880    2.0200 s4        1 QN2      1.683800
      8 N28         4.5270    1.3980    1.6960 n3        1 QN2     -0.905200
      9 C7          4.6300    1.9610    0.3380 c3        1 QN2      0.179600
     10 C12         5.8630    1.5440   -0.4040 ca        1 QN2     -0.141300
     11 C14         6.0600    0.2020   -0.7440 ca        1 QN2     -0.127500
     12 C30         7.1950   -0.1830   -1.4540 ca        1 QN2     -0.088750
     13 C31         8.1420    0.7720   -1.8340 ca        1 QN2      0.035400
     14 I2          9.7830    0.2130   -2.8660 i         1 QN2     -0.069900
     15 C29         7.9450    2.1120   -1.4970 ca        1 QN2     -0.088750
     16 C13         6.8110    2.4990   -0.7800 ca        1 QN2     -0.127500
     17 C23         4.6520    2.3880    2.7760 c3        1 QN2      0.107500
     18 C24         3.5440    3.5050    2.7620 c3        1 QN2      0.107500
     19 N32         2.6490    3.5040    3.9190 n3        1 QN2     -0.905200
     20 S9          0.3880    4.3620    3.2500 s4        1 QN2      1.683800
     21 O11        -0.1230    3.8200    4.3810 o         1 QN2     -0.446900
     22 C27         0.4220    5.9040    3.0950 ca        1 QN2     -0.612000
     23 C18         0.7270    6.5200    1.8470 ca        1 QN2      0.031000
     24 C2          0.6640    7.8900    1.6820 ca        1 QN2     -0.149000
     25 C6          0.2940    8.7130    2.7570 ca        1 QN2      0.043500
     26 C5          0.0010    8.1420    4.0000 ca        1 QN2     -0.149000
     27 C20         0.0730    6.7690    4.1700 ca        1 QN2      0.031000
     28 O40         0.5450    3.6230    2.1110 o         1 QN2     -0.446900
     29 C33         3.2960    3.8120    5.2040 c3        1 QN2      0.179600
     30 C34         2.8170    5.0610    5.8780 ca        1 QN2     -0.141300
     31 C38         1.6390    5.0390    6.6340 ca        1 QN2     -0.127500
     32 C39         1.2690    6.1530    7.3860 ca        1 QN2     -0.088750
     33 C37         2.0670    7.3000    7.3860 ca        1 QN2      0.035400
     34 I1          1.5390    8.9030    8.4920 i         1 QN2     -0.069900
     35 C36         3.2390    7.3250    6.6280 ca        1 QN2     -0.088750
     36 C35         3.6120    6.2100    5.8760 ca        1 QN2     -0.127500
     37 C25         4.3400    4.8320    2.5630 c3        1 QN2      0.138800
     38 N22         5.7570    4.5940    2.7490 n3        1 QN2     -0.796200
     39 C21         6.0080    3.1640    2.7770 c3        1 QN2      0.138800
     40 O41         2.0760    0.7720    2.8690 o         1 QN2     -0.446900
     41 O10         3.5500   -1.0540    2.4740 o         1 QN2     -0.446900
     42 H1          2.3610   -2.2690   -2.1890 ha        1 QN2      0.187500
     43 H17         3.3360   -1.9870    0.0790 ha        1 QN2      0.173500
     44 H19         0.8430    1.5280    0.7030 ha        1 QN2      0.173500
     45 H3         -0.1260    1.2290   -1.5690 ha        1 QN2      0.187500
     46 H4          0.6210   -0.6700   -3.0210 ha        1 QN2      0.187500
     47 H71         3.7210    1.6030   -0.2300 h1        1 QN2      0.073700
     48 H72         4.5850    3.0880    0.3790 h1        1 QN2      0.073700
     49 H14         5.3150   -0.5570   -0.4610 ha        1 QN2      0.137750
     50 H30         7.3390   -1.2450   -1.7140 ha        1 QN2      0.167500
     51 H29         8.6830    2.8780   -1.7920 ha        1 QN2      0.167500
     52 H13         6.6710    3.5600   -0.5190 ha        1 QN2      0.137750
     53 H23         4.5820    1.7960    3.7380 h1        1 QN2      0.078700
     54 H24         2.8690    3.3590    1.8660 h1        1 QN2      0.078700
     55 H18         1.0050    5.8770    0.9910 ha        1 QN2      0.173500
     56 H2          0.8970    8.3420    0.7020 ha        1 QN2      0.187500
     57 H6          0.2350    9.8090    2.6210 ha        1 QN2      0.187500
     58 H5         -0.2890    8.7870    4.8490 ha        1 QN2      0.187500
     59 H20        -0.1390    6.3270    5.1660 ha        1 QN2      0.173500
     60 H331        3.1090    2.9520    5.9170 h1        1 QN2      0.073700
     61 H332        4.4150    3.8830    5.0700 h1        1 QN2      0.073700
     62 H38         1.0140    4.1310    6.6620 ha        1 QN2      0.137750
     63 H39         0.3540    6.1080    8.0020 ha        1 QN2      0.167500
     64 H36         3.8900    8.2160    6.6330 ha        1 QN2      0.167500
     65 H35         4.5560    6.2350    5.3090 ha        1 QN2      0.137750
     66 H251        4.1920    5.1650    1.4970 h1        1 QN2      0.076200
     67 H252        3.9670    5.6510    3.2370 h1        1 QN2      0.076200
     68 HN22        6.1040    5.0440    3.5760 hn        1 QN2      0.383800
     69 H211        6.6160    2.9160    1.8590 h1        1 QN2      0.076200
     70 H212        6.6090    2.8600    3.6770 h1        1 QN2      0.076200
     71 H281        5.2900    0.7370    1.8230 hn        1 QN2      0.409800
     72 H321        2.2550    2.5720    3.9990 hn        1 QN2      0.409800
@<TRIPOS>BOND
     1    1    2 ar  
     2    1    6 ar  
     3    1   42 1   
     4    2    3 ar  
     5    2   43 1   
     6    3    4 ar  
     7    3    7 1   
     8    4    5 ar  
     9    4   44 1   
    10    5    6 ar  
    11    5   45 1   
    12    6   46 1   
    13    7   40 1   
    14    7   41 1   
    15    8    9 1   
    16    8   17 1   
    17    8   71 1   
    18    9   10 1   
    19    9   47 1   
    20    9   48 1   
    21   10   11 ar  
    22   10   16 ar  
    23   11   12 ar  
    24   11   49 1   
    25   12   13 ar  
    26   12   50 1   
    27   13   14 1   
    28   13   15 ar  
    29   15   16 ar  
    30   15   51 1   
    31   16   52 1   
    32   17   18 1   
    33   17   39 1   
    34   17   53 1   
    35   18   19 1   
    36   18   37 1   
    37   18   54 1   
    38   19   29 1   
    39   19   72 1   
    40   20   21 1   
    41   20   22 1   
    42   20   28 1   
    43   22   23 ar  
    44   22   27 ar  
    45   23   24 ar  
    46   23   55 1   
    47   24   25 ar  
    48   24   56 1   
    49   25   26 ar  
    50   25   57 1   
    51   26   27 ar  
    52   26   58 1   
    53   27   59 1   
    54   29   30 1   
    55   29   60 1   
    56   29   61 1   
    57   30   31 ar  
    58   30   36 ar  
    59   31   32 ar  
    60   31   62 1   
    61   32   33 ar  
    62   32   63 1   
    63   33   34 1   
    64   33   35 ar  
    65   35   36 ar  
    66   35   64 1   
    67   36   65 1   
    68   37   38 1   
    69   37   66 1   
    70   37   67 1   
    71   38   39 1   
    72   38   68 1   
    73   39   69 1   
    74   39   70 1   
@<TRIPOS>SUBSTRUCTURE
     1 QN2         1 TEMP              0 ****  ****    0 ROOT
