@<TRIPOS>MOLECULE
QN2
   72    74     1     0     0
SMALL
bcc


@<TRIPOS>ATOM
      1 C1          3.1670   -3.1210   -0.7860 ca        1 QN2     -0.147750
      2 C17         3.3160   -2.4820    0.4330 ca        1 QN2      0.028500
      3 C26         2.3430   -1.5620    0.9130 ca        1 QN2     -0.613500
      4 C19         1.2140   -1.3230    0.0820 ca        1 QN2      0.028500
      5 C3          1.0650   -1.9630   -1.1360 ca        1 QN2     -0.147750
      6 C4          2.0390   -2.8680   -1.5780 ca        1 QN2      0.040000
      7 S8          2.4760   -0.9070    2.3160 s4        1 QN2      1.674800
      8 N28         3.6790    1.1870    1.7730 n7        1 QN2     -0.906200
      9 C7          3.1370    1.7420    0.5330 c3        1 QN2      0.161600
     10 C12         4.1380    2.3190   -0.4220 ca        1 QN2     -0.144300
     11 C14         5.2640    1.5880   -0.8150 ca        1 QN2     -0.130250
     12 C30         6.1590    2.1210   -1.7420 ca        1 QN2     -0.089500
     13 C31         5.9310    3.3840   -2.2940 ca        1 QN2      0.036900
     14 I2          7.2230    4.1510   -3.6400 i         1 QN2     -0.070900
     15 C29         4.8010    4.1080   -1.9130 ca        1 QN2     -0.089500
     16 C13         3.9100    3.5820   -0.9770 ca        1 QN2     -0.130250
     17 C23         3.6170    2.0460    2.9620 c3        1 QN2      0.113500
     18 C24         4.0980    3.5290    2.7680 c3        1 QN2      0.113500
     19 N32         3.2950    4.5530    3.4610 n7        1 QN2     -0.906200
     20 S9          1.4260    5.3230    2.3100 s4        1 QN2      1.674800
     21 O11         0.5080    4.8640    3.2020 o         1 QN2     -0.442150
     22 C27         1.8020    6.8380    2.3200 ca        1 QN2     -0.613500
     23 C18         2.5370    7.4220    1.2520 ca        1 QN2      0.028500
     24 C2          2.8040    8.7770    1.2150 ca        1 QN2     -0.147750
     25 C6          2.3480    9.6120    2.2470 ca        1 QN2      0.040000
     26 C5          1.6300    9.0660    3.3170 ca        1 QN2     -0.147750
     27 C20         1.3670    7.7060    3.3560 ca        1 QN2      0.028500
     28 O40         1.7210    4.6160    1.1780 o         1 QN2     -0.442150
     29 C33         2.8890    4.2090    4.8350 c3        1 QN2      0.161600
     30 C34         2.6860    5.4080    5.7110 ca        1 QN2     -0.144300
     31 C38         1.4040    5.7410    6.1590 ca        1 QN2     -0.130250
     32 C39         1.2310    6.7980    7.0510 ca        1 QN2     -0.089500
     33 C37         2.3320    7.5360    7.4910 ca        1 QN2      0.036900
     34 I1          2.0770    9.0650    8.7830 i         1 QN2     -0.070900
     35 C36         3.6120    7.2040    7.0410 ca        1 QN2     -0.089500
     36 C35         3.7910    6.1420    6.1550 ca        1 QN2     -0.130250
     37 C25         5.5860    3.4830    3.2400 c3        1 QN2      0.134800
     38 N22         5.7450    2.3650    4.1530 n7        1 QN2     -0.814200
     39 C21         4.5740    1.5120    4.0850 c3        1 QN2      0.134800
     40 O41         1.4270   -0.1900    2.7930 o         1 QN2     -0.442150
     41 O10         3.5210   -1.2900    3.0940 o         1 QN2     -0.442150
     42 H1          3.9330   -3.8380   -1.1310 ha        1 QN2      0.188000
     43 H17         4.2040   -2.6990    1.0590 ha        1 QN2      0.172000
     44 H19         0.4330   -0.6200    0.4310 ha        1 QN2      0.172000
     45 H3          0.1740   -1.7670   -1.7590 ha        1 QN2      0.188000
     46 H4          1.9160   -3.3850   -2.5480 ha        1 QN2      0.186500
     47 H71         2.6200    0.8810    0.0070 h1        1 QN2      0.086950
     48 H72         2.3460    2.5120    0.7700 h1        1 QN2      0.086950
     49 H14         5.4490    0.5800   -0.4160 ha        1 QN2      0.142750
     50 H30         7.0430    1.5320   -2.0420 ha        1 QN2      0.165250
     51 H29         4.5980    5.0970   -2.3560 ha        1 QN2      0.165250
     52 H13         3.0130    4.1550   -0.6900 ha        1 QN2      0.142750
     53 H23         2.5480    2.0150    3.3180 h1        1 QN2      0.097700
     54 H24         4.0670    3.8140    1.6730 h1        1 QN2      0.097700
     55 H18         2.8850    6.7720    0.4260 ha        1 QN2      0.172000
     56 H2          3.3690    9.2090    0.3710 ha        1 QN2      0.188000
     57 H6          2.5550   10.6970    2.2130 ha        1 QN2      0.186500
     58 H5          1.2710    9.7210    4.1310 ha        1 QN2      0.188000
     59 H20         0.8070    7.2790    4.2140 ha        1 QN2      0.172000
     60 H331        3.6700    3.5630    5.3350 h1        1 QN2      0.086950
     61 H332        1.9320    3.6130    4.7670 h1        1 QN2      0.086950
     62 H38         0.5300    5.1550    5.8250 ha        1 QN2      0.142750
     63 H39         0.2170    7.0340    7.4180 ha        1 QN2      0.165250
     64 H36         4.4940    7.7660    7.3960 ha        1 QN2      0.165250
     65 H35         4.8070    5.8660    5.8330 ha        1 QN2      0.142750
     66 H251        6.2420    3.4010    2.3290 h1        1 QN2      0.075450
     67 H252        5.8870    4.4180    3.7900 h1        1 QN2      0.075450
     68 HN22        6.5980    1.8650    3.9910 hn        1 QN2      0.396800
     69 H211        4.8480    0.4290    3.9410 h1        1 QN2      0.075450
     70 H212        4.0320    1.5830    5.0700 h1        1 QN2      0.075450
     71 H281        4.6420    0.9170    1.6220 hn        1 QN2      0.399800
     72 H321        3.8750    5.3860    3.5100 hn        1 QN2      0.399800
@<TRIPOS>BOND
     1    1    2 ar  
     2    1    6 ar  
     3    1   42 1   
     4    2    3 ar  
     5    2   43 1   
     6    3    4 ar  
     7    3    7 1   
     8    4    5 ar  
     9    4   44 1   
    10    5    6 ar  
    11    5   45 1   
    12    6   46 1   
    13    7   40 1   
    14    7   41 1   
    15    8    9 1   
    16    8   17 1   
    17    8   71 1   
    18    9   10 1   
    19    9   47 1   
    20    9   48 1   
    21   10   11 ar  
    22   10   16 ar  
    23   11   12 ar  
    24   11   49 1   
    25   12   13 ar  
    26   12   50 1   
    27   13   14 1   
    28   13   15 ar  
    29   15   16 ar  
    30   15   51 1   
    31   16   52 1   
    32   17   18 1   
    33   17   39 1   
    34   17   53 1   
    35   18   19 1   
    36   18   37 1   
    37   18   54 1   
    38   19   29 1   
    39   19   72 1   
    40   20   21 1   
    41   20   22 1   
    42   20   28 1   
    43   22   23 ar  
    44   22   27 ar  
    45   23   24 ar  
    46   23   55 1   
    47   24   25 ar  
    48   24   56 1   
    49   25   26 ar  
    50   25   57 1   
    51   26   27 ar  
    52   26   58 1   
    53   27   59 1   
    54   29   30 1   
    55   29   60 1   
    56   29   61 1   
    57   30   31 ar  
    58   30   36 ar  
    59   31   32 ar  
    60   31   62 1   
    61   32   33 ar  
    62   32   63 1   
    63   33   34 1   
    64   33   35 ar  
    65   35   36 ar  
    66   35   64 1   
    67   36   65 1   
    68   37   38 1   
    69   37   66 1   
    70   37   67 1   
    71   38   39 1   
    72   38   68 1   
    73   39   69 1   
    74   39   70 1   
@<TRIPOS>SUBSTRUCTURE
     1 QN2         1 TEMP              0 ****  ****    0 ROOT
