@<TRIPOS>MOLECULE
QN2
   70    74     1     0     0
SMALL
bcc


@<TRIPOS>ATOM
      1 C1          1.8580    6.3520   -0.5530 ca        1 QN2     -0.153750
      2 C17         2.3770    5.1090   -0.9070 ca        1 QN2     -0.015000
      3 C26         1.5860    4.1620   -1.5710 ca        1 QN2     -0.383000
      4 C19         0.2610    4.4960   -1.8800 ca        1 QN2     -0.015000
      5 C3         -0.2660    5.7360   -1.5280 ca        1 QN2     -0.153750
      6 C4          0.5330    6.6640   -0.8600 ca        1 QN2     -0.059500
      7 S8          2.2240    2.6760   -2.0320 sy        1 QN2      1.502200
      8 N28         1.7490    1.6630   -0.8240 n3        1 QN2     -0.788000
      9 C7          2.2720    1.8630    0.5030 c3        1 QN2      0.255100
     10 C12         3.2530    0.8370    0.9980 ca        1 QN2     -0.099800
     11 C14         4.4600    0.6210    0.3240 ca        1 QN2     -0.126750
     12 C30         5.3860   -0.2940    0.8230 ca        1 QN2     -0.101250
     13 C31         5.1160   -0.9950    1.9990 ca        1 QN2      0.026400
     14 I2          6.4580   -2.3200    2.7230 i         1 QN2     -0.140400
     15 C29         3.9170   -0.7750    2.6780 ca        1 QN2     -0.101250
     16 C13         2.9870    0.1360    2.1780 ca        1 QN2     -0.126750
     17 C23         0.8880    0.5500   -1.1110 c3        1 QN2      0.201000
     18 C24        -0.2040    0.1910   -0.0380 c3        1 QN2      0.201000
     19 N32        -1.4070    0.9780   -0.0690 n3        1 QN2     -0.788000
     20 S9         -1.8200    1.8600    1.2540 sy        1 QN2      1.502200
     21 O11        -2.8450    2.7720    0.9160 o         1 QN2     -0.655300
     22 C27        -2.4100    0.7180    2.3430 ca        1 QN2     -0.383000
     23 C18        -1.5580    0.1450    3.2980 ca        1 QN2     -0.015000
     24 C2         -2.0380   -0.7650    4.2340 ca        1 QN2     -0.153750
     25 C6         -3.3890   -1.1170    4.2300 ca        1 QN2     -0.059500
     26 C5         -4.2530   -0.5530    3.2920 ca        1 QN2     -0.153750
     27 C20        -3.7630    0.3570    2.3570 ca        1 QN2     -0.015000
     28 O40        -0.6530    2.4230    1.8250 o         1 QN2     -0.655300
     29 C33        -2.1720    1.0350   -1.2910 c3        1 QN2      0.255100
     30 C34        -3.5280    0.3780   -1.2790 ca        1 QN2     -0.099800
     31 C38        -4.6500    1.0950   -0.8470 ca        1 QN2     -0.126750
     32 C39        -5.9180    0.5180   -0.9010 ca        1 QN2     -0.101250
     33 C37        -6.0780   -0.7800   -1.3890 ca        1 QN2      0.026400
     34 I1         -7.9150   -1.6180   -1.4580 i         1 QN2     -0.140400
     35 C36        -4.9650   -1.4930   -1.8330 ca        1 QN2     -0.101250
     36 C35        -3.6960   -0.9150   -1.7830 ca        1 QN2     -0.126750
     37 C25        -0.3920   -1.3440   -0.2410 c3        1 QN2      0.127800
     38 N22         0.8390   -1.8990   -0.7800 n3        1 QN2     -0.791200
     39 C21         1.6240   -0.8120   -1.3510 c3        1 QN2      0.127800
     40 O41         1.6270    2.2750   -3.2480 o         1 QN2     -0.655300
     41 O10         3.6340    2.7720   -2.0300 o         1 QN2     -0.655300
     42 H1          2.4920    7.0840   -0.0320 ha        1 QN2      0.144250
     43 H17         3.4310    4.8670   -0.6780 ha        1 QN2      0.150500
     44 H19        -0.3660    3.7670   -2.4220 ha        1 QN2      0.150500
     45 H3         -1.3100    5.9800   -1.7730 ha        1 QN2      0.144250
     46 H4          0.1180    7.6440   -0.5750 ha        1 QN2      0.139500
     47 H71         2.8110    2.8620    0.5030 h1        1 QN2      0.072950
     48 H72         1.4210    1.9600    1.2430 h1        1 QN2      0.072950
     49 H14         4.6820    1.1860   -0.6000 ha        1 QN2      0.155750
     50 H30         6.3320   -0.4530    0.2810 ha        1 QN2      0.146750
     51 H29         3.6960   -1.3150    3.6120 ha        1 QN2      0.146750
     52 H13         2.0460    0.3120    2.7230 ha        1 QN2      0.155750
     53 H23         0.3590    0.8000   -2.0830 h1        1 QN2      0.074700
     54 H24         0.2500    0.3300    0.9930 h1        1 QN2      0.074700
     55 H18        -0.4930    0.4400    3.3140 ha        1 QN2      0.150500
     56 H2         -1.3560   -1.2020    4.9780 ha        1 QN2      0.144250
     57 H6         -3.7720   -1.8380    4.9700 ha        1 QN2      0.139500
     58 H5         -5.3190   -0.8240    3.2870 ha        1 QN2      0.144250
     59 H20        -4.4500    0.8100    1.6180 ha        1 QN2      0.150500
     60 H331       -2.3240    2.1280   -1.5500 h1        1 QN2      0.072950
     61 H332       -1.5800    0.5670   -2.1310 h1        1 QN2      0.072950
     62 H38        -4.5300    2.1260   -0.4660 ha        1 QN2      0.155750
     63 H39        -6.7890    1.1000   -0.5600 ha        1 QN2      0.146750
     64 H36        -5.0760   -2.5140   -2.2310 ha        1 QN2      0.146750
     65 H35        -2.8320   -1.4840   -2.1610 ha        1 QN2      0.155750
     66 H251       -0.6810   -1.8300    0.7280 h1        1 QN2      0.061950
     67 H252       -1.2090   -1.5430   -0.9870 h1        1 QN2      0.061950
     68 HN22        1.3610   -2.3630   -0.0590 hn        1 QN2      0.357800
     69 H211        1.6960   -0.9910   -2.4600 h1        1 QN2      0.061950
     70 H212        2.6680   -0.7890   -0.9340 h1        1 QN2      0.061950
@<TRIPOS>BOND
     1    1    2 ar  
     2    1    6 ar  
     3    1   42 1   
     4    2    3 ar  
     5    2   43 1   
     6    3    4 ar  
     7    3    7 1   
     8    4    5 ar  
     9    4   44 1   
    10    5    6 ar  
    11    5   45 1   
    12    6   46 1   
    13    7    8 1   
    14    7   40 2   
    15    7   41 2   
    16    8    9 1   
    17    8   17 1   
    18    9   10 1   
    19    9   47 1   
    20    9   48 1   
    21   10   11 ar  
    22   10   16 ar  
    23   11   12 ar  
    24   11   49 1   
    25   12   13 ar  
    26   12   50 1   
    27   13   14 1   
    28   13   15 ar  
    29   15   16 ar  
    30   15   51 1   
    31   16   52 1   
    32   17   18 1   
    33   17   39 1   
    34   17   53 1   
    35   18   19 1   
    36   18   37 1   
    37   18   54 1   
    38   19   20 1   
    39   19   29 1   
    40   20   21 2   
    41   20   22 1   
    42   20   28 2   
    43   22   23 ar  
    44   22   27 ar  
    45   23   24 ar  
    46   23   55 1   
    47   24   25 ar  
    48   24   56 1   
    49   25   26 ar  
    50   25   57 1   
    51   26   27 ar  
    52   26   58 1   
    53   27   59 1   
    54   29   30 1   
    55   29   60 1   
    56   29   61 1   
    57   30   31 ar  
    58   30   36 ar  
    59   31   32 ar  
    60   31   62 1   
    61   32   33 ar  
    62   32   63 1   
    63   33   34 1   
    64   33   35 ar  
    65   35   36 ar  
    66   35   64 1   
    67   36   65 1   
    68   37   38 1   
    69   37   66 1   
    70   37   67 1   
    71   38   39 1   
    72   38   68 1   
    73   39   69 1   
    74   39   70 1   
@<TRIPOS>SUBSTRUCTURE
     1 QN2         1 TEMP              0 ****  ****    0 ROOT
