@<TRIPOS>MOLECULE
QN3
   72    75     1     0     0
SMALL
bcc


@<TRIPOS>ATOM
      1 C2          1.7320    0.1550    0.3560 ca        1 QN3     -0.139000
      2 C6          3.1080   -0.0870    0.4650 ca        1 QN3      0.019000
      3 C5          3.6600   -0.3900    1.7100 ca        1 QN3     -0.136000
      4 C20         2.8470   -0.4360    2.8430 ca        1 QN3      0.142400
      5 C27         1.4590   -0.1620    2.7740 ca        1 QN3     -0.535500
      6 S9          0.4500   -0.0100    4.0270 sy        1 QN3      1.482200
      7 N32         0.3060   -1.8880    4.4630 n4        1 QN3     -0.604300
      8 C24        -0.9320   -2.5180    3.9270 c3        1 QN3      0.082500
      9 C23        -2.2950   -2.2320    4.6510 c3        1 QN3      0.111500
     10 N28        -3.2250   -1.3380    3.9580 n3        1 QN3     -0.904200
     11 S8         -5.1300   -0.8650    5.3530 s4        1 QN3      1.664300
     12 O10        -5.6160   -2.1330    5.3740 o         1 QN3     -0.424900
     13 O41        -4.3080   -0.4050    6.3280 o         1 QN3     -0.424900
     14 C26        -5.8630    0.1450    4.3940 ca        1 QN3     -0.595500
     15 C19        -7.0640   -0.3200    3.7740 ca        1 QN3      0.006000
     16 C3         -7.8660    0.5030    3.0090 ca        1 QN3     -0.140000
     17 C4         -7.5060    1.8440    2.8120 ca        1 QN3      0.039000
     18 C1         -6.3220    2.3310    3.3660 ca        1 QN3     -0.150000
     19 C17        -5.5070    1.4960    4.1310 ca        1 QN3      0.165400
     20 CL1        -4.0600    2.1260    4.7300 cl        1 QN3     -0.005400
     21 C7         -3.5570   -1.5910    2.5500 c3        1 QN3      0.187100
     22 C12        -3.8980   -2.9830    2.1260 ca        1 QN3     -0.146300
     23 C13        -3.0640   -3.6440    1.2140 ca        1 QN3     -0.129000
     24 C29        -3.4190   -4.8970    0.7160 ca        1 QN3     -0.114000
     25 C31        -4.6080   -5.5020    1.1240 ca        1 QN3     -0.091000
     26 C30        -5.4440   -4.8470    2.0300 ca        1 QN3     -0.114000
     27 C14        -5.0930   -3.5920    2.5250 ca        1 QN3     -0.129000
     28 C21        -2.8670   -3.6600    4.9490 c3        1 QN3      0.141800
     29 N22        -2.1250   -4.6510    4.1960 n3        1 QN3     -0.771200
     30 C25        -0.8350   -4.0850    3.8650 c3        1 QN3      0.148800
     31 C33         0.7180   -2.2170    5.8660 c3        1 QN3      0.169100
     32 C34        -0.2520   -2.0420    6.9830 ca        1 QN3     -0.177300
     33 C35        -0.4300   -0.7900    7.5870 ca        1 QN3     -0.111500
     34 C36        -1.2120   -0.6740    8.7350 ca        1 QN3     -0.122000
     35 C37        -1.8100   -1.8050    9.2950 ca        1 QN3     -0.082000
     36 C39        -1.6250   -3.0560    8.7030 ca        1 QN3     -0.122000
     37 C38        -0.8460   -3.1770    7.5540 ca        1 QN3     -0.111500
     38 O11         0.9500    0.5620    5.1700 o         1 QN3     -0.586800
     39 O40        -0.8510    0.2950    3.6410 o         1 QN3     -0.586800
     40 C18         0.9330    0.1150    1.4840 ca        1 QN3     -0.008000
     41 CL3         3.5630   -0.8410    4.3210 cl        1 QN3     -0.019400
     42 H2          1.2920    0.3890   -0.6290 ha        1 QN3      0.183000
     43 H6          3.7550   -0.0400   -0.4310 ha        1 QN3      0.188000
     44 H5          4.7450   -0.5870    1.7980 ha        1 QN3      0.197000
     45 H24        -1.0020   -2.1400    2.8600 hx        1 QN3      0.079700
     46 H23        -2.1000   -1.7310    5.6500 h1        1 QN3      0.112700
     47 H19        -7.3670   -1.3760    3.9250 ha        1 QN3      0.181000
     48 H3         -8.7960    0.1100    2.5580 ha        1 QN3      0.192000
     49 H4         -8.1550    2.5130    2.2150 ha        1 QN3      0.191000
     50 H1         -6.0310    3.3850    3.2000 ha        1 QN3      0.196000
     51 H71        -4.4540   -0.9330    2.3350 h1        1 QN3      0.062200
     52 H72        -2.7150   -1.2130    1.8940 h1        1 QN3      0.062200
     53 H13        -2.1350   -3.1660    0.8670 ha        1 QN3      0.125500
     54 H29        -2.7650   -5.4050   -0.0110 ha        1 QN3      0.160000
     55 H31        -4.8910   -6.4900    0.7260 ha        1 QN3      0.167000
     56 H30        -6.3870   -5.3210    2.3510 ha        1 QN3      0.160000
     57 H14        -5.7660   -3.0850    3.2340 ha        1 QN3      0.125500
     58 H211       -2.6980   -3.8650    6.0460 h1        1 QN3      0.093700
     59 H212       -3.9700   -3.7360    4.7450 h1        1 QN3      0.093700
     60 HN22       -2.6250   -4.9330    3.3690 hn        1 QN3      0.388800
     61 H251       -0.0970   -4.4710    4.6230 h1        1 QN3      0.076700
     62 H252       -0.4910   -4.4010    2.8440 h1        1 QN3      0.076700
     63 H331        1.0740   -3.2920    5.8730 hx        1 QN3      0.104700
     64 H332        1.6160   -1.5550    6.0760 hx        1 QN3      0.104700
     65 H35         0.0780    0.1030    7.1860 ha        1 QN3      0.152500
     66 H36        -1.3410    0.3110    9.2110 ha        1 QN3      0.161500
     67 H37        -2.4110   -1.7130   10.2140 ha        1 QN3      0.162000
     68 H39        -2.0750   -3.9530    9.1570 ha        1 QN3      0.161500
     69 H38        -0.6790   -4.1730    7.1120 ha        1 QN3      0.152500
     70 H18        -0.1480    0.3290    1.3840 ha        1 QN3      0.166000
     71 H321        1.0480   -2.3290    3.9020 hn        1 QN3      0.435800
     72 H281       -2.8120   -0.4090    3.9810 hn        1 QN3      0.409800
@<TRIPOS>BOND
     1    1    2 ar  
     2    1   40 ar  
     3    1   42 1   
     4    2    3 ar  
     5    2   43 1   
     6    3    4 ar  
     7    3   44 1   
     8    4    5 ar  
     9    4   41 1   
    10    5    6 1   
    11    5   40 ar  
    12    6    7 1   
    13    6   38 2   
    14    6   39 2   
    15    7    8 1   
    16    7   31 1   
    17    7   71 1   
    18    8    9 1   
    19    8   30 1   
    20    8   45 1   
    21    9   10 1   
    22    9   28 1   
    23    9   46 1   
    24   10   21 1   
    25   10   72 1   
    26   11   12 1   
    27   11   13 1   
    28   11   14 1   
    29   14   15 ar  
    30   14   19 ar  
    31   15   16 ar  
    32   15   47 1   
    33   16   17 ar  
    34   16   48 1   
    35   17   18 ar  
    36   17   49 1   
    37   18   19 ar  
    38   18   50 1   
    39   19   20 1   
    40   21   22 1   
    41   21   51 1   
    42   21   52 1   
    43   22   23 ar  
    44   22   27 ar  
    45   23   24 ar  
    46   23   53 1   
    47   24   25 ar  
    48   24   54 1   
    49   25   26 ar  
    50   25   55 1   
    51   26   27 ar  
    52   26   56 1   
    53   27   57 1   
    54   28   29 1   
    55   28   58 1   
    56   28   59 1   
    57   29   30 1   
    58   29   60 1   
    59   30   61 1   
    60   30   62 1   
    61   31   32 1   
    62   31   63 1   
    63   31   64 1   
    64   32   33 ar  
    65   32   37 ar  
    66   33   34 ar  
    67   33   65 1   
    68   34   35 ar  
    69   34   66 1   
    70   35   36 ar  
    71   35   67 1   
    72   36   37 ar  
    73   36   68 1   
    74   37   69 1   
    75   40   70 1   
@<TRIPOS>SUBSTRUCTURE
     1 QN3         1 TEMP              0 ****  ****    0 ROOT
