@<TRIPOS>MOLECULE
QN3
   72    75     1     0     0
SMALL
bcc


@<TRIPOS>ATOM
      1 C2          3.4030    1.2530    3.9300 ca        1 QN3     -0.134000
      2 C6          3.1960    1.9440    5.1280 ca        1 QN3      0.019000
      3 C5          1.9490    1.8860    5.7580 ca        1 QN3     -0.137000
      4 C20         0.9150    1.1510    5.1840 ca        1 QN3      0.137400
      5 C27         1.0780    0.4690    3.9540 ca        1 QN3     -0.527500
      6 S9         -0.0740   -0.2800    3.1150 sy        1 QN3      1.480200
      7 N32        -0.4020   -1.7760    4.2540 nx        1 QN3     -0.616300
      8 C24        -1.6650   -2.4680    3.8620 c3        1 QN3      0.072500
      9 C23        -2.9670   -1.7380    4.3700 c3        1 QN3      0.108500
     10 N28        -3.8230   -1.1440    3.3450 n7        1 QN3     -0.906200
     11 S8         -5.5730    0.1320    4.4170 s4        1 QN3      1.668300
     12 O10        -6.2610   -0.9360    4.8990 o         1 QN3     -0.427400
     13 O41        -4.6480    0.7660    5.1790 o         1 QN3     -0.427400
     14 C26        -6.1550    0.8120    3.1260 ca        1 QN3     -0.598500
     15 C19        -7.4270    0.3410    2.6720 ca        1 QN3      0.007000
     16 C3         -8.0990    0.9270    1.6200 ca        1 QN3     -0.140000
     17 C4         -7.5300    2.0180    0.9470 ca        1 QN3      0.041000
     18 C1         -6.2730    2.4870    1.3300 ca        1 QN3     -0.151000
     19 C17        -5.5900    1.8890    2.3880 ca        1 QN3      0.165400
     20 Cl1        -4.0480    2.4570    2.7690 cl        1 QN3      0.000600
     21 C7         -4.2440   -1.9490    2.1910 c3        1 QN3      0.187100
     22 C12        -4.7540   -3.3360    2.4200 ca        1 QN3     -0.150300
     23 C13        -4.0560   -4.4150    1.8600 ca        1 QN3     -0.128500
     24 C29        -4.5680   -5.7080    1.9570 ca        1 QN3     -0.116000
     25 C31        -5.7790   -5.9360    2.6130 ca        1 QN3     -0.091000
     26 C30        -6.4790   -4.8640    3.1690 ca        1 QN3     -0.116000
     27 C14        -5.9720   -3.5680    3.0680 ca        1 QN3     -0.128500
     28 C21        -3.6670   -2.8080    5.2750 c3        1 QN3      0.144800
     29 N22        -3.1140   -4.1140    4.9890 n7        1 QN3     -0.773200
     30 C25        -1.7950   -3.9280    4.4230 c3        1 QN3      0.145800
     31 C33         0.7920   -2.6810    4.2010 c3        1 QN3      0.179100
     32 C34         1.2360   -3.1960    5.5310 ca        1 QN3     -0.171300
     33 C35         1.5710   -2.3090    6.5610 ca        1 QN3     -0.113500
     34 C36         2.0370   -2.7980    7.7790 ca        1 QN3     -0.109000
     35 C37         2.1790   -4.1740    7.9720 ca        1 QN3     -0.079000
     36 C39         1.8540   -5.0590    6.9440 ca        1 QN3     -0.109000
     37 C38         1.3790   -4.5740    5.7250 ca        1 QN3     -0.113500
     38 O11        -1.3200    0.3290    3.0950 o         1 QN3     -0.594800
     39 O40         0.3580   -0.8810    1.9460 o         1 QN3     -0.594800
     40 C18         2.3680    0.5300    3.3610 ca        1 QN3      0.005000
     41 Cl3        -0.5710    1.0710    6.0000 cl        1 QN3     -0.045400
     42 H2          4.3910    1.2870    3.4350 ha        1 QN3      0.190000
     43 H6          4.0150    2.5330    5.5820 ha        1 QN3      0.188000
     44 H5          1.7880    2.4250    6.7100 ha        1 QN3      0.193000
     45 H24        -1.6490   -2.5230    2.7330 hx        1 QN3      0.099700
     46 H23        -2.6840   -0.8660    5.0390 h1        1 QN3      0.085700
     47 H19        -7.8930   -0.5190    3.1970 ha        1 QN3      0.182000
     48 H3         -9.0880    0.5420    1.3080 ha        1 QN3      0.193000
     49 H4         -8.0720    2.5020    0.1130 ha        1 QN3      0.191000
     50 H1         -5.8170    3.3390    0.7900 ha        1 QN3      0.196000
     51 H71        -5.0740   -1.3510    1.7030 h1        1 QN3      0.065700
     52 H72        -3.3980   -2.0030    1.4410 h1        1 QN3      0.065700
     53 H13        -3.1130   -4.2450    1.3190 ha        1 QN3      0.132000
     54 H29        -4.0220   -6.5510    1.5020 ha        1 QN3      0.160500
     55 H31        -6.1860   -6.9580    2.6840 ha        1 QN3      0.166000
     56 H30        -7.4380   -5.0390    3.6820 ha        1 QN3      0.160500
     57 H14        -6.5440   -2.7330    3.5000 ha        1 QN3      0.132000
     58 H211       -4.7850   -2.8040    5.1610 h1        1 QN3      0.091200
     59 H212       -3.4210   -2.5560    6.3450 h1        1 QN3      0.091200
     60 HN22       -3.7110   -4.6390    4.3710 hn        1 QN3      0.391800
     61 H251       -1.0520   -4.1080    5.2520 h1        1 QN3      0.087200
     62 H252       -1.5910   -4.6610    3.5960 h1        1 QN3      0.087200
     63 H331        1.6390   -2.0750    3.7540 hx        1 QN3      0.099200
     64 H332        0.5770   -3.5350    3.4940 hx        1 QN3      0.099200
     65 H35         1.4900   -1.2210    6.4100 ha        1 QN3      0.129000
     66 H36         2.3000   -2.0990    8.5890 ha        1 QN3      0.161500
     67 H37         2.5530   -4.5600    8.9350 ha        1 QN3      0.167000
     68 H39         1.9750   -6.1450    7.0910 ha        1 QN3      0.161500
     69 H38         1.1320   -5.2800    4.9170 ha        1 QN3      0.129000
     70 H18         2.5450   -0.0060    2.4060 ha        1 QN3      0.183000
     71 H321       -0.5060   -1.4710    5.2250 hn        1 QN3      0.451800
     72 H281       -3.3170   -0.3500    2.9600 hn        1 QN3      0.408800
@<TRIPOS>BOND
     1    1    2 ar  
     2    1   40 ar  
     3    1   42 1   
     4    2    3 ar  
     5    2   43 1   
     6    3    4 ar  
     7    3   44 1   
     8    4    5 ar  
     9    4   41 1   
    10    5    6 1   
    11    5   40 ar  
    12    6    7 1   
    13    6   38 2   
    14    6   39 2   
    15    7    8 1   
    16    7   31 1   
    17    7   71 1   
    18    8    9 1   
    19    8   30 1   
    20    8   45 1   
    21    9   10 1   
    22    9   28 1   
    23    9   46 1   
    24   10   21 1   
    25   10   72 1   
    26   11   12 1   
    27   11   13 1   
    28   11   14 1   
    29   14   15 ar  
    30   14   19 ar  
    31   15   16 ar  
    32   15   47 1   
    33   16   17 ar  
    34   16   48 1   
    35   17   18 ar  
    36   17   49 1   
    37   18   19 ar  
    38   18   50 1   
    39   19   20 1   
    40   21   22 1   
    41   21   51 1   
    42   21   52 1   
    43   22   23 ar  
    44   22   27 ar  
    45   23   24 ar  
    46   23   53 1   
    47   24   25 ar  
    48   24   54 1   
    49   25   26 ar  
    50   25   55 1   
    51   26   27 ar  
    52   26   56 1   
    53   27   57 1   
    54   28   29 1   
    55   28   58 1   
    56   28   59 1   
    57   29   30 1   
    58   29   60 1   
    59   30   61 1   
    60   30   62 1   
    61   31   32 1   
    62   31   63 1   
    63   31   64 1   
    64   32   33 ar  
    65   32   37 ar  
    66   33   34 ar  
    67   33   65 1   
    68   34   35 ar  
    69   34   66 1   
    70   35   36 ar  
    71   35   67 1   
    72   36   37 ar  
    73   36   68 1   
    74   37   69 1   
    75   40   70 1   
@<TRIPOS>SUBSTRUCTURE
     1 QN3         1 TEMP              0 ****  ****    0 ROOT
