@<TRIPOS>MOLECULE
QN3
   72    75     1     0     0
SMALL
bcc


@<TRIPOS>ATOM
      1 C2          1.6590    0.1930    0.2970 ca        1 QN3     -0.139000
      2 C6          3.0390   -0.0290    0.3900 ca        1 QN3      0.019000
      3 C5          3.6110   -0.3160    1.6290 ca        1 QN3     -0.136000
      4 C20         2.8130   -0.3670    2.7730 ca        1 QN3      0.142400
      5 C27         1.4200   -0.1140    2.7200 ca        1 QN3     -0.535500
      6 S9          0.4250    0.0310    3.9850 sy        1 QN3      1.482200
      7 N32         0.3150   -1.8460    4.4340 n4        1 QN3     -0.604300
      8 C24        -0.9190   -2.4980    3.9170 c3        1 QN3      0.082500
      9 C23        -2.2770   -2.2290    4.6550 c3        1 QN3      0.111500
     10 N28        -3.2300   -1.3530    3.9690 n3        1 QN3     -0.904200
     11 S8         -5.1270   -0.9030    5.3810 s4        1 QN3      1.664300
     12 O10        -5.5940   -2.1790    5.4100 o         1 QN3     -0.424900
     13 O41        -4.3020   -0.4300    6.3470 o         1 QN3     -0.424900
     14 C26        -5.8840    0.0930    4.4270 ca        1 QN3     -0.595500
     15 C19        -7.0830   -0.3910    3.8180 ca        1 QN3      0.006000
     16 C3         -7.9050    0.4170    3.0600 ca        1 QN3     -0.140000
     17 C4         -7.5670    1.7630    2.8560 ca        1 QN3      0.039000
     18 C1         -6.3850    2.2690    3.3990 ca        1 QN3     -0.151000
     19 C17        -5.5510    1.4490    4.1570 ca        1 QN3      0.165400
     20 CL1        -4.1080    2.1010    4.7420 cl        1 QN3     -0.005400
     21 C7         -3.5720   -1.6170    2.5660 c3        1 QN3      0.187100
     22 C12        -3.8930   -3.0170    2.1500 ca        1 QN3     -0.146300
     23 C13        -3.0580   -3.6660    1.2320 ca        1 QN3     -0.129000
     24 C29        -3.3950   -4.9270    0.7420 ca        1 QN3     -0.114000
     25 C31        -4.5690   -5.5510    1.1650 ca        1 QN3     -0.091000
     26 C30        -5.4070   -4.9080    2.0780 ca        1 QN3     -0.114000
     27 C14        -5.0730   -3.6450    2.5640 ca        1 QN3     -0.129000
     28 C21        -2.8250   -3.6640    4.9670 c3        1 QN3      0.141800
     29 N22        -2.0770   -4.6470    4.2100 n3        1 QN3     -0.771200
     30 C25        -0.7990   -4.0640    3.8630 c3        1 QN3      0.148800
     31 C33         0.7480   -2.1600    5.8340 c3        1 QN3      0.169100
     32 C34        -0.2100   -1.9910    6.9610 ca        1 QN3     -0.177300
     33 C35        -0.3990   -0.7380    7.5590 ca        1 QN3     -0.111500
     34 C36        -1.1690   -0.6250    8.7160 ca        1 QN3     -0.122000
     35 C37        -1.7440   -1.7600    9.2900 ca        1 QN3     -0.081000
     36 C39        -1.5490   -3.0120    8.7040 ca        1 QN3     -0.122000
     37 C38        -0.7830   -3.1300    7.5460 ca        1 QN3     -0.111500
     38 O11         0.9320    0.6180    5.1180 o         1 QN3     -0.586800
     39 O40        -0.8850    0.3140    3.6130 o         1 QN3     -0.586800
     40 C18         0.8750    0.1480    1.4350 ca        1 QN3     -0.008000
     41 CL3         3.5530   -0.7530    4.2440 cl        1 QN3     -0.019400
     42 H2          1.2020    0.4150   -0.6840 ha        1 QN3      0.183000
     43 H6          3.6740    0.0220   -0.5140 ha        1 QN3      0.188000
     44 H5          4.7000   -0.4970    1.7050 ha        1 QN3      0.197000
     45 H24        -1.0080   -2.1270    2.8490 hx        1 QN3      0.079700
     46 H23        -2.0790   -1.7200    5.6490 h1        1 QN3      0.112700
     47 H19        -7.3680   -1.4520    3.9750 ha        1 QN3      0.181000
     48 H3         -8.8320    0.0090    2.6180 ha        1 QN3      0.192000
     49 H4         -8.2310    2.4210    2.2640 ha        1 QN3      0.191000
     50 H1         -6.1120    3.3270    3.2280 ha        1 QN3      0.196000
     51 H71        -2.7450   -1.2260    1.8990 h1        1 QN3      0.062200
     52 H72        -4.4830   -0.9760    2.3580 h1        1 QN3      0.062200
     53 H13        -2.1410   -3.1730    0.8730 ha        1 QN3      0.125500
     54 H29        -2.7400   -5.4260    0.0100 ha        1 QN3      0.160000
     55 H31        -4.8380   -6.5460    0.7740 ha        1 QN3      0.167000
     56 H30        -6.3370   -5.3970    2.4110 ha        1 QN3      0.160000
     57 H14        -5.7480   -3.1470    3.2780 ha        1 QN3      0.125500
     58 H211       -2.6400   -3.8600    6.0630 h1        1 QN3      0.093700
     59 H212       -3.9280   -3.7570    4.7760 h1        1 QN3      0.093700
     60 HN22       -2.5810   -4.9400    3.3900 hn        1 QN3      0.388800
     61 H251       -0.0470   -4.4340    4.6150 h1        1 QN3      0.076700
     62 H252       -0.4600   -4.3800    2.8400 h1        1 QN3      0.076700
     63 H331        1.6390   -1.4830    6.0300 hx        1 QN3      0.104700
     64 H332        1.1200   -3.2290    5.8440 hx        1 QN3      0.104700
     65 H35         0.0920    0.1600    7.1480 ha        1 QN3      0.152500
     66 H36        -1.3060    0.3610    9.1880 ha        1 QN3      0.161500
     67 H37        -2.3370   -1.6710   10.2160 ha        1 QN3      0.162000
     68 H39        -1.9820   -3.9130    9.1680 ha        1 QN3      0.161500
     69 H38        -0.6070   -4.1270    7.1090 ha        1 QN3      0.152500
     70 H18        -0.2110    0.3450    1.3480 ha        1 QN3      0.166000
     71 H321        1.0570   -2.2800    3.8670 hn        1 QN3      0.435800
     72 H281       -2.8300   -0.4170    3.9840 hn        1 QN3      0.409800
@<TRIPOS>BOND
     1    1    2 ar  
     2    1   40 ar  
     3    1   42 1   
     4    2    3 ar  
     5    2   43 1   
     6    3    4 ar  
     7    3   44 1   
     8    4    5 ar  
     9    4   41 1   
    10    5    6 1   
    11    5   40 ar  
    12    6    7 1   
    13    6   38 2   
    14    6   39 2   
    15    7    8 1   
    16    7   31 1   
    17    7   71 1   
    18    8    9 1   
    19    8   30 1   
    20    8   45 1   
    21    9   10 1   
    22    9   28 1   
    23    9   46 1   
    24   10   21 1   
    25   10   72 1   
    26   11   12 1   
    27   11   13 1   
    28   11   14 1   
    29   14   15 ar  
    30   14   19 ar  
    31   15   16 ar  
    32   15   47 1   
    33   16   17 ar  
    34   16   48 1   
    35   17   18 ar  
    36   17   49 1   
    37   18   19 ar  
    38   18   50 1   
    39   19   20 1   
    40   21   22 1   
    41   21   51 1   
    42   21   52 1   
    43   22   23 ar  
    44   22   27 ar  
    45   23   24 ar  
    46   23   53 1   
    47   24   25 ar  
    48   24   54 1   
    49   25   26 ar  
    50   25   55 1   
    51   26   27 ar  
    52   26   56 1   
    53   27   57 1   
    54   28   29 1   
    55   28   58 1   
    56   28   59 1   
    57   29   30 1   
    58   29   60 1   
    59   30   61 1   
    60   30   62 1   
    61   31   32 1   
    62   31   63 1   
    63   31   64 1   
    64   32   33 ar  
    65   32   37 ar  
    66   33   34 ar  
    67   33   65 1   
    68   34   35 ar  
    69   34   66 1   
    70   35   36 ar  
    71   35   67 1   
    72   36   37 ar  
    73   36   68 1   
    74   37   69 1   
    75   40   70 1   
@<TRIPOS>SUBSTRUCTURE
     1 QN3         1 TEMP              0 ****  ****    0 ROOT
