@<TRIPOS>MOLECULE
QN3
   70    74     1     0     0
SMALL
bcc


@<TRIPOS>ATOM
      1 C2          1.3330   -5.3240    0.6000 ca        1 QN3     -0.154500
      2 C6          2.4680   -5.7480    1.2920 ca        1 QN3     -0.059500
      3 C5          3.5270   -4.8670    1.4860 ca        1 QN3     -0.155000
      4 C20         3.4510   -3.5610    0.9850 ca        1 QN3      0.127400
      5 C27         2.3270   -3.1120    0.2760 ca        1 QN3     -0.359500
      6 S9          2.1170   -1.5780   -0.4540 sy        1 QN3      1.496200
      7 N32         1.6430   -0.6290    0.7910 n3        1 QN3     -0.793000
      8 C24         0.3040   -0.7520    1.3180 c3        1 QN3      0.199000
      9 C23        -0.5280    0.5820    1.3500 c3        1 QN3      0.199000
     10 N28        -1.5920    0.7410    0.3830 n3        1 QN3     -0.793000
     11 S8         -2.5720    2.0440    0.5430 sy        1 QN3      1.496200
     12 O10        -3.8580    1.6380    0.9680 o         1 QN3     -0.650550
     13 O41        -1.9700    3.0190    1.3640 o         1 QN3     -0.650550
     14 C26        -2.7350    2.6390   -1.0460 ca        1 QN3     -0.359500
     15 C19        -4.0300    2.6660   -1.5900 ca        1 QN3     -0.027500
     16 C3         -4.2810    3.1970   -2.8500 ca        1 QN3     -0.154500
     17 C4         -3.2300    3.7180   -3.6050 ca        1 QN3     -0.059500
     18 C1         -1.9340    3.7010   -3.0960 ca        1 QN3     -0.155000
     19 C17        -1.6940    3.1620   -1.8270 ca        1 QN3      0.127400
     20 CL1        -0.0980    3.1510   -1.2540 cl        1 QN3     -0.061400
     21 C7         -1.7830   -0.2180   -0.6690 c3        1 QN3      0.260100
     22 C12        -2.4770   -1.5060   -0.3180 ca        1 QN3     -0.119800
     23 C13        -2.0240   -2.6810   -0.9340 ca        1 QN3     -0.123250
     24 C29        -2.6730   -3.8910   -0.6970 ca        1 QN3     -0.133750
     25 C31        -3.7720   -3.9390    0.1620 ca        1 QN3     -0.127500
     26 C30        -4.2230   -2.7730    0.7770 ca        1 QN3     -0.133750
     27 C14        -3.5820   -1.5570    0.5360 ca        1 QN3     -0.123250
     28 C21        -1.0520    0.6630    2.8320 c3        1 QN3      0.114800
     29 N22        -0.2830   -0.2430    3.6660 n3        1 QN3     -0.777200
     30 C25         0.2460   -1.2780    2.7950 c3        1 QN3      0.114800
     31 C33         2.5810    0.2280    1.4760 c3        1 QN3      0.260100
     32 C34         2.7210    1.6380    0.9720 ca        1 QN3     -0.119800
     33 C35         3.4120    1.8970   -0.2170 ca        1 QN3     -0.123250
     34 C36         3.6190    3.2120   -0.6320 ca        1 QN3     -0.133750
     35 C37         3.1420    4.2740    0.1370 ca        1 QN3     -0.127500
     36 C39         2.4540    4.0190    1.3230 ca        1 QN3     -0.133750
     37 C38         2.2430    2.7060    1.7400 ca        1 QN3     -0.123250
     38 O11         3.3330   -1.1280   -1.0000 o         1 QN3     -0.650550
     39 O40         1.0560   -1.7150   -1.3830 o         1 QN3     -0.650550
     40 C18         1.2720   -4.0270    0.1050 ca        1 QN3     -0.027500
     41 CL3         4.7810   -2.5460    1.2780 cl        1 QN3     -0.061400
     42 H2          0.4880   -6.0130    0.4460 ha        1 QN3      0.147000
     43 H6          2.5280   -6.7750    1.6850 ha        1 QN3      0.144000
     44 H5          4.4260   -5.1960    2.0310 ha        1 QN3      0.155500
     45 H24        -0.2280   -1.5220    0.6780 h1        1 QN3      0.083700
     46 H23         0.1830    1.4520    1.1930 h1        1 QN3      0.083700
     47 H19        -4.8690    2.2570   -0.9940 ha        1 QN3      0.171000
     48 H3         -5.3070    3.2070   -3.2490 ha        1 QN3      0.147000
     49 H4         -3.4210    4.1420   -4.6040 ha        1 QN3      0.144000
     50 H1         -1.1010    4.1090   -3.6900 ha        1 QN3      0.155500
     51 H71        -2.4090    0.2760   -1.4750 h1        1 QN3      0.067200
     52 H72        -0.7820   -0.4580   -1.1420 h1        1 QN3      0.067200
     53 H13        -1.1550   -2.6370   -1.6140 ha        1 QN3      0.155000
     54 H29        -2.3200   -4.8070   -1.1910 ha        1 QN3      0.134250
     55 H31        -4.2830   -4.8950    0.3490 ha        1 QN3      0.131000
     56 H30        -5.0900   -2.8060    1.4530 ha        1 QN3      0.134250
     57 H14        -3.9590   -0.6380    1.0200 ha        1 QN3      0.155000
     58 H211       -0.9820    1.7250    3.1940 h1        1 QN3      0.071200
     59 H212       -2.1290    0.3390    2.8910 h1        1 QN3      0.071200
     60 HN22        0.4670    0.2520    4.1160 hn        1 QN3      0.348800
     61 H251       -0.4760   -2.1410    2.8220 h1        1 QN3      0.071200
     62 H252        1.2400   -1.6480    3.1580 h1        1 QN3      0.071200
     63 H331        2.3090    0.2670    2.5720 h1        1 QN3      0.067200
     64 H332        3.6050   -0.2520    1.3990 h1        1 QN3      0.067200
     65 H35         3.8040    1.0600   -0.8220 ha        1 QN3      0.155000
     66 H36         4.1640    3.4090   -1.5670 ha        1 QN3      0.134250
     67 H37         3.3090    5.3110   -0.1910 ha        1 QN3      0.131000
     68 H39         2.0700    4.8530    1.9290 ha        1 QN3      0.134250
     69 H38         1.6980    2.5140    2.6770 ha        1 QN3      0.155000
     70 H18         0.3660   -3.7060   -0.4490 ha        1 QN3      0.171000
@<TRIPOS>BOND
     1    1    2 ar  
     2    1   40 ar  
     3    1   42 1   
     4    2    3 ar  
     5    2   43 1   
     6    3    4 ar  
     7    3   44 1   
     8    4    5 ar  
     9    4   41 1   
    10    5    6 1   
    11    5   40 ar  
    12    6    7 1   
    13    6   38 2   
    14    6   39 2   
    15    7    8 1   
    16    7   31 1   
    17    8    9 1   
    18    8   30 1   
    19    8   45 1   
    20    9   10 1   
    21    9   28 1   
    22    9   46 1   
    23   10   11 1   
    24   10   21 1   
    25   11   12 2   
    26   11   13 2   
    27   11   14 1   
    28   14   15 ar  
    29   14   19 ar  
    30   15   16 ar  
    31   15   47 1   
    32   16   17 ar  
    33   16   48 1   
    34   17   18 ar  
    35   17   49 1   
    36   18   19 ar  
    37   18   50 1   
    38   19   20 1   
    39   21   22 1   
    40   21   51 1   
    41   21   52 1   
    42   22   23 ar  
    43   22   27 ar  
    44   23   24 ar  
    45   23   53 1   
    46   24   25 ar  
    47   24   54 1   
    48   25   26 ar  
    49   25   55 1   
    50   26   27 ar  
    51   26   56 1   
    52   27   57 1   
    53   28   29 1   
    54   28   58 1   
    55   28   59 1   
    56   29   30 1   
    57   29   60 1   
    58   30   61 1   
    59   30   62 1   
    60   31   32 1   
    61   31   63 1   
    62   31   64 1   
    63   32   33 ar  
    64   32   37 ar  
    65   33   34 ar  
    66   33   65 1   
    67   34   35 ar  
    68   34   66 1   
    69   35   36 ar  
    70   35   67 1   
    71   36   37 ar  
    72   36   68 1   
    73   37   69 1   
    74   40   70 1   
@<TRIPOS>SUBSTRUCTURE
     1 QN3         1 TEMP              0 ****  ****    0 ROOT
