@<TRIPOS>MOLECULE
QN7
   53    57     1     0     0
SMALL
bcc


@<TRIPOS>ATOM
      1 C1          7.9690    0.3090    1.1490 c3        1 QN7      0.112700
      2 O2          6.6460   -0.0870    1.4940 os        1 QN7     -0.313900
      3 C3          5.7400   -0.1450    0.4540 ca        1 QN7      0.090100
      4 C4          6.0420    0.1110   -0.8830 ca        1 QN7     -0.181000
      5 C5          5.0340    0.0150   -1.8430 ca        1 QN7     -0.110000
      6 C6          3.7390   -0.3310   -1.4770 ca        1 QN7     -0.132000
      7 C7          3.4090   -0.5950   -0.1380 cp        1 QN7     -0.039000
      8 C8          4.4190   -0.5010    0.8430 ca        1 QN7      0.112900
      9 F9          4.1620   -0.7350    2.1500 f         1 QN7     -0.123900
     10 C10         2.0330   -0.9560    0.2020 cp        1 QN7     -0.046000
     11 C11         1.7590   -2.0190    1.0730 ca        1 QN7     -0.096000
     12 C12         0.4410   -2.3700    1.3510 ca        1 QN7     -0.133000
     13 C13        -0.6160   -1.6650    0.7770 ca        1 QN7     -0.100000
     14 C14        -0.3550   -0.5840   -0.0710 ca        1 QN7     -0.076300
     15 C15         0.9690   -0.2450   -0.3690 ca        1 QN7     -0.085000
     16 C16        -1.4750    0.1870   -0.7360 c3        1 QN7      0.216500
     17 C17        -2.8150    0.0700    0.0820 c2        1 QN7      0.574200
     18 N18        -3.0240    0.4040    1.3120 n2        1 QN7     -0.587900
     19 C19        -4.3230    0.1500    1.8670 c3        1 QN7      0.073800
     20 C20        -5.0840   -1.0730    1.2430 c3        1 QN7      0.367600
     21 C21        -4.9530   -1.1310   -0.3280 c3        1 QN7      0.162800
     22 N22        -3.7890   -0.4640   -0.8280 nh        1 QN7     -0.756600
     23 C23        -3.0690   -0.8490   -2.0240 c2        1 QN7      0.763100
     24 N24        -1.8000   -0.4400   -2.0450 n2        1 QN7     -0.655900
     25 N25        -3.7040   -1.6150   -3.0180 nh        1 QN7     -0.868800
     26 F26        -4.6570   -2.2600    1.8020 f         1 QN7     -0.231800
     27 F27        -6.4180   -1.0510    1.5930 f         1 QN7     -0.231800
     28 C28        -1.1360    1.6590   -0.8310 ca        1 QN7     -0.044300
     29 C29        -1.1840    2.3730   -2.0340 ca        1 QN7     -0.218300
     30 C30        -0.8660    3.7440   -2.0170 ca        1 QN7      0.382700
     31 N31        -0.5140    4.4190   -0.9070 nb        1 QN7     -0.659000
     32 C32        -0.4650    3.7180    0.2430 ca        1 QN7      0.382700
     33 C33        -0.7610    2.3480    0.3330 ca        1 QN7     -0.218300
     34 H11C        8.5040    0.3040    2.1330 h1        1 QN7      0.046367
     35 H12C        8.4300   -0.4280    0.4460 h1        1 QN7      0.046367
     36 H13C        7.9730    1.3320    0.7020 h1        1 QN7      0.046367
     37 H4          7.0620    0.3860   -1.1870 ha        1 QN7      0.142000
     38 H5          5.2700    0.2150   -2.8980 ha        1 QN7      0.138000
     39 H6          2.9530   -0.4090   -2.2440 ha        1 QN7      0.146000
     40 H11         2.5910   -2.5720    1.5370 ha        1 QN7      0.145000
     41 H15         1.1780    0.5930   -1.0540 ha        1 QN7      0.147000
     42 H12         0.2300   -3.2120    2.0280 ha        1 QN7      0.138000
     43 H13        -1.6490   -1.9700    1.0020 ha        1 QN7      0.135000
     44 H191       -4.1820   -0.0520    2.9660 h1        1 QN7      0.093700
     45 H192       -4.9820    1.0560    1.7490 h1        1 QN7      0.093700
     46 H211       -4.9750   -2.2170   -0.6300 h1        1 QN7      0.079200
     47 H212       -5.8620   -0.6200   -0.7600 h1        1 QN7      0.079200
     48 H251       -4.6610   -1.3750   -3.1640 hn        1 QN7      0.413800
     49 H252       -3.1760   -1.6810   -3.8640 hn        1 QN7      0.413800
     50 H29        -1.4520    1.8970   -2.9870 ha        1 QN7      0.160500
     51 H33        -0.6990    1.8290    1.3010 ha        1 QN7      0.160500
     52 H30        -0.8950    4.3350   -2.9500 h4        1 QN7      0.022600
     53 H32        -0.1710    4.2890    1.1420 h4        1 QN7      0.022600
@<TRIPOS>BOND
     1    1    2 1   
     2    1   34 1   
     3    1   35 1   
     4    1   36 1   
     5    2    3 1   
     6    3    4 ar  
     7    3    8 ar  
     8    4    5 ar  
     9    4   37 1   
    10    5    6 ar  
    11    5   38 1   
    12    6    7 ar  
    13    6   39 1   
    14    7    8 ar  
    15    7   10 1   
    16    8    9 1   
    17   10   11 ar  
    18   10   15 ar  
    19   11   12 ar  
    20   11   40 1   
    21   12   13 ar  
    22   12   42 1   
    23   13   14 ar  
    24   13   43 1   
    25   14   15 ar  
    26   14   16 1   
    27   15   41 1   
    28   16   17 1   
    29   16   24 1   
    30   16   28 1   
    31   17   18 2   
    32   17   22 1   
    33   18   19 1   
    34   19   20 1   
    35   19   44 1   
    36   19   45 1   
    37   20   21 1   
    38   20   26 1   
    39   20   27 1   
    40   21   22 1   
    41   21   46 1   
    42   21   47 1   
    43   22   23 1   
    44   23   24 2   
    45   23   25 1   
    46   25   48 1   
    47   25   49 1   
    48   28   29 ar  
    49   28   33 ar  
    50   29   30 ar  
    51   29   50 1   
    52   30   31 ar  
    53   30   52 1   
    54   31   32 ar  
    55   32   33 ar  
    56   32   53 1   
    57   33   51 1   
@<TRIPOS>SUBSTRUCTURE
     1 QN7         1 TEMP              0 ****  ****    0 ROOT
