@<TRIPOS>MOLECULE
QN7
   54    58     1     0     0
SMALL
bcc


@<TRIPOS>ATOM
      1 C1          0.8780   -0.1140   -1.2670 c3        1 QN7      0.109700
      2 O2          2.1110   -0.4650   -0.6420 os        1 QN7     -0.309900
      3 C3          2.3570    0.1110    0.5840 ca        1 QN7      0.102100
      4 C4          1.4980    0.9900    1.2460 ca        1 QN7     -0.170000
      5 C5          1.8680    1.5050    2.4890 ca        1 QN7     -0.103000
      6 C6          3.0800    1.1530    3.0700 ca        1 QN7     -0.135000
      7 C7          3.9600    0.2700    2.4260 cp        1 QN7     -0.067000
      8 C8          3.6000   -0.2610    1.1710 ca        1 QN7      0.116900
      9 F9          4.4140   -1.1090    0.5040 f         1 QN7     -0.120900
     10 C10         5.2270   -0.0800    3.0680 cp        1 QN7     -0.018000
     11 C11         5.6700   -1.4090    3.1140 ca        1 QN7     -0.076000
     12 C12         6.8730   -1.7260    3.7440 ca        1 QN7     -0.123000
     13 C13         7.6460   -0.7260    4.3270 ca        1 QN7     -0.117000
     14 C14         7.2230    0.6070    4.2700 ca        1 QN7     -0.117300
     15 C15         6.0090    0.9250    3.6570 ca        1 QN7     -0.076000
     16 C16         8.0500    1.7000    4.9030 c3        1 QN7      0.235500
     17 C17         9.5830    1.3410    4.8780 c2        1 QN7      0.537200
     18 N18        10.3210    1.0870    3.8610 n2        1 QN7     -0.512900
     19 C19        11.6900    0.7040    4.0190 c3        1 QN7      0.058800
     20 C20        12.2480    0.5590    5.4830 c3        1 QN7      0.399600
     21 C21        11.0950    0.4130    6.5610 c3        1 QN7      0.112800
     22 N22        10.0460    1.3530    6.2700 nh        1 QN7     -0.704600
     23 C23         8.8400    1.4810    7.0350 c2        1 QN7      0.596100
     24 N24         7.7340    1.7480    6.3720 n2        1 QN7     -0.503900
     25 N25         8.8960    1.4530    8.5130 nz        1 QN7     -0.778600
     26 F26        13.0860   -0.5280    5.5890 f         1 QN7     -0.211800
     27 F27        13.0720    1.6100    5.8140 f         1 QN7     -0.211800
     28 C28         7.8730    3.0320    4.2130 ca        1 QN7     -0.068300
     29 C29         7.4760    4.1960    4.8810 ca        1 QN7     -0.223300
     30 C30         7.3620    5.3890    4.1400 ca        1 QN7      0.403200
     31 N31         7.6110    5.4760    2.8210 nb        1 QN7     -0.632000
     32 C32         7.9820    4.3460    2.1890 ca        1 QN7      0.403200
     33 C33         8.1230    3.1040    2.8350 ca        1 QN7     -0.223300
     34 H11C        0.9080   -0.6900   -2.2270 h1        1 QN7      0.053367
     35 H12C        0.0130   -0.4370   -0.6390 h1        1 QN7      0.053367
     36 H13C        0.8360    0.9840   -1.4640 h1        1 QN7      0.053367
     37 H4          0.5360    1.2770    0.7980 ha        1 QN7      0.153000
     38 H5          1.1890    2.1970    3.0110 ha        1 QN7      0.145000
     39 H6          3.3560    1.5640    4.0530 ha        1 QN7      0.136000
     40 H11         5.0680   -2.2020    2.6390 ha        1 QN7      0.164000
     41 H15         5.6630    1.9710    3.6180 ha        1 QN7      0.155000
     42 H12         7.2140   -2.7730    3.7760 ha        1 QN7      0.149000
     43 H13         8.5950   -0.9940    4.8150 ha        1 QN7      0.113000
     44 H191       12.3260    1.4700    3.4840 h1        1 QN7      0.126700
     45 H192       11.8230   -0.2880    3.4950 h1        1 QN7      0.126700
     46 H211       10.7480   -0.6590    6.5360 h1        1 QN7      0.077200
     47 H212       11.5390    0.6350    7.5700 h1        1 QN7      0.077200
     48 H251        9.3080    0.5650    8.8230 hn        1 QN7      0.484133
     49 H252        7.9450    1.5460    8.9010 hn        1 QN7      0.484133
     50 H29         7.2360    4.2160    5.9510 ha        1 QN7      0.156000
     51 H33         8.4170    2.2130    2.2600 ha        1 QN7      0.156000
     52 H30         7.0500    6.3280    4.6340 h4        1 QN7      0.040600
     53 H32         8.1740    4.4400    1.1030 h4        1 QN7      0.040600
     54 H253        9.4780    2.2380    8.8380 hn        1 QN7      0.484133
@<TRIPOS>BOND
     1    1    2 1   
     2    1   34 1   
     3    1   35 1   
     4    1   36 1   
     5    2    3 1   
     6    3    4 ar  
     7    3    8 ar  
     8    4    5 ar  
     9    4   37 1   
    10    5    6 ar  
    11    5   38 1   
    12    6    7 ar  
    13    6   39 1   
    14    7    8 ar  
    15    7   10 1   
    16    8    9 1   
    17   10   11 ar  
    18   10   15 ar  
    19   11   12 ar  
    20   11   40 1   
    21   12   13 ar  
    22   12   42 1   
    23   13   14 ar  
    24   13   43 1   
    25   14   15 ar  
    26   14   16 1   
    27   15   41 1   
    28   16   17 1   
    29   16   24 1   
    30   16   28 1   
    31   17   18 2   
    32   17   22 1   
    33   18   19 1   
    34   19   20 1   
    35   19   44 1   
    36   19   45 1   
    37   20   21 1   
    38   20   26 1   
    39   20   27 1   
    40   21   22 1   
    41   21   46 1   
    42   21   47 1   
    43   22   23 1   
    44   23   24 2   
    45   23   25 1   
    46   25   48 1   
    47   25   49 1   
    48   25   54 1   
    49   28   29 ar  
    50   28   33 ar  
    51   29   30 ar  
    52   29   50 1   
    53   30   31 ar  
    54   30   52 1   
    55   31   32 ar  
    56   32   33 ar  
    57   32   53 1   
    58   33   51 1   
@<TRIPOS>SUBSTRUCTURE
     1 QN7         1 TEMP              0 ****  ****    0 ROOT
