@<TRIPOS>MOLECULE
QN7
   54    58     1     0     0
SMALL
bcc


@<TRIPOS>ATOM
      1 C1          0.8760   -0.1200   -1.2530 c3        1 QN7      0.109700
      2 O2          2.1120   -0.4690   -0.6320 os        1 QN7     -0.309900
      3 C3          2.3580    0.1040    0.5960 ca        1 QN7      0.102100
      4 C4          1.4970    0.9760    1.2630 ca        1 QN7     -0.170000
      5 C5          1.8680    1.4890    2.5070 ca        1 QN7     -0.103000
      6 C6          3.0830    1.1410    3.0830 ca        1 QN7     -0.135000
      7 C7          3.9650    0.2630    2.4350 cp        1 QN7     -0.067000
      8 C8          3.6040   -0.2640    1.1780 ca        1 QN7      0.116900
      9 F9          4.4210   -1.1060    0.5060 f         1 QN7     -0.120900
     10 C10         5.2350   -0.0830    3.0720 cp        1 QN7     -0.018000
     11 C11         5.6850   -1.4100    3.1120 ca        1 QN7     -0.076000
     12 C12         6.8900   -1.7240    3.7380 ca        1 QN7     -0.123000
     13 C13         7.6610   -0.7220    4.3230 ca        1 QN7     -0.117000
     14 C14         7.2310    0.6090    4.2720 ca        1 QN7     -0.117300
     15 C15         6.0140    0.9240    3.6620 ca        1 QN7     -0.076000
     16 C16         8.0550    1.7030    4.9070 c3        1 QN7      0.235500
     17 C17         9.5890    1.3520    4.8760 c2        1 QN7      0.537200
     18 N18        10.3250    1.1050    3.8550 n2        1 QN7     -0.512900
     19 C19        11.6970    0.7280    4.0090 c3        1 QN7      0.058800
     20 C20        12.2590    0.5800    5.4710 c3        1 QN7      0.399600
     21 C21        11.1100    0.4240    6.5510 c3        1 QN7      0.112800
     22 N22        10.0560    1.3610    6.2670 nh        1 QN7     -0.704600
     23 C23         8.8520    1.4800    7.0350 c2        1 QN7      0.596100
     24 N24         7.7420    1.7440    6.3770 n2        1 QN7     -0.503900
     25 N25         8.9110    1.4460    8.5130 n4        1 QN7     -0.778600
     26 F26        13.1030   -0.5030    5.5700 f         1 QN7     -0.211800
     27 F27        13.0790    1.6340    5.8030 f         1 QN7     -0.211800
     28 C28         7.8690    3.0380    4.2220 ca        1 QN7     -0.068300
     29 C29         7.4690    4.1970    4.8960 ca        1 QN7     -0.223300
     30 C30         7.3470    5.3920    4.1600 ca        1 QN7      0.403200
     31 N31         7.5920    5.4860    2.8410 nb        1 QN7     -0.632000
     32 C32         7.9660    4.3600    2.2030 ca        1 QN7      0.403200
     33 C33         8.1150    3.1160    2.8430 ca        1 QN7     -0.223300
     34 H11C        0.9070   -0.6920   -2.2150 h1        1 QN7      0.053367
     35 H12C        0.8290    0.9780   -1.4460 h1        1 QN7      0.053367
     36 H13C        0.0140   -0.4500   -0.6240 h1        1 QN7      0.053367
     37 H4          0.5330    1.2610    0.8180 ha        1 QN7      0.153000
     38 H5          1.1870    2.1750    3.0330 ha        1 QN7      0.145000
     39 H6          3.3590    1.5480    4.0670 ha        1 QN7      0.136000
     40 H11         5.0850   -2.2040    2.6350 ha        1 QN7      0.164000
     41 H15         5.6630    1.9690    3.6290 ha        1 QN7      0.155000
     42 H12         7.2360   -2.7690    3.7650 ha        1 QN7      0.149000
     43 H13         8.6110   -0.9880    4.8080 ha        1 QN7      0.113000
     44 H191       11.8330   -0.2620    3.4810 h1        1 QN7      0.126700
     45 H192       12.3280    1.4990    3.4750 h1        1 QN7      0.126700
     46 H211       10.7680   -0.6490    6.5230 h1        1 QN7      0.077200
     47 H212       11.5560    0.6450    7.5600 h1        1 QN7      0.077200
     48 H251        9.3290    0.5590    8.8180 hn        1 QN7      0.484133
     49 H252        7.9610    1.5340    8.9040 hn        1 QN7      0.484133
     50 H29         7.2320    4.2120    5.9670 ha        1 QN7      0.156000
     51 H33         8.4120    2.2290    2.2640 ha        1 QN7      0.156000
     52 H30         7.0320    6.3280    4.6590 h4        1 QN7      0.040600
     53 H32         8.1550    4.4590    1.1170 h4        1 QN7      0.040600
     54 H253        9.4900    2.2330    8.8390 hn        1 QN7      0.484133
@<TRIPOS>BOND
     1    1    2 1   
     2    1   34 1   
     3    1   35 1   
     4    1   36 1   
     5    2    3 1   
     6    3    4 ar  
     7    3    8 ar  
     8    4    5 ar  
     9    4   37 1   
    10    5    6 ar  
    11    5   38 1   
    12    6    7 ar  
    13    6   39 1   
    14    7    8 ar  
    15    7   10 1   
    16    8    9 1   
    17   10   11 ar  
    18   10   15 ar  
    19   11   12 ar  
    20   11   40 1   
    21   12   13 ar  
    22   12   42 1   
    23   13   14 ar  
    24   13   43 1   
    25   14   15 ar  
    26   14   16 1   
    27   15   41 1   
    28   16   17 1   
    29   16   24 1   
    30   16   28 1   
    31   17   18 2   
    32   17   22 1   
    33   18   19 1   
    34   19   20 1   
    35   19   44 1   
    36   19   45 1   
    37   20   21 1   
    38   20   26 1   
    39   20   27 1   
    40   21   22 1   
    41   21   46 1   
    42   21   47 1   
    43   22   23 1   
    44   23   24 2   
    45   23   25 1   
    46   25   48 1   
    47   25   49 1   
    48   25   54 1   
    49   28   29 ar  
    50   28   33 ar  
    51   29   30 ar  
    52   29   50 1   
    53   30   31 ar  
    54   30   52 1   
    55   31   32 ar  
    56   32   33 ar  
    57   32   53 1   
    58   33   51 1   
@<TRIPOS>SUBSTRUCTURE
     1 QN7         1 TEMP              0 ****  ****    0 ROOT
