@<TRIPOS>MOLECULE
QN7
   54    58     1     0     0
SMALL
bcc


@<TRIPOS>ATOM
      1 C1          0.9140   -0.1190   -1.2860 c3        1 QN7      0.109700
      2 O2          2.1770   -0.4300   -0.7020 os        1 QN7     -0.309900
      3 C3          2.4060    0.0760    0.5580 ca        1 QN7      0.102100
      4 C4          1.5040    0.8510    1.2890 ca        1 QN7     -0.171000
      5 C5          1.8600    1.3040    2.5590 ca        1 QN7     -0.103000
      6 C6          3.1010    0.9930    3.1000 ca        1 QN7     -0.135000
      7 C7          4.0250    0.2130    2.3880 cp        1 QN7     -0.066000
      8 C8          3.6790   -0.2530    1.1030 ca        1 QN7      0.116900
      9 F9          4.5350   -1.0000    0.3700 f         1 QN7     -0.120900
     10 C10         5.3220   -0.0970    2.9900 cp        1 QN7     -0.021000
     11 C11         5.8480   -1.3950    2.9410 ca        1 QN7     -0.076000
     12 C12         7.0770   -1.6760    3.5350 ca        1 QN7     -0.123000
     13 C13         7.7970   -0.6700    4.1760 ca        1 QN7     -0.113000
     14 C14         7.2900    0.6340    4.2120 ca        1 QN7     -0.119300
     15 C15         6.0480    0.9140    3.6350 ca        1 QN7     -0.077000
     16 C16         8.0490    1.7390    4.9060 c3        1 QN7      0.237500
     17 C17         9.5990    1.4620    4.8940 c2        1 QN7      0.561200
     18 N18        10.3620    1.2720    3.8770 n2        1 QN7     -0.518900
     19 C19        11.7320    0.9010    4.0940 c3        1 QN7      0.062800
     20 C20        11.9820    0.1130    5.4270 c3        1 QN7      0.384600
     21 C21        11.2460    0.7880    6.6560 c3        1 QN7      0.132800
     22 N22        10.0270    1.4470    6.2890 nh        1 QN7     -0.738600
     23 C23         8.8160    1.4780    7.0410 c2        1 QN7      0.613100
     24 N24         7.7050    1.7070    6.3690 n2        1 QN7     -0.513900
     25 N25         8.8390    1.3670    8.5160 n4        1 QN7     -0.780600
     26 F26        11.5890   -1.2030    5.3160 f         1 QN7     -0.212300
     27 F27        13.3240    0.0130    5.7070 f         1 QN7     -0.212300
     28 C28         7.8130    3.0880    4.2660 ca        1 QN7     -0.068300
     29 C29         7.3400    4.1990    4.9720 ca        1 QN7     -0.223300
     30 C30         7.1750    5.4140    4.2770 ca        1 QN7      0.402700
     31 N31         7.4450    5.5690    2.9690 nb        1 QN7     -0.632000
     32 C32         7.8890    4.4890    2.3000 ca        1 QN7      0.402700
     33 C33         8.0860    3.2300    2.8980 ca        1 QN7     -0.223300
     34 H11C        0.9650   -0.6250   -2.2830 h1        1 QN7      0.052700
     35 H12C        0.7980    0.9850   -1.4070 h1        1 QN7      0.052700
     36 H13C        0.0820   -0.5390   -0.6700 h1        1 QN7      0.052700
     37 H4          0.5180    1.1060    0.8730 ha        1 QN7      0.153000
     38 H5          1.1470    1.9140    3.1350 ha        1 QN7      0.144000
     39 H6          3.3660    1.3530    4.1060 ha        1 QN7      0.135000
     40 H11         5.2900   -2.1910    2.4200 ha        1 QN7      0.163000
     41 H15         5.6380    1.9370    3.6710 ha        1 QN7      0.154000
     42 H12         7.4850   -2.6980    3.4920 ha        1 QN7      0.151000
     43 H13         8.7680   -0.9150    4.6320 ha        1 QN7      0.123000
     44 H191       12.0330    0.2370    3.2320 h1        1 QN7      0.122200
     45 H192       12.3930    1.8130    4.0920 h1        1 QN7      0.122200
     46 H211       11.9500    1.5640    7.0770 h1        1 QN7      0.079700
     47 H212       11.0850   -0.0160    7.4270 h1        1 QN7      0.079700
     48 H251        9.3920    2.1430    8.9030 hn        1 QN7      0.484133
     49 H252        7.8750    1.4170    8.8820 hn        1 QN7      0.484133
     50 H29         7.0770    4.1610    6.0360 ha        1 QN7      0.156500
     51 H33         8.4390    2.3810    2.2930 ha        1 QN7      0.156500
     52 H30         6.8010    6.3130    4.8020 h4        1 QN7      0.040100
     53 H32         8.0960    4.6380    1.2230 h4        1 QN7      0.040100
     54 H253        9.2600    0.4690    8.7860 hn        1 QN7      0.484133
@<TRIPOS>BOND
     1    1    2 1   
     2    1   34 1   
     3    1   35 1   
     4    1   36 1   
     5    2    3 1   
     6    3    4 ar  
     7    3    8 ar  
     8    4    5 ar  
     9    4   37 1   
    10    5    6 ar  
    11    5   38 1   
    12    6    7 ar  
    13    6   39 1   
    14    7    8 ar  
    15    7   10 1   
    16    8    9 1   
    17   10   11 ar  
    18   10   15 ar  
    19   11   12 ar  
    20   11   40 1   
    21   12   13 ar  
    22   12   42 1   
    23   13   14 ar  
    24   13   43 1   
    25   14   15 ar  
    26   14   16 1   
    27   15   41 1   
    28   16   17 1   
    29   16   24 1   
    30   16   28 1   
    31   17   18 2   
    32   17   22 1   
    33   18   19 1   
    34   19   20 1   
    35   19   44 1   
    36   19   45 1   
    37   20   21 1   
    38   20   26 1   
    39   20   27 1   
    40   21   22 1   
    41   21   46 1   
    42   21   47 1   
    43   22   23 1   
    44   23   24 2   
    45   23   25 1   
    46   25   48 1   
    47   25   49 1   
    48   25   54 1   
    49   28   29 ar  
    50   28   33 ar  
    51   29   30 ar  
    52   29   50 1   
    53   30   31 ar  
    54   30   52 1   
    55   31   32 ar  
    56   32   33 ar  
    57   32   53 1   
    58   33   51 1   
@<TRIPOS>SUBSTRUCTURE
     1 QN7         1 TEMP              0 ****  ****    0 ROOT
