@<TRIPOS>MOLECULE
QNB
   48    51     1     0     0
SMALL
bcc


@<TRIPOS>ATOM
      1 C1         -0.1580   -0.0850    0.3080 c3        1 QNB      0.225400
      2 C2          1.3500    0.0470    0.2450 ca        1 QNB     -0.131300
      3 C3          2.2150   -0.7670    0.9790 ca        1 QNB     -0.104750
      4 C4          3.5960   -0.6010    0.8630 ca        1 QNB     -0.135750
      5 C5          4.1190    0.3740    0.0170 ca        1 QNB     -0.115500
      6 C6          3.2580    1.1900   -0.7190 ca        1 QNB     -0.135750
      7 C7          1.8810    1.0280   -0.6060 ca        1 QNB     -0.104750
      8 C8         -0.6310   -1.3050    1.0620 ca        1 QNB     -0.131300
      9 C9         -0.5010   -1.3800    2.4550 ca        1 QNB     -0.104750
     10 C10        -0.9360   -2.5130    3.1410 ca        1 QNB     -0.135750
     11 C11        -1.5040   -3.5810    2.4460 ca        1 QNB     -0.115500
     12 C12        -1.6420   -3.5080    1.0610 ca        1 QNB     -0.135750
     13 C13        -1.2110   -2.3760    0.3710 ca        1 QNB     -0.104750
     14 C14        -0.7130    1.1890    0.9610 c         1 QNB      0.646100
     15 O15        -0.6980   -0.0910   -1.0160 oh        1 QNB     -0.572800
     16 O16        -0.7430    1.4760    2.1580 o         1 QNB     -0.541000
     17 O17        -1.1740    2.0850    0.0440 os        1 QNB     -0.403900
     18 C18        -1.7220    3.3200    0.5390 c3        1 QNB      0.113100
     19 C19        -1.6820    4.3060   -0.6590 c3        1 QNB      0.135800
     20 N20        -3.0100    4.8440   -0.9790 n3        1 QNB     -0.661600
     21 C21        -3.8920    3.7240   -1.3430 c3        1 QNB      0.132800
     22 C22        -4.0070    2.6730   -0.2230 c3        1 QNB     -0.105900
     23 C23        -3.1860    3.1380    0.9790 c3        1 QNB     -0.087700
     24 C24        -3.6940    4.5130    1.4120 c3        1 QNB     -0.105900
     25 C25        -3.5560    5.4880    0.2280 c3        1 QNB      0.132800
     26 H3          1.8160   -1.5430    1.6510 ha        1 QNB      0.150500
     27 H4          4.2710   -1.2460    1.4460 ha        1 QNB      0.135750
     28 H5          5.2080    0.5030   -0.0710 ha        1 QNB      0.134000
     29 H6          3.6670    1.9630   -1.3870 ha        1 QNB      0.135750
     30 H7          1.1880    1.6690   -1.1770 ha        1 QNB      0.150500
     31 H9         -0.0720   -0.5300    3.0120 ha        1 QNB      0.150500
     32 H10        -0.8330   -2.5590    4.2360 ha        1 QNB      0.135750
     33 H11        -1.8460   -4.4740    2.9900 ha        1 QNB      0.134000
     34 H12        -2.0970   -4.3430    0.5080 ha        1 QNB      0.135750
     35 H13        -1.3450   -2.3220   -0.7200 ha        1 QNB      0.150500
     36 HO15       -0.1050   -0.6270   -1.5590 ho        1 QNB      0.414000
     37 H18        -1.0980    3.6860    1.3970 h1        1 QNB      0.073700
     38 H19        -1.2770    3.7800   -1.5670 h1        1 QNB      0.068700
     39 H19A       -1.0000    5.1610   -0.4080 h1        1 QNB      0.068700
     40 H21        -4.9050    4.1440   -1.5850 h1        1 QNB      0.055700
     41 H21A       -3.4830    3.2480   -2.2750 h1        1 QNB      0.055700
     42 H22        -5.0750    2.5380    0.0750 hc        1 QNB      0.052200
     43 H22A       -3.6160    1.6870   -0.5820 hc        1 QNB      0.052200
     44 H23        -3.2450    2.3990    1.8160 hc        1 QNB      0.077700
     45 H24        -4.7640    4.4360    1.7260 hc        1 QNB      0.052200
     46 H24A       -3.1050    4.8820    2.2880 hc        1 QNB      0.052200
     47 H25        -4.5590    5.9200   -0.0350 h1        1 QNB      0.055700
     48 H25A       -2.8770    6.3390    0.5060 h1        1 QNB      0.055700
@<TRIPOS>BOND
     1    1    2 1   
     2    1    8 1   
     3    1   14 1   
     4    1   15 1   
     5    2    3 ar  
     6    2    7 ar  
     7    3    4 ar  
     8    3   26 1   
     9    4    5 ar  
    10    4   27 1   
    11    5    6 ar  
    12    5   28 1   
    13    6    7 ar  
    14    6   29 1   
    15    7   30 1   
    16    8    9 ar  
    17    8   13 ar  
    18    9   10 ar  
    19    9   31 1   
    20   10   11 ar  
    21   10   32 1   
    22   11   12 ar  
    23   11   33 1   
    24   12   13 ar  
    25   12   34 1   
    26   13   35 1   
    27   14   16 2   
    28   14   17 1   
    29   15   36 1   
    30   17   18 1   
    31   18   19 1   
    32   18   23 1   
    33   18   37 1   
    34   19   20 1   
    35   19   38 1   
    36   19   39 1   
    37   20   21 1   
    38   20   25 1   
    39   21   22 1   
    40   21   40 1   
    41   21   41 1   
    42   22   23 1   
    43   22   42 1   
    44   22   43 1   
    45   23   24 1   
    46   23   44 1   
    47   24   25 1   
    48   24   45 1   
    49   24   46 1   
    50   25   47 1   
    51   25   48 1   
@<TRIPOS>SUBSTRUCTURE
     1 QNB         1 TEMP              0 ****  ****    0 ROOT
