@<TRIPOS>MOLECULE
QNB
   48    51     1     0     0
SMALL
bcc


@<TRIPOS>ATOM
      1 C1          1.1230    0.0730    0.4020 c3        1 QNB      0.232400
      2 C2          2.1060   -1.0150    0.0220 ca        1 QNB     -0.110800
      3 C3          2.3180   -1.3720   -1.3130 ca        1 QNB     -0.103750
      4 C4          3.2460   -2.3630   -1.6330 ca        1 QNB     -0.135000
      5 C5          3.9680   -3.0010   -0.6250 ca        1 QNB     -0.118000
      6 C6          3.7620   -2.6440    0.7080 ca        1 QNB     -0.135000
      7 C7          2.8370   -1.6540    1.0320 ca        1 QNB     -0.103750
      8 C8          1.7640    1.4390    0.2970 ca        1 QNB     -0.110800
      9 C9          2.0920    1.9670   -0.9570 ca        1 QNB     -0.103750
     10 C10         2.7080    3.2130   -1.0510 ca        1 QNB     -0.135000
     11 C11         3.0010    3.9410    0.1020 ca        1 QNB     -0.118000
     12 C12         2.6730    3.4180    1.3530 ca        1 QNB     -0.135000
     13 C13         2.0570    2.1710    1.4530 ca        1 QNB     -0.103750
     14 C14        -0.1060   -0.0110   -0.5150 c         1 QNB      0.616100
     15 O15         0.6920   -0.0870    1.7510 oh        1 QNB     -0.580800
     16 O16        -0.2230    0.3140   -1.6960 o         1 QNB     -0.539000
     17 O17        -1.1760   -0.5590    0.1310 os        1 QNB     -0.437900
     18 C18        -2.4070   -0.6970   -0.6000 c3        1 QNB      0.120100
     19 C19        -3.2330   -1.7670    0.1610 c3        1 QNB      0.135800
     20 N20        -4.5440   -1.2590    0.5820 n3        1 QNB     -0.660600
     21 C21        -4.3340   -0.1180    1.4890 c3        1 QNB      0.131800
     22 C22        -3.5190    1.0130    0.8370 c3        1 QNB     -0.105900
     23 C23        -3.1970    0.6240   -0.6060 c3        1 QNB     -0.087700
     24 C24        -4.5100    0.3520   -1.3400 c3        1 QNB     -0.105900
     25 C25        -5.2620   -0.7760   -0.6090 c3        1 QNB      0.131800
     26 H3          1.7540   -0.8710   -2.1170 ha        1 QNB      0.150750
     27 H4          3.4070   -2.6390   -2.6860 ha        1 QNB      0.134500
     28 H5          4.6990   -3.7830   -0.8800 ha        1 QNB      0.132500
     29 H6          4.3330   -3.1410    1.5060 ha        1 QNB      0.134500
     30 H7          2.6830   -1.3630    2.0830 ha        1 QNB      0.150750
     31 H9          1.8500    1.4000   -1.8710 ha        1 QNB      0.150750
     32 H10         2.9610    3.6230   -2.0400 ha        1 QNB      0.134500
     33 H11         3.4870    4.9240    0.0250 ha        1 QNB      0.132500
     34 H12         2.9000    3.9880    2.2650 ha        1 QNB      0.134500
     35 H13         1.7990    1.7630    2.4430 ha        1 QNB      0.150750
     36 HO15        0.2590   -0.9500    1.8130 ho        1 QNB      0.425000
     37 H18        -2.1780   -1.0210   -1.6490 h1        1 QNB      0.074700
     38 H19        -3.3910   -2.6540   -0.5080 h1        1 QNB      0.068700
     39 H19A       -2.6680   -2.1050    1.0720 h1        1 QNB      0.068700
     40 H21        -5.3430    0.2630    1.8050 h1        1 QNB      0.056200
     41 H21A       -3.8050   -0.4950    2.4050 h1        1 QNB      0.056200
     42 H22        -4.0990    1.9680    0.8520 hc        1 QNB      0.052700
     43 H22A       -2.5660    1.1740    1.4020 hc        1 QNB      0.052700
     44 H23        -2.6030    1.4230   -1.1140 hc        1 QNB      0.079700
     45 H24        -5.1300    1.2830   -1.3570 hc        1 QNB      0.052700
     46 H24A       -4.3050    0.0580   -2.3990 hc        1 QNB      0.052700
     47 H25        -5.4170   -1.6470   -1.3000 h1        1 QNB      0.056200
     48 H25A       -6.2730   -0.4150   -0.2790 h1        1 QNB      0.056200
@<TRIPOS>BOND
     1    1    2 1   
     2    1    8 1   
     3    1   14 1   
     4    1   15 1   
     5    2    3 ar  
     6    2    7 ar  
     7    3    4 ar  
     8    3   26 1   
     9    4    5 ar  
    10    4   27 1   
    11    5    6 ar  
    12    5   28 1   
    13    6    7 ar  
    14    6   29 1   
    15    7   30 1   
    16    8    9 ar  
    17    8   13 ar  
    18    9   10 ar  
    19    9   31 1   
    20   10   11 ar  
    21   10   32 1   
    22   11   12 ar  
    23   11   33 1   
    24   12   13 ar  
    25   12   34 1   
    26   13   35 1   
    27   14   16 2   
    28   14   17 1   
    29   15   36 1   
    30   17   18 1   
    31   18   19 1   
    32   18   23 1   
    33   18   37 1   
    34   19   20 1   
    35   19   38 1   
    36   19   39 1   
    37   20   21 1   
    38   20   25 1   
    39   21   22 1   
    40   21   40 1   
    41   21   41 1   
    42   22   23 1   
    43   22   42 1   
    44   22   43 1   
    45   23   24 1   
    46   23   44 1   
    47   24   25 1   
    48   24   45 1   
    49   24   46 1   
    50   25   47 1   
    51   25   48 1   
@<TRIPOS>SUBSTRUCTURE
     1 QNB         1 TEMP              0 ****  ****    0 ROOT
