@<TRIPOS>MOLECULE
QNB
   48    47     1     0     0
SMALL
bcc


@<TRIPOS>ATOM
      1 C1          1.0460    1.2130   -0.4270 c3        1 QNB      0.196000
      2 C2          2.5710    1.2740   -0.3750 c2        1 QNB     -0.103500
      3 C3          3.2780    1.7500   -1.4640 c2        1 QNB     -0.098500
      4 C4          4.6750    1.7350   -1.4510 c1        1 QNB     -0.137000
      5 C5          5.3520    1.2440   -0.3510 c1        1 QNB     -0.125500
      6 C6          4.6420    0.7660    0.7420 c1        1 QNB     -0.125500
      7 C7          3.2470    0.7820    0.7290 c1        1 QNB     -0.109000
      8 C8          0.4390    2.3390    0.4990 c2        1 QNB     -0.103500
      9 C9          0.7030    3.6790    0.2220 c2        1 QNB     -0.098500
     10 C10         0.1820    4.6780    1.0440 c1        1 QNB     -0.137000
     11 C11        -0.6030    4.3360    2.1450 c1        1 QNB     -0.125500
     12 C12        -0.8690    2.9920    2.4250 c1        1 QNB     -0.125500
     13 C13        -0.3480    1.9940    1.6020 c1        1 QNB     -0.109000
     14 C14         0.5780   -0.1450    0.0530 c2        1 QNB      0.287000
     15 O15         0.6160    1.4170   -1.7590 oh        1 QNB     -0.308000
     16 O16         1.3430   -0.8840    0.5840 o         1 QNB     -0.350000
     17 O17        -0.7970   -0.5550   -0.1590 os        1 QNB     -0.276000
     18 C18        -0.9440   -1.9900   -0.5980 c3        1 QNB      0.009000
     19 C19        -1.0060   -2.8200    0.5790 c3        1 QNB     -0.101000
     20 N20        -2.2290   -3.6150    0.6980 n3        1 QNB     -0.186000
     21 C21        -2.6560   -4.2680   -0.5050 c3        1 QNB     -0.105000
     22 C22        -2.6030   -3.4380   -1.6900 c3        1 QNB     -0.184500
     23 C23        -2.1040   -2.0930   -1.4590 c3        1 QNB     -0.127000
     24 C24        -3.2350   -1.4370   -0.6380 c3        1 QNB     -0.184500
     25 C25        -3.3460   -2.5000    0.9060 c3        1 QNB     -0.105000
     26 H3          2.8000    2.0950   -2.2430 ha        1 QNB      0.149000
     27 H4          5.1840    2.0780   -2.2350 ha        1 QNB      0.134000
     28 H5          6.3470    1.2320   -0.3430 ha        1 QNB      0.133750
     29 H6          5.1050    0.4290    1.5000 ha        1 QNB      0.133750
     30 H7          2.7550    0.4490    1.4870 ha        1 QNB      0.152500
     31 H9          1.2560    3.9180   -0.5500 ha        1 QNB      0.149000
     32 H10         0.3670    5.6160    0.8500 ha        1 QNB      0.134000
     33 H11        -0.9660    5.0320    2.7170 ha        1 QNB      0.133750
     34 H12        -1.4500    2.7390    3.2390 ha        1 QNB      0.133750
     35 H13        -0.5260    1.0860    1.7900 ha        1 QNB      0.152500
     36 HO15        0.2290    2.2140   -1.8280 ho        1 QNB      0.224000
     37 H18        -0.1640   -2.2360   -1.1050 h1        1 QNB      0.114000
     38 H19        -0.9340   -2.2450    1.3650 h1        1 QNB      0.108000
     39 H19A       -0.2600   -3.4150    0.5670 h1        1 QNB      0.108000
     40 H21        -3.6440   -4.5970   -0.3740 h1        1 QNB      0.095500
     41 H21A       -2.0570   -5.0890   -0.6550 h1        1 QNB      0.095500
     42 H22        -3.5180   -3.3710   -2.0640 hc        1 QNB      0.092000
     43 H22A       -2.0350   -3.8710   -2.3430 hc        1 QNB      0.092000
     44 H23        -1.9720   -1.6570   -2.2310 hc        1 QNB      0.119000
     45 H24        -3.0090   -0.5340   -0.4100 hc        1 QNB      0.092000
     46 H24A       -4.1050   -1.4660   -1.1510 hc        1 QNB      0.092000
     47 H25        -4.1800   -2.8880    0.9730 h1        1 QNB      0.095500
     48 H25A       -3.1540   -1.9730    1.6920 h1        1 QNB      0.095500
@<TRIPOS>BOND
     1    1    2 1   
     2    1    8 1   
     3    1   14 1   
     4    1   15 1   
     5    2    3 1   
     6    2    7 1   
     7    3    4 1   
     8    3   26 1   
     9    4   27 1   
    10    5    6 1   
    11    5   28 1   
    12    6   29 1   
    13    7   30 1   
    14    8    9 1   
    15    8   13 1   
    16    9   10 1   
    17    9   31 1   
    18   10   32 1   
    19   11   12 1   
    20   11   33 1   
    21   12   34 1   
    22   13   35 1   
    23   14   16 1   
    24   14   17 1   
    25   15   36 1   
    26   17   18 1   
    27   18   19 1   
    28   18   23 1   
    29   18   37 1   
    30   19   20 1   
    31   19   38 1   
    32   19   39 1   
    33   20   21 1   
    34   20   25 1   
    35   21   22 1   
    36   21   40 1   
    37   21   41 1   
    38   22   23 1   
    39   22   42 1   
    40   22   43 1   
    41   23   24 1   
    42   23   44 1   
    43   24   25 1   
    44   24   45 1   
    45   24   46 1   
    46   25   47 1   
    47   25   48 1   
@<TRIPOS>SUBSTRUCTURE
     1 QNB         1 TEMP              0 ****  ****    0 ROOT
