@<TRIPOS>MOLECULE
QNB
   48    51     1     0     0
SMALL
bcc


@<TRIPOS>ATOM
      1 C1         -0.1630   -0.0890    0.3160 c3        1 QNB      0.225400
      2 C2          1.3450    0.0370    0.2460 ca        1 QNB     -0.131300
      3 C3          2.2100   -0.7730    0.9840 ca        1 QNB     -0.104750
      4 C4          3.5920   -0.6130    0.8620 ca        1 QNB     -0.135750
      5 C5          4.1150    0.3530    0.0040 ca        1 QNB     -0.115500
      6 C6          3.2530    1.1640   -0.7370 ca        1 QNB     -0.135750
      7 C7          1.8760    1.0080   -0.6170 ca        1 QNB     -0.104750
      8 C8         -0.6360   -1.3010    1.0840 ca        1 QNB     -0.131300
      9 C9         -0.5020   -1.3630    2.4770 ca        1 QNB     -0.104750
     10 C10        -0.9370   -2.4880    3.1760 ca        1 QNB     -0.135750
     11 C11        -1.5120   -3.5600    2.4940 ca        1 QNB     -0.115500
     12 C12        -1.6550   -3.5000    1.1080 ca        1 QNB     -0.135750
     13 C13        -1.2230   -2.3760    0.4060 ca        1 QNB     -0.104750
     14 C14        -0.7100    1.1930    0.9590 c         1 QNB      0.646100
     15 O15        -0.7080   -0.1060   -1.0060 oh        1 QNB     -0.572800
     16 O16        -0.7350    1.4910    2.1540 o         1 QNB     -0.541000
     17 O17        -1.1730    2.0810    0.0360 os        1 QNB     -0.403900
     18 C18        -1.7150    3.3230    0.5210 c3        1 QNB      0.113100
     19 C19        -1.6770    4.2960   -0.6860 c3        1 QNB      0.135800
     20 N20        -3.0050    4.8370   -1.0050 n3        1 QNB     -0.661600
     21 C21        -3.8930    3.7150   -1.3540 c3        1 QNB      0.132800
     22 C22        -4.0050    2.6760   -0.2240 c3        1 QNB     -0.105900
     23 C23        -3.1770    3.1500    0.9700 c3        1 QNB     -0.087700
     24 C24        -3.6790    4.5310    1.3930 c3        1 QNB     -0.105900
     25 C25        -3.5430    5.4940    0.1980 c3        1 QNB      0.132800
     26 H3          1.8120   -1.5410    1.6660 ha        1 QNB      0.150500
     27 H4          4.2670   -1.2530    1.4480 ha        1 QNB      0.135750
     28 H5          5.2040    0.4770   -0.0900 ha        1 QNB      0.134000
     29 H6          3.6620    1.9290   -1.4140 ha        1 QNB      0.135750
     30 H7          1.1830    1.6460   -1.1910 ha        1 QNB      0.150500
     31 H9         -0.0670   -0.5090    3.0240 ha        1 QNB      0.150500
     32 H10        -0.8310   -2.5240    4.2700 ha        1 QNB      0.135750
     33 H11        -1.8540   -4.4470    3.0460 ha        1 QNB      0.134000
     34 H12        -2.1150   -4.3390    0.5650 ha        1 QNB      0.135750
     35 H13        -1.3610   -2.3320   -0.6850 ha        1 QNB      0.150500
     36 HO15       -0.1200   -0.6490   -1.5460 ho        1 QNB      0.414000
     37 H18        -1.0860    3.6950    1.3730 h1        1 QNB      0.073700
     38 H19        -1.2790    3.7600   -1.5900 h1        1 QNB      0.068700
     39 H19A       -0.9910    5.1520   -0.4460 h1        1 QNB      0.068700
     40 H21        -3.4890    3.2300   -2.2830 h1        1 QNB      0.055700
     41 H21A       -4.9050    4.1370   -1.5950 h1        1 QNB      0.055700
     42 H22        -3.6190    1.6860   -0.5750 hc        1 QNB      0.052200
     43 H22A       -5.0730    2.5480    0.0810 hc        1 QNB      0.052200
     44 H23        -3.2350    2.4190    1.8150 hc        1 QNB      0.077700
     45 H24        -3.0850    4.9060    2.2620 hc        1 QNB      0.052200
     46 H24A       -4.7480    4.4600    1.7130 hc        1 QNB      0.052200
     47 H25        -2.8600    6.3450    0.4650 h1        1 QNB      0.055700
     48 H25A       -4.5450    5.9260   -0.0650 h1        1 QNB      0.055700
@<TRIPOS>BOND
     1    1    2 1   
     2    1    8 1   
     3    1   14 1   
     4    1   15 1   
     5    2    3 ar  
     6    2    7 ar  
     7    3    4 ar  
     8    3   26 1   
     9    4    5 ar  
    10    4   27 1   
    11    5    6 ar  
    12    5   28 1   
    13    6    7 ar  
    14    6   29 1   
    15    7   30 1   
    16    8    9 ar  
    17    8   13 ar  
    18    9   10 ar  
    19    9   31 1   
    20   10   11 ar  
    21   10   32 1   
    22   11   12 ar  
    23   11   33 1   
    24   12   13 ar  
    25   12   34 1   
    26   13   35 1   
    27   14   16 2   
    28   14   17 1   
    29   15   36 1   
    30   17   18 1   
    31   18   19 1   
    32   18   23 1   
    33   18   37 1   
    34   19   20 1   
    35   19   38 1   
    36   19   39 1   
    37   20   21 1   
    38   20   25 1   
    39   21   22 1   
    40   21   40 1   
    41   21   41 1   
    42   22   23 1   
    43   22   42 1   
    44   22   43 1   
    45   23   24 1   
    46   23   44 1   
    47   24   25 1   
    48   24   45 1   
    49   24   46 1   
    50   25   47 1   
    51   25   48 1   
@<TRIPOS>SUBSTRUCTURE
     1 QNB         1 TEMP              0 ****  ****    0 ROOT
