@<TRIPOS>MOLECULE
QNC
   19    20     1     0     0
SMALL
bcc


@<TRIPOS>ATOM
      1 C           2.8680   -0.2070    0.0510 c         1 QNC      0.825100
      2 O           3.4200   -0.1710    1.1790 o         1 QNC     -0.804300
      3 N1          0.4530   -0.8850    0.1120 nb        1 QNC     -0.666000
      4 C2          1.3450    0.0870    0.0160 ca        1 QNC      0.401800
      5 C3          0.9800    1.4770   -0.1270 ca        1 QNC     -0.209300
      6 C4         -0.3410    1.8250   -0.1680 ca        1 QNC     -0.126000
      7 C5         -2.7200    1.0950   -0.1010 ca        1 QNC     -0.109000
      8 C6         -3.6470    0.0850   -0.0020 ca        1 QNC     -0.162000
      9 C7         -3.2200   -1.2550    0.1370 ca        1 QNC     -0.148000
     10 C8         -1.8840   -1.5700    0.1740 ca        1 QNC     -0.167300
     11 C4A        -1.3350    0.8060   -0.0670 ca        1 QNC     -0.166300
     12 C8A        -0.8890   -0.5450    0.0720 ca        1 QNC      0.403600
     13 O2          3.4270   -0.3990   -1.0570 o         1 QNC     -0.804300
     14 H3          1.7890    2.2160   -0.2000 ha        1 QNC      0.145000
     15 H4         -0.6630    2.8700   -0.2750 ha        1 QNC      0.113000
     16 H5         -3.0380    2.1420   -0.2090 ha        1 QNC      0.114000
     17 H6         -4.7230    0.3060   -0.0280 ha        1 QNC      0.111000
     18 H7         -3.9780   -2.0480    0.2150 ha        1 QNC      0.112000
     19 H8         -1.5560   -2.6150    0.2810 ha        1 QNC      0.140000
@<TRIPOS>BOND
     1    1    2 1   
     2    1    4 1   
     3    1   13 1   
     4    3    4 ar  
     5    3   12 ar  
     6    4    5 ar  
     7    5    6 ar  
     8    5   14 1   
     9    6   11 ar  
    10    6   15 1   
    11    7    8 ar  
    12    7   11 ar  
    13    7   16 1   
    14    8    9 ar  
    15    8   17 1   
    16    9   10 ar  
    17    9   18 1   
    18   10   12 ar  
    19   10   19 1   
    20   11   12 ar  
@<TRIPOS>SUBSTRUCTURE
     1 QNC         1 TEMP              0 ****  ****    0 ROOT
