@<TRIPOS>MOLECULE
QNC
   19    20     1     0     0
SMALL
bcc


@<TRIPOS>ATOM
      1 C           0.0910   -0.1030   -0.0580 c         1 QNC      0.825100
      2 O           0.6750   -1.1930   -0.2740 o         1 QNC     -0.804300
      3 N1         -2.0540   -0.3240    1.2270 nb        1 QNC     -0.666000
      4 C2         -0.7650   -0.0200    1.2330 ca        1 QNC      0.401800
      5 C3         -0.0650    0.4060    2.4220 ca        1 QNC     -0.209300
      6 C4         -0.7430    0.5060    3.6030 ca        1 QNC     -0.126000
      7 C5         -2.8980    0.2700    4.8270 ca        1 QNC     -0.109000
      8 C6         -4.2360   -0.0460    4.8210 ca        1 QNC     -0.162000
      9 C7         -4.8600   -0.4560    3.6210 ca        1 QNC     -0.148000
     10 C8         -4.1480   -0.5460    2.4510 ca        1 QNC     -0.167300
     11 C4A        -2.1340    0.1880    3.6390 ca        1 QNC     -0.166300
     12 C8A        -2.7520   -0.2260    2.4190 ca        1 QNC      0.403600
     13 O2          0.1710    0.9450   -0.7460 o         1 QNC     -0.804300
     14 H3          1.0050    0.6370    2.3330 ha        1 QNC      0.145000
     15 H4         -0.2500    0.8260    4.5320 ha        1 QNC      0.113000
     16 H5         -2.4000    0.5900    5.7540 ha        1 QNC      0.114000
     17 H6         -4.8320    0.0170    5.7420 ha        1 QNC      0.111000
     18 H7         -5.9310   -0.7040    3.6380 ha        1 QNC      0.112000
     19 H8         -4.6380   -0.8660    1.5180 ha        1 QNC      0.140000
@<TRIPOS>BOND
     1    1    2 1   
     2    1    4 1   
     3    1   13 1   
     4    3    4 ar  
     5    3   12 ar  
     6    4    5 ar  
     7    5    6 ar  
     8    5   14 1   
     9    6   11 ar  
    10    6   15 1   
    11    7    8 ar  
    12    7   11 ar  
    13    7   16 1   
    14    8    9 ar  
    15    8   17 1   
    16    9   10 ar  
    17    9   18 1   
    18   10   12 ar  
    19   10   19 1   
    20   11   12 ar  
@<TRIPOS>SUBSTRUCTURE
     1 QNC         1 TEMP              0 ****  ****    0 ROOT
