@<TRIPOS>MOLECULE
QNC
   19    20     1     0     0
SMALL
bcc


@<TRIPOS>ATOM
      1 C           0.0770   -0.0590   -0.0690 c         1 QNC      0.825100
      2 O           0.4920   -1.1860   -0.4360 o         1 QNC     -0.804300
      3 N1         -2.0880   -0.1240    1.1980 nb        1 QNC     -0.666000
      4 C2         -0.7690   -0.0210    1.2300 ca        1 QNC      0.401800
      5 C3         -0.0230    0.1320    2.4570 ca        1 QNC     -0.209300
      6 C4         -0.6900    0.1740    3.6490 ca        1 QNC     -0.126000
      7 C5         -2.8680    0.1030    4.8540 ca        1 QNC     -0.109000
      8 C6         -4.2380   -0.0040    4.8200 ca        1 QNC     -0.162000
      9 C7         -4.9050   -0.1520    3.5830 ca        1 QNC     -0.148000
     10 C8         -4.2040   -0.1910    2.4030 ca        1 QNC     -0.167300
     11 C4A        -2.1130    0.0670    3.6570 ca        1 QNC     -0.166300
     12 C8A        -2.7750   -0.0820    2.3990 ca        1 QNC      0.403600
     13 O2          0.3220    1.0480   -0.6110 o         1 QNC     -0.804300
     14 H3          1.0700    0.2090    2.3880 ha        1 QNC      0.145000
     15 H4         -0.1630    0.2890    4.6060 ha        1 QNC      0.113000
     16 H5         -2.3360    0.2180    5.8090 ha        1 QNC      0.114000
     17 H6         -4.8260    0.0240    5.7470 ha        1 QNC      0.111000
     18 H7         -6.0010   -0.2360    3.5780 ha        1 QNC      0.112000
     19 H8         -4.7270   -0.3060    1.4420 ha        1 QNC      0.140000
@<TRIPOS>BOND
     1    1    2 1   
     2    1    4 1   
     3    1   13 1   
     4    3    4 ar  
     5    3   12 ar  
     6    4    5 ar  
     7    5    6 ar  
     8    5   14 1   
     9    6   11 ar  
    10    6   15 1   
    11    7    8 ar  
    12    7   11 ar  
    13    7   16 1   
    14    8    9 ar  
    15    8   17 1   
    16    9   10 ar  
    17    9   18 1   
    18   10   12 ar  
    19   10   19 1   
    20   11   12 ar  
@<TRIPOS>SUBSTRUCTURE
     1 QNC         1 TEMP              0 ****  ****    0 ROOT
