@<TRIPOS>MOLECULE
QND
   19    20     1     0     0
SMALL
bcc


@<TRIPOS>ATOM
      1 N1          0.8830    0.1220    0.4530 nb        1 QND     -0.666000
      2 C2         -0.0880    0.0190    1.3460 ca        1 QND      0.401800
      3 C3         -1.4770   -0.1370    0.9800 ca        1 QND     -0.209300
      4 C4         -1.8240   -0.1820   -0.3410 ca        1 QND     -0.126000
      5 C5         -1.0930   -0.1120   -2.7200 ca        1 QND     -0.109000
      6 C6         -0.0840   -0.0040   -3.6470 ca        1 QND     -0.162000
      7 C7          1.2550    0.1470   -3.2190 ca        1 QND     -0.148000
      8 C8          1.5690    0.1880   -1.8830 ca        1 QND     -0.167300
      9 C9         -0.8050   -0.0730   -1.3350 ca        1 QND     -0.166300
     10 C10         0.5440    0.0790   -0.8890 ca        1 QND      0.403600
     11 C           0.2040    0.0580    2.8680 c         1 QND      0.825100
     12 O1          0.1590    1.1860    3.4190 o         1 QND     -0.804300
     13 O2          0.4070   -1.0470    3.4290 o         1 QND     -0.804300
     14 H3         -2.2160   -0.2160    1.7880 ha        1 QND      0.145000
     15 H4         -2.8680   -0.3000   -0.6640 ha        1 QND      0.113000
     16 H5         -2.1390   -0.2300   -3.0380 ha        1 QND      0.114000
     17 H6         -0.3040   -0.0330   -4.7220 ha        1 QND      0.111000
     18 H7          2.0470    0.2310   -3.9770 ha        1 QND      0.112000
     19 H8          2.6130    0.3050   -1.5550 ha        1 QND      0.140000
@<TRIPOS>BOND
     1    1    2 ar  
     2    1   10 ar  
     3    2    3 ar  
     4    2   11 1   
     5    3    4 ar  
     6    3   14 1   
     7    4    9 ar  
     8    4   15 1   
     9    5    6 ar  
    10    5    9 ar  
    11    5   16 1   
    12    6    7 ar  
    13    6   17 1   
    14    7    8 ar  
    15    7   18 1   
    16    8   10 ar  
    17    8   19 1   
    18    9   10 ar  
    19   11   12 1   
    20   11   13 1   
@<TRIPOS>SUBSTRUCTURE
     1 QND         1 TEMP              0 ****  ****    0 ROOT
