@<TRIPOS>MOLECULE
QND
   19    20     1     0     0
SMALL
bcc


@<TRIPOS>ATOM
      1 N1         -0.0350   -0.1320   -0.0740 nb        1 QND     -0.666000
      2 C2          1.2840   -0.0210   -0.0590 ca        1 QND      0.401800
      3 C3          2.0440    0.1370    1.1580 ca        1 QND     -0.209300
      4 C4          1.3930    0.1760    2.3590 ca        1 QND     -0.126000
      5 C5         -0.7680    0.0930    3.5920 ca        1 QND     -0.109000
      6 C6         -2.1370   -0.0220    3.5770 ca        1 QND     -0.162000
      7 C7         -2.8200   -0.1740    2.3490 ca        1 QND     -0.148000
      8 C8         -2.1340   -0.2100    1.1600 ca        1 QND     -0.167300
      9 C9         -0.0290    0.0600    2.3850 ca        1 QND     -0.166300
     10 C10        -0.7070   -0.0930    1.1370 ca        1 QND      0.403600
     11 C           2.1130   -0.0540   -1.3690 c         1 QND      0.825100
     12 O1          2.5290   -1.1790   -1.7410 o         1 QND     -0.804300
     13 O2          2.3430    1.0540   -1.9150 o         1 QND     -0.804300
     14 H3          3.1360    0.2210    1.0750 ha        1 QND      0.145000
     15 H4          1.9330    0.2950    3.3090 ha        1 QND      0.113000
     16 H5         -0.2240    0.2120    4.5400 ha        1 QND      0.114000
     17 H6         -2.7140    0.0030    4.5110 ha        1 QND      0.111000
     18 H7         -3.9160   -0.2650    2.3580 ha        1 QND      0.112000
     19 H8         -2.6700   -0.3290    0.2050 ha        1 QND      0.140000
@<TRIPOS>BOND
     1    1    2 ar  
     2    1   10 ar  
     3    2    3 ar  
     4    2   11 1   
     5    3    4 ar  
     6    3   14 1   
     7    4    9 ar  
     8    4   15 1   
     9    5    6 ar  
    10    5    9 ar  
    11    5   16 1   
    12    6    7 ar  
    13    6   17 1   
    14    7    8 ar  
    15    7   18 1   
    16    8   10 ar  
    17    8   19 1   
    18    9   10 ar  
    19   11   12 1   
    20   11   13 1   
@<TRIPOS>SUBSTRUCTURE
     1 QND         1 TEMP              0 ****  ****    0 ROOT
