@<TRIPOS>MOLECULE
QND
   19    14     1     0     0
SMALL
bcc


@<TRIPOS>ATOM
      1 N1          0.1250    0.0650   -1.4990 n1        1 QND     -0.465800
      2 C2          1.4900    0.0710   -1.4890 cg        1 QND      0.340600
      3 C3          2.1780    0.0310   -0.2790 c1        1 QND     -0.074333
      4 C4          1.4860   -0.0140    0.8990 c1        1 QND     -0.074333
      5 C5         -0.6160   -0.0700    2.1010 c1        1 QND     -0.074333
      6 C6         -2.0050   -0.0780    2.0880 c1        1 QND     -0.074333
      7 C7         -2.6900   -0.0380    0.8770 c1        1 QND     -0.074333
      8 C8         -1.9860    0.0110   -0.3190 c1        1 QND     -0.074333
      9 C9          0.0990   -0.0200    0.8890 c1        1 QND     -0.045500
     10 C10        -0.5780    0.0200   -0.3070 c1        1 QND     -0.045500
     11 C           1.9300    0.0800   -2.9360 c         1 QND      0.883800
     12 O1          2.1980   -1.0030   -3.5200 o         1 QND     -0.804300
     13 O2          2.0150    1.1700   -3.5610 o         1 QND     -0.804300
     14 H3          3.1540    0.0350   -0.2730 ha        1 QND      0.065000
     15 H4          1.9680   -0.0420    1.7480 ha        1 QND      0.065000
     16 H5         -0.1360   -0.0980    2.9500 ha        1 QND      0.065000
     17 H6         -2.5000   -0.1210    2.9280 ha        1 QND      0.065000
     18 H7         -3.6660   -0.0440    0.8690 ha        1 QND      0.065000
     19 H8         -2.4670    0.0470   -1.1670 ha        1 QND      0.065000
@<TRIPOS>BOND
     1    1    2 3   
     2    2   11 1   
     3    3    4 3   
     4    3   14 1   
     5    4   15 1   
     6    5    6 3   
     7    5   16 1   
     8    6   17 1   
     9    7    8 3   
    10    7   18 1   
    11    8   19 1   
    12    9   10 1   
    13   11   12 1   
    14   11   13 1   
@<TRIPOS>SUBSTRUCTURE
     1 QND         1 TEMP              0 ****  ****    0 ROOT
