@<TRIPOS>MOLECULE
QNI
   40    43     1     0     0
SMALL
bcc


@<TRIPOS>ATOM
      1 C12         0.0090   -0.1780   -0.0300 cc        1 QNI      0.403700
      2 N3          1.3300    0.0530   -0.0510 nd        1 QNI     -0.535100
      3 N4         -0.5180   -0.3260    1.2700 na        1 QNI     -0.380000
      4 C13         0.5630   -0.1760    2.1470 ca        1 QNI      0.434800
      5 N5          0.6110   -0.2440    3.5100 nb        1 QNI     -0.716000
      6 C           1.8630   -0.0700    3.9890 ca        1 QNI      0.672900
      7 C11         1.7300    0.0670    1.2940 ca        1 QNI     -0.182200
      8 C1          2.9960    0.2240    1.9530 ca        1 QNI      0.729200
      9 N           3.0250    0.1610    3.3200 nb        1 QNI     -0.776000
     10 N1          4.1820    0.3440    1.2010 nh        1 QNI     -0.727300
     11 C10         5.4380    0.1390    1.9110 c3        1 QNI      0.194800
     12 C5          6.6440   -0.0740    0.9640 c3        1 QNI     -0.049000
     13 C4          6.7020    1.0690   -0.0460 c3        1 QNI     -0.074400
     14 C3          5.3820    1.2760   -0.7540 c3        1 QNI     -0.080400
     15 C2          4.2320    1.4370    0.2390 c3        1 QNI      0.191800
     16 C9          6.5270   -1.4350    0.2820 c3        1 QNI     -0.070900
     17 C8          7.8060   -1.8400   -0.4470 c3        1 QNI      0.164300
     18 N2          8.9950   -1.7540    0.3770 n3        1 QNI     -0.819200
     19 C7          9.1460   -0.4840    1.0590 c3        1 QNI      0.164300
     20 C6          7.9010   -0.0660    1.8380 c3        1 QNI     -0.070900
     21 H12        -0.6330   -0.2550   -0.9160 h5        1 QNI      0.073800
     22 H4         -1.4530   -0.5020    1.5240 hn        1 QNI      0.319700
     23 H           1.9620   -0.1130    5.0960 h5        1 QNI      0.054100
     24 H101        5.6670    1.0210    2.5780 h1        1 QNI      0.053700
     25 H102        5.3380   -0.7750    2.5610 h1        1 QNI      0.053700
     26 H21C        3.2690    1.4880   -0.3360 h1        1 QNI      0.052200
     27 H22C        4.3640    2.4200    0.7830 h1        1 QNI      0.052200
     28 H41C        7.5030    0.8620   -0.8020 hc        1 QNI      0.042700
     29 H42C        6.9830    2.0130    0.4930 hc        1 QNI      0.042700
     30 H91C        5.6850   -1.4240   -0.4570 hc        1 QNI      0.053200
     31 H92C        6.2870   -2.2080    1.0600 hc        1 QNI      0.053200
     32 H61C        8.0720    0.9600    2.2540 hc        1 QNI      0.053200
     33 H62C        7.7480   -0.7660    2.7010 hc        1 QNI      0.053200
     34 H31C        5.1720    0.4160   -1.4410 hc        1 QNI      0.052200
     35 H32C        5.4290    2.2060   -1.3800 hc        1 QNI      0.052200
     36 H81C        7.7080   -2.9140   -0.7730 h1        1 QNI      0.026200
     37 H82C        7.8960   -1.2130   -1.3850 h1        1 QNI      0.026200
     38 H2          9.8090   -1.9420   -0.1770 hn        1 QNI      0.360800
     39 H71C       10.0030   -0.5960    1.7820 h1        1 QNI      0.026200
     40 H72C        9.4130    0.3520    0.3450 h1        1 QNI      0.026200
@<TRIPOS>BOND
     1    1    2 2   
     2    1    3 1   
     3    1   21 1   
     4    2    7 1   
     5    3    4 1   
     6    3   22 1   
     7    4    5 ar  
     8    4    7 ar  
     9    5    6 ar  
    10    6    9 ar  
    11    6   23 1   
    12    7    8 ar  
    13    8    9 ar  
    14    8   10 1   
    15   10   11 1   
    16   10   15 1   
    17   11   12 1   
    18   11   24 1   
    19   11   25 1   
    20   12   13 1   
    21   12   16 1   
    22   12   20 1   
    23   13   14 1   
    24   13   28 1   
    25   13   29 1   
    26   14   15 1   
    27   14   34 1   
    28   14   35 1   
    29   15   26 1   
    30   15   27 1   
    31   16   17 1   
    32   16   30 1   
    33   16   31 1   
    34   17   18 1   
    35   17   36 1   
    36   17   37 1   
    37   18   19 1   
    38   18   38 1   
    39   19   20 1   
    40   19   39 1   
    41   19   40 1   
    42   20   32 1   
    43   20   33 1   
@<TRIPOS>SUBSTRUCTURE
     1 QNI         1 TEMP              0 ****  ****    0 ROOT
