@<TRIPOS>MOLECULE
QNI
   40    43     1     0     0
SMALL
bcc


@<TRIPOS>ATOM
      1 C12         0.0070   -0.1840   -0.0210 cc        1 QNI      0.403700
      2 N3          1.3280    0.0470   -0.0460 nd        1 QNI     -0.535100
      3 N4         -0.5180   -0.3250    1.2800 na        1 QNI     -0.380000
      4 C13         0.5640   -0.1700    2.1540 ca        1 QNI      0.434800
      5 N5          0.6150   -0.2310    3.5180 nb        1 QNI     -0.716000
      6 C           1.8670   -0.0540    3.9940 ca        1 QNI      0.673900
      7 C11         1.7300    0.0680    1.2980 ca        1 QNI     -0.182200
      8 C1          2.9970    0.2290    1.9540 ca        1 QNI      0.729200
      9 N           3.0290    0.1730    3.3220 nb        1 QNI     -0.776000
     10 N1          4.1820    0.3440    1.1990 nh        1 QNI     -0.727300
     11 C10         5.4390    0.1440    1.9090 c3        1 QNI      0.194800
     12 C5          6.6440   -0.0740    0.9620 c3        1 QNI     -0.049000
     13 C4          6.7000    1.0630   -0.0560 c3        1 QNI     -0.074400
     14 C3          5.3790    1.2660   -0.7620 c3        1 QNI     -0.080400
     15 C2          4.2310    1.4320    0.2310 c3        1 QNI      0.191800
     16 C9          6.5270   -1.4380    0.2880 c3        1 QNI     -0.070900
     17 C8          7.8050   -1.8470   -0.4410 c3        1 QNI      0.164300
     18 N2          8.9950   -1.7560    0.3810 n3        1 QNI     -0.819200
     19 C7          9.1460   -0.4820    1.0550 c3        1 QNI      0.164300
     20 C6          7.9030   -0.0600    1.8330 c3        1 QNI     -0.070900
     21 H12        -0.6360   -0.2660   -0.9060 h5        1 QNI      0.073800
     22 H4         -1.4530   -0.4990    1.5370 hn        1 QNI      0.319700
     23 H           1.9690   -0.0920    5.1000 h5        1 QNI      0.054100
     24 H101        5.3410   -0.7660    2.5640 h1        1 QNI      0.053700
     25 H102        5.6690    1.0300    2.5700 h1        1 QNI      0.053700
     26 H21C        3.2670    1.4800   -0.3430 h1        1 QNI      0.052200
     27 H22C        4.3630    2.4180    0.7690 h1        1 QNI      0.052200
     28 H41C        6.9820    2.0100    0.4780 hc        1 QNI      0.042700
     29 H42C        7.5000    0.8530   -0.8110 hc        1 QNI      0.042700
     30 H91C        5.6840   -1.4320   -0.4500 hc        1 QNI      0.053200
     31 H92C        6.2880   -2.2070    1.0700 hc        1 QNI      0.053200
     32 H61C        7.7510   -0.7550    2.7010 hc        1 QNI      0.053200
     33 H62C        8.0740    0.9680    2.2440 hc        1 QNI      0.053200
     34 H31C        5.4250    2.1920   -1.3930 hc        1 QNI      0.052200
     35 H32C        5.1680    0.4020   -1.4440 hc        1 QNI      0.052200
     36 H81C        7.8930   -1.2260   -1.3830 h1        1 QNI      0.026200
     37 H82C        7.7070   -2.9240   -0.7600 h1        1 QNI      0.026200
     38 H2          9.8090   -1.9460   -0.1730 hn        1 QNI      0.360800
     39 H71C        9.4120    0.3500    0.3360 h1        1 QNI      0.026200
     40 H72C       10.0050   -0.5890    1.7780 h1        1 QNI      0.026200
@<TRIPOS>BOND
     1    1    2 2   
     2    1    3 1   
     3    1   21 1   
     4    2    7 1   
     5    3    4 1   
     6    3   22 1   
     7    4    5 ar  
     8    4    7 ar  
     9    5    6 ar  
    10    6    9 ar  
    11    6   23 1   
    12    7    8 ar  
    13    8    9 ar  
    14    8   10 1   
    15   10   11 1   
    16   10   15 1   
    17   11   12 1   
    18   11   24 1   
    19   11   25 1   
    20   12   13 1   
    21   12   16 1   
    22   12   20 1   
    23   13   14 1   
    24   13   28 1   
    25   13   29 1   
    26   14   15 1   
    27   14   34 1   
    28   14   35 1   
    29   15   26 1   
    30   15   27 1   
    31   16   17 1   
    32   16   30 1   
    33   16   31 1   
    34   17   18 1   
    35   17   36 1   
    36   17   37 1   
    37   18   19 1   
    38   18   38 1   
    39   19   20 1   
    40   19   39 1   
    41   19   40 1   
    42   20   32 1   
    43   20   33 1   
@<TRIPOS>SUBSTRUCTURE
     1 QNI         1 TEMP              0 ****  ****    0 ROOT
