@<TRIPOS>MOLECULE
QNI
   40    43     1     0     0
SMALL
bcc


@<TRIPOS>ATOM
      1 C12         4.0020   -1.8740   -0.6020 cc        1 QNI      0.404700
      2 N3          2.7230   -1.7010   -0.2360 nd        1 QNI     -0.535100
      3 N4          4.7250   -0.6690   -0.7140 na        1 QNI     -0.380000
      4 C13         3.8270    0.3550   -0.3910 ca        1 QNI      0.434800
      5 N5          4.0040    1.7090   -0.3590 nb        1 QNI     -0.715000
      6 C           2.8730    2.3680   -0.0230 ca        1 QNI      0.672900
      7 C11         2.5600   -0.3150   -0.0870 ca        1 QNI     -0.182200
      8 C1          1.4440    0.5240    0.2470 ca        1 QNI      0.728200
      9 N           1.6400    1.8780    0.2810 nb        1 QNI     -0.777000
     10 N1          0.1630   -0.0350    0.4380 nh        1 QNI     -0.727300
     11 C10        -0.9670    0.8840    0.4180 c3        1 QNI      0.193800
     12 C5         -2.3320    0.1680    0.2660 c3        1 QNI     -0.046000
     13 C4         -2.4540   -0.9150    1.3350 c3        1 QNI     -0.073400
     14 C3         -1.2600   -1.8420    1.3560 c3        1 QNI     -0.080400
     15 C2          0.0520   -1.0650    1.4620 c3        1 QNI      0.190800
     16 C9         -2.4520   -0.4110   -1.1420 c3        1 QNI     -0.107900
     17 C8         -3.8770   -0.8570   -1.4720 c3        1 QNI      0.149800
     18 N2         -4.9120    0.1260   -1.2200 n3        1 QNI     -0.796200
     19 C7         -4.8040    0.7130    0.1010 c3        1 QNI      0.149800
     20 C6         -3.4150    1.2300    0.4760 c3        1 QNI     -0.107900
     21 H12         4.4740   -2.8420   -0.8060 h5        1 QNI      0.073800
     22 H4          5.6710   -0.5550   -0.9660 hn        1 QNI      0.319700
     23 H           2.9590    3.4750    0.0210 h5        1 QNI      0.054100
     24 H101       -0.9990    1.4990    1.3650 h1        1 QNI      0.051700
     25 H102       -0.8430    1.5880   -0.4520 h1        1 QNI      0.051700
     26 H21C        0.9040   -1.7910    1.3710 h1        1 QNI      0.052700
     27 H22C        0.1060   -0.5930    2.4880 h1        1 QNI      0.052700
     28 H41C       -2.5540   -0.4210    2.3390 hc        1 QNI      0.045200
     29 H42C       -3.3880   -1.5120    1.1610 hc        1 QNI      0.045200
     30 H91C       -2.1280    0.3680   -1.8820 hc        1 QNI      0.049950
     31 H92C       -1.7620   -1.2860   -1.2550 hc        1 QNI      0.049950
     32 H61C       -3.4260    1.5560    1.5480 hc        1 QNI      0.049950
     33 H62C       -3.1690    2.1290   -0.1480 hc        1 QNI      0.049950
     34 H31C       -1.3270   -2.5260    2.2420 hc        1 QNI      0.052700
     35 H32C       -1.2480   -2.4810    0.4350 hc        1 QNI      0.052700
     36 H81C       -3.9240   -1.1500   -2.5580 h1        1 QNI      0.051200
     37 H82C       -4.1270   -1.7710   -0.8620 h1        1 QNI      0.051200
     38 H2         -4.8620    0.8520   -1.9150 hn        1 QNI      0.347800
     39 H71C       -5.5410    1.5600    0.1740 h1        1 QNI      0.051200
     40 H72C       -5.1110   -0.0760    0.8450 h1        1 QNI      0.051200
@<TRIPOS>BOND
     1    1    2 2   
     2    1    3 1   
     3    1   21 1   
     4    2    7 1   
     5    3    4 1   
     6    3   22 1   
     7    4    5 ar  
     8    4    7 ar  
     9    5    6 ar  
    10    6    9 ar  
    11    6   23 1   
    12    7    8 ar  
    13    8    9 ar  
    14    8   10 1   
    15   10   11 1   
    16   10   15 1   
    17   11   12 1   
    18   11   24 1   
    19   11   25 1   
    20   12   13 1   
    21   12   16 1   
    22   12   20 1   
    23   13   14 1   
    24   13   28 1   
    25   13   29 1   
    26   14   15 1   
    27   14   34 1   
    28   14   35 1   
    29   15   26 1   
    30   15   27 1   
    31   16   17 1   
    32   16   30 1   
    33   16   31 1   
    34   17   18 1   
    35   17   36 1   
    36   17   37 1   
    37   18   19 1   
    38   18   38 1   
    39   19   20 1   
    40   19   39 1   
    41   19   40 1   
    42   20   32 1   
    43   20   33 1   
@<TRIPOS>SUBSTRUCTURE
     1 QNI         1 TEMP              0 ****  ****    0 ROOT
