@<TRIPOS>MOLECULE
QNI
   40    43     1     0     0
SMALL
bcc


@<TRIPOS>ATOM
      1 C12         0.0100   -0.1810   -0.0350 cc        1 QNI      0.403700
      2 N3          1.3310    0.0500   -0.0550 nd        1 QNI     -0.535100
      3 N4         -0.5180   -0.3290    1.2640 na        1 QNI     -0.380000
      4 C13         0.5610   -0.1780    2.1420 ca        1 QNI      0.434800
      5 N5          0.6080   -0.2450    3.5050 nb        1 QNI     -0.716000
      6 C           1.8590   -0.0710    3.9860 ca        1 QNI      0.673900
      7 C11         1.7290    0.0650    1.2900 ca        1 QNI     -0.182200
      8 C1          2.9940    0.2230    1.9510 ca        1 QNI      0.729200
      9 N           3.0220    0.1600    3.3180 nb        1 QNI     -0.776000
     10 N1          4.1810    0.3430    1.2000 nh        1 QNI     -0.727300
     11 C10         5.4360    0.1400    1.9110 c3        1 QNI      0.194800
     12 C5          6.6440   -0.0730    0.9660 c3        1 QNI     -0.049000
     13 C4          6.7020    1.0690   -0.0450 c3        1 QNI     -0.074400
     14 C3          5.3830    1.2760   -0.7540 c3        1 QNI     -0.080400
     15 C2          4.2320    1.4360    0.2370 c3        1 QNI      0.191800
     16 C9          6.5290   -1.4340    0.2850 c3        1 QNI     -0.070900
     17 C8          7.8090   -1.8390   -0.4430 c3        1 QNI      0.164300
     18 N2          8.9960   -1.7520    0.3830 n7        1 QNI     -0.819200
     19 C7          9.1460   -0.4820    1.0640 c3        1 QNI      0.164300
     20 C6          7.9000   -0.0640    1.8410 c3        1 QNI     -0.070900
     21 H12        -0.6310   -0.2590   -0.9220 h5        1 QNI      0.073800
     22 H4         -1.4540   -0.5050    1.5170 hn        1 QNI      0.319700
     23 H           1.9580   -0.1140    5.0920 h5        1 QNI      0.054100
     24 H101        5.6650    1.0220    2.5780 h1        1 QNI      0.053700
     25 H102        5.3370   -0.7750    2.5610 h1        1 QNI      0.053700
     26 H21C        3.2690    1.4860   -0.3390 h1        1 QNI      0.052200
     27 H22C        4.3630    2.4190    0.7810 h1        1 QNI      0.052200
     28 H41C        6.9820    2.0130    0.4940 hc        1 QNI      0.042700
     29 H42C        7.5050    0.8630   -0.8000 hc        1 QNI      0.042700
     30 H91C        5.6880   -1.4240   -0.4550 hc        1 QNI      0.053200
     31 H92C        6.2890   -2.2070    1.0620 hc        1 QNI      0.053200
     32 H61C        7.7470   -0.7640    2.7040 hc        1 QNI      0.053200
     33 H62C        8.0700    0.9620    2.2570 hc        1 QNI      0.053200
     34 H31C        5.4300    2.2040   -1.3800 hc        1 QNI      0.052200
     35 H32C        5.1740    0.4140   -1.4420 hc        1 QNI      0.052200
     36 H81C        7.7110   -2.9140   -0.7680 h1        1 QNI      0.026200
     37 H82C        7.8990   -1.2130   -1.3810 h1        1 QNI      0.026200
     38 H2          9.8120   -1.9390   -0.1710 hn        1 QNI      0.360800
     39 H71C       10.0030   -0.5920    1.7880 h1        1 QNI      0.026200
     40 H72C        9.4130    0.3540    0.3500 h1        1 QNI      0.026200
@<TRIPOS>BOND
     1    1    2 2   
     2    1    3 1   
     3    1   21 1   
     4    2    7 1   
     5    3    4 1   
     6    3   22 1   
     7    4    5 ar  
     8    4    7 ar  
     9    5    6 ar  
    10    6    9 ar  
    11    6   23 1   
    12    7    8 ar  
    13    8    9 ar  
    14    8   10 1   
    15   10   11 1   
    16   10   15 1   
    17   11   12 1   
    18   11   24 1   
    19   11   25 1   
    20   12   13 1   
    21   12   16 1   
    22   12   20 1   
    23   13   14 1   
    24   13   28 1   
    25   13   29 1   
    26   14   15 1   
    27   14   34 1   
    28   14   35 1   
    29   15   26 1   
    30   15   27 1   
    31   16   17 1   
    32   16   30 1   
    33   16   31 1   
    34   17   18 1   
    35   17   36 1   
    36   17   37 1   
    37   18   19 1   
    38   18   38 1   
    39   19   20 1   
    40   19   39 1   
    41   19   40 1   
    42   20   32 1   
    43   20   33 1   
@<TRIPOS>SUBSTRUCTURE
     1 QNI         1 TEMP              0 ****  ****    0 ROOT
