@<TRIPOS>MOLECULE
QNM
   32    33     1     0     0
SMALL
bcc


@<TRIPOS>ATOM
      1 OAK         0.0980    0.0870   -0.0150 o         1 QNM     -0.769800
      2 CAI         1.3350    0.2030   -0.0020 c         1 QNM      0.928600
      3 OAJ         2.1260    0.2750    0.9800 o         1 QNM     -0.769800
      4 C4          2.0230    0.2640   -1.4300 c3        1 QNM     -0.075200
      5 N3          3.4650    0.5850   -1.2880 n4        1 QNM     -0.647800
      6 C2          4.4150   -0.3160   -1.9930 c         1 QNM      0.597300
      7 O2          3.9830   -1.1440   -2.7910 o         1 QNM     -0.460100
      8 C6          6.6410   -1.2300   -1.4670 cc        1 QNM      0.446100
      9 O6          6.0110   -2.4480   -1.4570 oh        1 QNM     -0.469100
     10 CAL         8.7450   -2.3010   -0.7830 c3        1 QNM      0.172100
     11 CAN         8.6290    0.1150   -1.2940 ca        1 QNM      0.174600
     12 CAO        10.0380    0.2290   -1.2340 ca        1 QNM     -0.173000
     13 CA0         5.8270   -0.1150   -1.6510 cd        1 QNM     -0.424400
     14 CAP        10.6370    1.4800   -1.2840 ca        1 QNM     -0.069000
     15 CAQ         9.8660    2.6400   -1.4000 ca        1 QNM     -0.150000
     16 CAR         8.4840    2.5420   -1.4800 ca        1 QNM     -0.042000
     17 CAS         7.8510    1.2910   -1.4370 ca        1 QNM     -0.183600
     18 CAT         6.3860    1.2260   -1.5580 c         1 QNM      0.620900
     19 NAN         7.9990   -1.1480   -1.2250 na        1 QNM     -0.541800
     20 OAU         5.6800    2.2500   -1.6100 o         1 QNM     -0.592100
     21 H41C        1.8910   -0.7370   -1.9190 hx        1 QNM      0.093200
     22 H42C        1.5250    1.0510   -2.0500 hx        1 QNM      0.093200
     23 H3          3.6570    1.5520   -1.5810 hn        1 QNM      0.479800
     24 HAL1        8.0590   -3.0570   -0.3110 h1        1 QNM      0.070700
     25 HAL2        9.4950   -1.9940   -0.0050 h1        1 QNM      0.070700
     26 HAL3        9.2810   -2.7680   -1.6530 h1        1 QNM      0.070700
     27 HAO        10.6760   -0.6650   -1.1600 ha        1 QNM      0.144000
     28 HAP        11.7350    1.5550   -1.2340 ha        1 QNM      0.148000
     29 HAQ        10.3540    3.6260   -1.4310 ha        1 QNM      0.153000
     30 HAR         7.8550    3.4440   -1.5800 ha        1 QNM      0.172000
     31 HO6         6.5940   -3.1490   -1.7950 ho        1 QNM      0.453000
     32 H32         3.6610    0.5260   -0.2520 hn        1 QNM      0.479800
@<TRIPOS>BOND
     1    1    2 1   
     2    2    3 1   
     3    2    4 1   
     4    4    5 1   
     5    4   21 1   
     6    4   22 1   
     7    5    6 1   
     8    5   23 1   
     9    5   32 1   
    10    6    7 2   
    11    6   13 1   
    12    8    9 1   
    13    8   13 2   
    14    8   19 1   
    15    9   31 1   
    16   10   19 1   
    17   10   24 1   
    18   10   25 1   
    19   10   26 1   
    20   11   12 ar  
    21   11   17 ar  
    22   11   19 1   
    23   12   14 ar  
    24   12   27 1   
    25   13   18 1   
    26   14   15 ar  
    27   14   28 1   
    28   15   16 ar  
    29   15   29 1   
    30   16   17 ar  
    31   16   30 1   
    32   17   18 1   
    33   18   20 2   
@<TRIPOS>SUBSTRUCTURE
     1 QNM         1 TEMP              0 ****  ****    0 ROOT
