@<TRIPOS>MOLECULE
QNM
   32    33     1     0     0
SMALL
bcc


@<TRIPOS>ATOM
      1 OAK         0.0950    0.0580   -0.0310 o         1 QNM     -0.769800
      2 CAI         1.3320    0.1790   -0.0150 c         1 QNM      0.928600
      3 OAJ         2.1190    0.2500    0.9700 o         1 QNM     -0.769800
      4 C4          2.0230    0.2480   -1.4410 c3        1 QNM     -0.075200
      5 N3          3.4630    0.5740   -1.2940 n4        1 QNM     -0.647800
      6 C2          4.4190   -0.3210   -2.0000 c         1 QNM      0.597300
      7 O2          3.9920   -1.1470   -2.8020 o         1 QNM     -0.460100
      8 C6          6.6470   -1.2280   -1.4710 cc        1 QNM      0.446100
      9 O6          6.0210   -2.4490   -1.4670 oh        1 QNM     -0.469100
     10 CAL         8.7530   -2.2940   -0.7850 c3        1 QNM      0.172100
     11 CAN         8.6300    0.1240   -1.2880 ca        1 QNM      0.174600
     12 CAO        10.0380    0.2430   -1.2250 ca        1 QNM     -0.173000
     13 CA0         5.8290   -0.1160   -1.6530 cd        1 QNM     -0.424400
     14 CAP        10.6320    1.4970   -1.2680 ca        1 QNM     -0.069000
     15 CAQ         9.8570    2.6550   -1.3820 ca        1 QNM     -0.150000
     16 CAR         8.4760    2.5510   -1.4660 ca        1 QNM     -0.042000
     17 CAS         7.8470    1.2970   -1.4290 ca        1 QNM     -0.183600
     18 CAT         6.3830    1.2270   -1.5540 c         1 QNM      0.620900
     19 NAN         8.0040   -1.1410   -1.2250 na        1 QNM     -0.541800
     20 OAU         5.6730    2.2480   -1.6040 o         1 QNM     -0.592100
     21 H41C        1.8960   -0.7520   -1.9330 hx        1 QNM      0.093200
     22 H42C        1.5230    1.0350   -2.0590 hx        1 QNM      0.093200
     23 H3          3.6520    1.5420   -1.5830 hn        1 QNM      0.479800
     24 HAL1        8.0690   -3.0530   -0.3180 h1        1 QNM      0.070700
     25 HAL2        9.2930   -2.7550   -1.6550 h1        1 QNM      0.070700
     26 HAL3        9.5010   -1.9860   -0.0050 h1        1 QNM      0.070700
     27 HAO        10.6790   -0.6490   -1.1520 ha        1 QNM      0.144000
     28 HAP        11.7300    1.5760   -1.2150 ha        1 QNM      0.148000
     29 HAQ        10.3410    3.6420   -1.4090 ha        1 QNM      0.153000
     30 HAR         7.8430    3.4510   -1.5650 ha        1 QNM      0.172000
     31 HO6         6.6090   -3.1470   -1.8060 ho        1 QNM      0.453000
     32 H32         3.6570    0.5110   -0.2570 hn        1 QNM      0.479800
@<TRIPOS>BOND
     1    1    2 1   
     2    2    3 1   
     3    2    4 1   
     4    4    5 1   
     5    4   21 1   
     6    4   22 1   
     7    5    6 1   
     8    5   23 1   
     9    5   32 1   
    10    6    7 2   
    11    6   13 1   
    12    8    9 1   
    13    8   13 2   
    14    8   19 1   
    15    9   31 1   
    16   10   19 1   
    17   10   24 1   
    18   10   25 1   
    19   10   26 1   
    20   11   12 ar  
    21   11   17 ar  
    22   11   19 1   
    23   12   14 ar  
    24   12   27 1   
    25   13   18 1   
    26   14   15 ar  
    27   14   28 1   
    28   15   16 ar  
    29   15   29 1   
    30   16   17 ar  
    31   16   30 1   
    32   17   18 1   
    33   18   20 2   
@<TRIPOS>SUBSTRUCTURE
     1 QNM         1 TEMP              0 ****  ****    0 ROOT
