@<TRIPOS>MOLECULE
QNM
   31    32     1     0     0
SMALL
bcc


@<TRIPOS>ATOM
      1 OAK        -5.7360   -1.0580   -0.9290 o         1 QNM     -0.833300
      2 CAI        -4.4790   -1.1520   -0.9300 c         1 QNM      0.910600
      3 OAJ        -3.7910   -1.7140   -1.8270 o         1 QNM     -0.833300
      4 C4         -3.7580   -0.5170    0.2980 c3        1 QNM     -0.052000
      5 N3         -2.3220   -0.5230    0.1870 n         1 QNM     -0.472900
      6 C2         -1.5270    0.3570    0.8350 c         1 QNM      0.676300
      7 O2         -1.9940    1.2000    1.6610 o         1 QNM     -0.729100
      8 C6          0.6400    1.5560    0.6440 cc        1 QNM      0.421100
      9 O6          0.1020    2.7570    1.0160 oh        1 QNM     -0.540100
     10 CAL         2.6870    2.9340    0.4920 c3        1 QNM      0.202100
     11 CAN         2.6890    0.5650   -0.1500 ca        1 QNM      0.189600
     12 CAO         4.0350    0.6700   -0.5840 ca        1 QNM     -0.196000
     13 CA0        -0.0620    0.3670    0.5470 cd        1 QNM     -0.402400
     14 CAP         4.7000   -0.4460   -1.0710 ca        1 QNM     -0.087000
     15 CAQ         4.0610   -1.6860   -1.1450 ca        1 QNM     -0.181000
     16 CAR         2.7410   -1.8020   -0.7290 ca        1 QNM     -0.044000
     17 CAS         2.0430   -0.6930   -0.2310 ca        1 QNM     -0.194600
     18 CAT         0.6340   -0.8600    0.1930 c         1 QNM      0.605900
     19 NAN         2.0020    1.6750    0.3610 na        1 QNM     -0.536800
     20 OAU         0.1260   -1.9920    0.2380 o         1 QNM     -0.560100
     21 H41C       -4.1220    0.5380    0.4230 h1        1 QNM      0.042700
     22 H42C       -4.0580   -1.0960    1.2150 h1        1 QNM      0.042700
     23 H3         -1.9410   -1.1740   -0.4710 hn        1 QNM      0.352500
     24 HAL1        2.0450    3.6840    1.0260 h1        1 QNM      0.053367
     25 HAL2        3.6300    2.7850    1.0850 h1        1 QNM      0.053367
     26 HAL3        2.9500    3.3380   -0.5230 h1        1 QNM      0.053367
     27 HAO         4.5650    1.6330   -0.5490 ha        1 QNM      0.130000
     28 HAP         5.7440   -0.3480   -1.4050 ha        1 QNM      0.124000
     29 HAQ         4.5980   -2.5610   -1.5350 ha        1 QNM      0.132000
     30 HAR         2.2110   -2.7680   -0.7800 ha        1 QNM      0.165000
     31 HO6        -0.8230    2.6250    1.3240 ho        1 QNM      0.507000
@<TRIPOS>BOND
     1    1    2 1   
     2    2    3 1   
     3    2    4 1   
     4    4    5 1   
     5    4   21 1   
     6    4   22 1   
     7    5    6 1   
     8    5   23 1   
     9    6    7 2   
    10    6   13 1   
    11    8    9 1   
    12    8   13 2   
    13    8   19 1   
    14    9   31 1   
    15   10   19 1   
    16   10   24 1   
    17   10   25 1   
    18   10   26 1   
    19   11   12 ar  
    20   11   17 ar  
    21   11   19 1   
    22   12   14 ar  
    23   12   27 1   
    24   13   18 1   
    25   14   15 ar  
    26   14   28 1   
    27   15   16 ar  
    28   15   29 1   
    29   16   17 ar  
    30   16   30 1   
    31   17   18 1   
    32   18   20 2   
@<TRIPOS>SUBSTRUCTURE
     1 QNM         1 TEMP              0 ****  ****    0 ROOT
