@<TRIPOS>MOLECULE
QNM
   32    33     1     0     0
SMALL
bcc


@<TRIPOS>ATOM
      1 OAK         0.0910    0.0740   -0.0490 o         1 QNM     -0.769800
      2 CAI         1.3290    0.1920   -0.0290 c         1 QNM      0.928600
      3 OAJ         2.1140    0.2610    0.9580 o         1 QNM     -0.769800
      4 C4          2.0240    0.2580   -1.4540 c3        1 QNM     -0.075200
      5 N3          3.4640    0.5810   -1.3020 ny        1 QNM     -0.647800
      6 C2          4.4200   -0.3160   -2.0050 c         1 QNM      0.597300
      7 O2          3.9930   -1.1420   -2.8080 o         1 QNM     -0.460100
      8 C6          6.6440   -1.2280   -1.4700 cc        1 QNM      0.446100
      9 O6          6.0160   -2.4480   -1.4680 oh        1 QNM     -0.469100
     10 CAL         8.7450   -2.2990   -0.7780 c3        1 QNM      0.172100
     11 CAN         8.6300    0.1190   -1.2820 ca        1 QNM      0.174600
     12 CAO        10.0380    0.2340   -1.2140 ca        1 QNM     -0.173000
     13 CA0         5.8300   -0.1140   -1.6550 cd        1 QNM     -0.424400
     14 CAP        10.6350    1.4860   -1.2560 ca        1 QNM     -0.069000
     15 CAQ         9.8640    2.6460   -1.3730 ca        1 QNM     -0.150000
     16 CAR         8.4820    2.5460   -1.4600 ca        1 QNM     -0.042000
     17 CAS         7.8500    1.2930   -1.4250 ca        1 QNM     -0.183600
     18 CAT         6.3870    1.2270   -1.5540 c         1 QNM      0.620900
     19 NAN         8.0010   -1.1450   -1.2210 na        1 QNM     -0.541800
     20 OAU         5.6790    2.2500   -1.6060 o         1 QNM     -0.592100
     21 H41C        1.8960   -0.7410   -1.9460 hx        1 QNM      0.093200
     22 H42C        1.5280    1.0470   -2.0740 hx        1 QNM      0.093200
     23 H3          3.6560    1.5490   -1.5910 hn        1 QNM      0.479800
     24 HAL1        8.0590   -3.0570   -0.3130 h1        1 QNM      0.070700
     25 HAL2        9.2870   -2.7620   -1.6470 h1        1 QNM      0.070700
     26 HAL3        9.4920   -1.9930    0.0040 h1        1 QNM      0.070700
     27 HAO        10.6770   -0.6590   -1.1390 ha        1 QNM      0.144000
     28 HAP        11.7330    1.5630   -1.2000 ha        1 QNM      0.148000
     29 HAQ        10.3510    3.6330   -1.3980 ha        1 QNM      0.153000
     30 HAR         7.8520    3.4470   -1.5610 ha        1 QNM      0.172000
     31 HO6         6.6020   -3.1470   -1.8050 ho        1 QNM      0.453000
     32 H32         3.6560    0.5190   -0.2660 hn        1 QNM      0.479800
@<TRIPOS>BOND
     1    1    2 1   
     2    2    3 1   
     3    2    4 1   
     4    4    5 1   
     5    4   21 1   
     6    4   22 1   
     7    5    6 1   
     8    5   23 1   
     9    5   32 1   
    10    6    7 2   
    11    6   13 1   
    12    8    9 1   
    13    8   13 2   
    14    8   19 1   
    15    9   31 1   
    16   10   19 1   
    17   10   24 1   
    18   10   25 1   
    19   10   26 1   
    20   11   12 ar  
    21   11   17 ar  
    22   11   19 1   
    23   12   14 ar  
    24   12   27 1   
    25   13   18 1   
    26   14   15 ar  
    27   14   28 1   
    28   15   16 ar  
    29   15   29 1   
    30   16   17 ar  
    31   16   30 1   
    32   17   18 1   
    33   18   20 2   
@<TRIPOS>SUBSTRUCTURE
     1 QNM         1 TEMP              0 ****  ****    0 ROOT
