@<TRIPOS>MOLECULE
QNO
   46    47     1     0     0
SMALL
bcc


@<TRIPOS>ATOM
      1 C29         0.0630    0.5460    1.3110 c3        1 QNO     -0.092100
      2 C28         1.5190    0.4280    0.9430 c3        1 QNO     -0.080400
      3 C27         2.3800    0.1650    2.1610 c3        1 QNO     -0.079400
      4 C26         3.8420    0.0480    1.7870 c3        1 QNO     -0.079400
      5 C25         4.7010   -0.2150    3.0050 c3        1 QNO     -0.078400
      6 C24         6.1630   -0.3330    2.6310 c3        1 QNO     -0.078400
      7 C23         7.0230   -0.5930    3.8490 c3        1 QNO     -0.080400
      8 C22         8.4820   -0.7260    3.4710 c3        1 QNO     -0.080400
      9 C21         9.3760   -0.9010    4.6830 c3        1 QNO     -0.014100
     10 C2          9.5000    0.3560    5.4910 ca        1 QNO     -0.139600
     11 C3          8.7870    0.4660    6.7160 ca        1 QNO     -0.193000
     12 C4          8.8900    1.6000    7.4880 ca        1 QNO      0.109100
     13 O41         8.2290    1.7720    8.6820 oh        1 QNO     -0.490100
     14 C5          9.7200    2.6860    7.0620 ca        1 QNO     -0.025000
     15 C51         9.8640    3.8750    7.8180 ca        1 QNO     -0.103000
     16 C52        10.6720    4.8950    7.3710 ca        1 QNO     -0.118000
     17 C62        11.3690    4.7660    6.1490 ca        1 QNO     -0.124000
     18 C61        11.2520    3.6260    5.3900 ca        1 QNO     -0.091000
     19 C6         10.4200    2.5560    5.8340 ca        1 QNO     -0.078300
     20 N1         10.3050    1.3740    5.0380 na        1 QNO      0.228600
     21 OH         10.9260    1.2950    3.9810 o         1 QNO     -0.305000
     22 H291       -0.0960    1.3870    2.0280 hc        1 QNO      0.032367
     23 H292       -0.5530    0.7390    0.3990 hc        1 QNO      0.032367
     24 H293       -0.3010   -0.3950    1.7890 hc        1 QNO      0.032367
     25 H281        1.6550   -0.4050    0.2040 hc        1 QNO      0.038700
     26 H282        1.8590    1.3720    0.4420 hc        1 QNO      0.038700
     27 H271        2.0420   -0.7800    2.6630 hc        1 QNO      0.038700
     28 H272        2.2470    0.9980    2.9010 hc        1 QNO      0.038700
     29 H261        3.9750   -0.7850    1.0470 hc        1 QNO      0.040200
     30 H262        4.1790    0.9930    1.2860 hc        1 QNO      0.040200
     31 H251        4.3640   -1.1600    3.5070 hc        1 QNO      0.038200
     32 H252        4.5690    0.6180    3.7450 hc        1 QNO      0.038200
     33 H241        6.5000    0.6120    2.1280 hc        1 QNO      0.042200
     34 H242        6.2960   -1.1660    1.8910 hc        1 QNO      0.042200
     35 H231        6.6780   -1.5310    4.3590 hc        1 QNO      0.036700
     36 H232        6.9020    0.2460    4.5840 hc        1 QNO      0.036700
     37 H221        8.8160    0.1760    2.8920 hc        1 QNO      0.056200
     38 H222        8.6120   -1.6170    2.8010 hc        1 QNO      0.056200
     39 H211        8.9730   -1.7140    5.3430 hc        1 QNO      0.061700
     40 H212       10.3990   -1.2160    4.3330 hc        1 QNO      0.061700
     41 H3          8.1530   -0.3800    7.0170 ha        1 QNO      0.153000
     42 H41         7.7090    0.9720    8.8510 ho        1 QNO      0.424000
     43 H51         9.3120    3.9540    8.7680 ha        1 QNO      0.157000
     44 H52        10.7830    5.8180    7.9590 ha        1 QNO      0.140000
     45 H62        12.0110    5.5920    5.8070 ha        1 QNO      0.142000
     46 H61        11.7920    3.5150    4.4340 ha        1 QNO      0.173000
@<TRIPOS>BOND
     1    1    2 1   
     2    1   22 1   
     3    1   23 1   
     4    1   24 1   
     5    2    3 1   
     6    2   25 1   
     7    2   26 1   
     8    3    4 1   
     9    3   27 1   
    10    3   28 1   
    11    4    5 1   
    12    4   29 1   
    13    4   30 1   
    14    5    6 1   
    15    5   31 1   
    16    5   32 1   
    17    6    7 1   
    18    6   33 1   
    19    6   34 1   
    20    7    8 1   
    21    7   35 1   
    22    7   36 1   
    23    8    9 1   
    24    8   37 1   
    25    8   38 1   
    26    9   10 1   
    27    9   39 1   
    28    9   40 1   
    29   10   11 ar  
    30   10   20 2   
    31   11   12 ar  
    32   11   41 1   
    33   12   13 1   
    34   12   14 ar  
    35   13   42 1   
    36   14   15 ar  
    37   14   19 ar  
    38   15   16 ar  
    39   15   43 1   
    40   16   17 ar  
    41   16   44 1   
    42   17   18 ar  
    43   17   45 1   
    44   18   19 ar  
    45   18   46 1   
    46   19   20 1   
    47   20   21 1   
@<TRIPOS>SUBSTRUCTURE
     1 QNO         1 TEMP              0 ****  ****    0 ROOT
