@<TRIPOS>MOLECULE
QNO
   46    47     1     0     0
SMALL
bcc


@<TRIPOS>ATOM
      1 C29         0.0680    0.5110    1.3000 c3        1 QNO     -0.092100
      2 C28         1.5260    0.4140    0.9330 c3        1 QNO     -0.080400
      3 C27         2.3890    0.1440    2.1480 c3        1 QNO     -0.079400
      4 C26         3.8520    0.0480    1.7740 c3        1 QNO     -0.079400
      5 C25         4.7130   -0.2220    2.9900 c3        1 QNO     -0.078400
      6 C24         6.1760   -0.3190    2.6150 c3        1 QNO     -0.078400
      7 C23         7.0380   -0.5860    3.8300 c3        1 QNO     -0.080400
      8 C22         8.4990   -0.6990    3.4520 c3        1 QNO     -0.080400
      9 C21         9.3940   -0.8800    4.6640 c3        1 QNO     -0.014100
     10 C2          9.5050    0.3680    5.4870 ca        1 QNO     -0.139600
     11 C3          8.7900    0.4580    6.7110 ca        1 QNO     -0.193000
     12 C4          8.8810    1.5830    7.4970 ca        1 QNO      0.109100
     13 O41         8.2170    1.7350    8.6930 oh        1 QNO     -0.490100
     14 C5          9.7020    2.6810    7.0850 ca        1 QNO     -0.025000
     15 C51         9.8340    3.8630    7.8550 ca        1 QNO     -0.103000
     16 C52        10.6330    4.8950    7.4210 ca        1 QNO     -0.118000
     17 C62        11.3320    4.7880    6.1990 ca        1 QNO     -0.124000
     18 C61        11.2260    3.6550    5.4260 ca        1 QNO     -0.091000
     19 C6         10.4040    2.5730    5.8570 ca        1 QNO     -0.078300
     20 N1         10.3010    1.3990    5.0460 na        1 QNO      0.228600
     21 OH         10.9240    1.3390    3.9900 o         1 QNO     -0.305000
     22 H291       -0.1010    1.3410    2.0290 hc        1 QNO      0.032367
     23 H292       -0.5490    0.7100    0.3910 hc        1 QNO      0.032367
     24 H293       -0.2860   -0.4400    1.7660 hc        1 QNO      0.032367
     25 H281        1.6720   -0.4070    0.1820 hc        1 QNO      0.038700
     26 H282        1.8570    1.3690    0.4450 hc        1 QNO      0.038700
     27 H271        2.0610   -0.8110    2.6360 hc        1 QNO      0.038700
     28 H272        2.2450    0.9660    2.8990 hc        1 QNO      0.038700
     29 H261        3.9950   -0.7730    1.0230 hc        1 QNO      0.040200
     30 H262        4.1800    1.0030    1.2860 hc        1 QNO      0.040200
     31 H251        4.3850   -1.1760    3.4790 hc        1 QNO      0.038200
     32 H252        4.5710    0.6000    3.7400 hc        1 QNO      0.038200
     33 H241        6.5040    0.6360    2.1250 hc        1 QNO      0.042200
     34 H242        6.3190   -1.1410    1.8650 hc        1 QNO      0.042200
     35 H231        6.7020   -1.5340    4.3280 hc        1 QNO      0.036700
     36 H232        6.9080    0.2430    4.5760 hc        1 QNO      0.036700
     37 H221        8.8230    0.2130    2.8850 hc        1 QNO      0.056200
     38 H222        8.6390   -1.5810    2.7720 hc        1 QNO      0.056200
     39 H211        8.9980   -1.7040    5.3140 hc        1 QNO      0.061700
     40 H212       10.4190   -1.1800    4.3110 hc        1 QNO      0.061700
     41 H3          8.1630   -0.3980    7.0010 ha        1 QNO      0.153000
     42 H41         7.7050    0.9280    8.8520 ho        1 QNO      0.424000
     43 H51         9.2790    3.9250    8.8050 ha        1 QNO      0.157000
     44 H52        10.7340    5.8120    8.0210 ha        1 QNO      0.140000
     45 H62        11.9660    5.6240    5.8680 ha        1 QNO      0.142000
     46 H61        11.7690    3.5610    4.4690 ha        1 QNO      0.173000
@<TRIPOS>BOND
     1    1    2 1   
     2    1   22 1   
     3    1   23 1   
     4    1   24 1   
     5    2    3 1   
     6    2   25 1   
     7    2   26 1   
     8    3    4 1   
     9    3   27 1   
    10    3   28 1   
    11    4    5 1   
    12    4   29 1   
    13    4   30 1   
    14    5    6 1   
    15    5   31 1   
    16    5   32 1   
    17    6    7 1   
    18    6   33 1   
    19    6   34 1   
    20    7    8 1   
    21    7   35 1   
    22    7   36 1   
    23    8    9 1   
    24    8   37 1   
    25    8   38 1   
    26    9   10 1   
    27    9   39 1   
    28    9   40 1   
    29   10   11 ar  
    30   10   20 2   
    31   11   12 ar  
    32   11   41 1   
    33   12   13 1   
    34   12   14 ar  
    35   13   42 1   
    36   14   15 ar  
    37   14   19 ar  
    38   15   16 ar  
    39   15   43 1   
    40   16   17 ar  
    41   16   44 1   
    42   17   18 ar  
    43   17   45 1   
    44   18   19 ar  
    45   18   46 1   
    46   19   20 1   
    47   20   21 1   
@<TRIPOS>SUBSTRUCTURE
     1 QNO         1 TEMP              0 ****  ****    0 ROOT
