@<TRIPOS>MOLECULE
QNO
   46    47     1     0     0
SMALL
bcc


@<TRIPOS>ATOM
      1 C29        -5.1110   -5.1340   -8.9650 c3        1 QNO     -0.092100
      2 C28        -4.9130   -4.6730   -7.5440 c3        1 QNO     -0.080400
      3 C27        -3.5080   -4.9580   -7.0580 c3        1 QNO     -0.079400
      4 C26        -3.3140   -4.4940   -5.6300 c3        1 QNO     -0.079400
      5 C25        -1.9090   -4.7800   -5.1450 c3        1 QNO     -0.078400
      6 C24        -1.7160   -4.3140   -3.7170 c3        1 QNO     -0.078400
      7 C23        -0.3120   -4.6030   -3.2310 c3        1 QNO     -0.080400
      8 C22        -0.1150   -4.1220   -1.8090 c3        1 QNO     -0.080400
      9 C21         1.2560   -4.4780   -1.2670 c3        1 QNO     -0.014100
     10 C2          1.4040   -5.9450   -0.9970 ca        1 QNO     -0.139600
     11 C3          2.1570   -6.7440   -1.8990 ca        1 QNO     -0.193000
     12 C4          2.3250   -8.0910   -1.6730 ca        1 QNO      0.109100
     13 O41         3.0410   -8.9210   -2.5030 oh        1 QNO     -0.490100
     14 C5          1.7360   -8.7030   -0.5200 ca        1 QNO     -0.025000
     15 C51         1.8770  -10.0840   -0.2370 ca        1 QNO     -0.103000
     16 C52         1.2940  -10.6320    0.8810 ca        1 QNO     -0.118000
     17 C62         0.5460   -9.8210    1.7630 ca        1 QNO     -0.124000
     18 C61         0.3890   -8.4770    1.5190 ca        1 QNO     -0.091000
     19 C6          0.9850   -7.8880    0.3650 ca        1 QNO     -0.078300
     20 N1          0.8150   -6.4890    0.1200 na        1 QNO      0.228600
     21 OH          0.1590   -5.8130    0.9090 o         1 QNO     -0.305000
     22 H291       -6.1520   -4.9140   -9.3030 hc        1 QNO      0.032367
     23 H292       -4.9370   -6.2340   -9.0500 hc        1 QNO      0.032367
     24 H293       -4.3990   -4.6140   -9.6510 hc        1 QNO      0.032367
     25 H281       -5.6520   -5.1870   -6.8750 hc        1 QNO      0.038700
     26 H282       -5.1150   -3.5710   -7.4740 hc        1 QNO      0.038700
     27 H271       -2.7680   -4.4440   -7.7250 hc        1 QNO      0.038700
     28 H272       -3.3040   -6.0600   -7.1260 hc        1 QNO      0.038700
     29 H261       -4.0540   -5.0080   -4.9630 hc        1 QNO      0.040200
     30 H262       -3.5180   -3.3920   -5.5620 hc        1 QNO      0.040200
     31 H251       -1.1690   -4.2660   -5.8120 hc        1 QNO      0.038200
     32 H252       -1.7060   -5.8810   -5.2120 hc        1 QNO      0.038200
     33 H241       -2.4580   -4.8280   -3.0500 hc        1 QNO      0.042200
     34 H242       -1.9180   -3.2130   -3.6500 hc        1 QNO      0.042200
     35 H231       -0.1120   -5.7060   -3.2840 hc        1 QNO      0.036700
     36 H232        0.4300   -4.1000   -3.9050 hc        1 QNO      0.036700
     37 H221       -0.2340   -3.0070   -1.7750 hc        1 QNO      0.056200
     38 H222       -0.9030   -4.5610   -1.1410 hc        1 QNO      0.056200
     39 H211        2.0490   -4.1650   -1.9960 hc        1 QNO      0.061700
     40 H212        1.4220   -3.9090   -0.3100 hc        1 QNO      0.061700
     41 H3          2.5940   -6.2490   -2.7780 ha        1 QNO      0.153000
     42 H41         3.3810   -8.3850   -3.2360 ho        1 QNO      0.424000
     43 H51         2.4650  -10.6980   -0.9390 ha        1 QNO      0.157000
     44 H52         1.4050  -11.7050    1.0990 ha        1 QNO      0.140000
     45 H62         0.0870  -10.2770    2.6540 ha        1 QNO      0.142000
     46 H61        -0.1940   -7.8340    2.2020 ha        1 QNO      0.173000
@<TRIPOS>BOND
     1    1    2 1   
     2    1   22 1   
     3    1   23 1   
     4    1   24 1   
     5    2    3 1   
     6    2   25 1   
     7    2   26 1   
     8    3    4 1   
     9    3   27 1   
    10    3   28 1   
    11    4    5 1   
    12    4   29 1   
    13    4   30 1   
    14    5    6 1   
    15    5   31 1   
    16    5   32 1   
    17    6    7 1   
    18    6   33 1   
    19    6   34 1   
    20    7    8 1   
    21    7   35 1   
    22    7   36 1   
    23    8    9 1   
    24    8   37 1   
    25    8   38 1   
    26    9   10 1   
    27    9   39 1   
    28    9   40 1   
    29   10   11 ar  
    30   10   20 2   
    31   11   12 ar  
    32   11   41 1   
    33   12   13 1   
    34   12   14 ar  
    35   13   42 1   
    36   14   15 ar  
    37   14   19 ar  
    38   15   16 ar  
    39   15   43 1   
    40   16   17 ar  
    41   16   44 1   
    42   17   18 ar  
    43   17   45 1   
    44   18   19 ar  
    45   18   46 1   
    46   19   20 1   
    47   20   21 1   
@<TRIPOS>SUBSTRUCTURE
     1 QNO         1 TEMP              0 ****  ****    0 ROOT
