@<TRIPOS>MOLECULE
QNZ
   44    48     1     0     0
SMALL
bcc


@<TRIPOS>ATOM
      1 N2         -1.2810   -0.0200   -2.2260 n1        1 QNZ     -0.074000
      2 C23        -0.7150   -0.0000   -1.2400 c1        1 QNZ     -0.088000
      3 C20         0.0000    0.0000    0.0000 ca        1 QNZ      0.091000
      4 C19         1.3970    0.0000    0.0000 ca        1 QNZ     -0.102000
      5 C18         2.0810    0.0000    1.1820 ca        1 QNZ     -0.091500
      6 C21        -0.7010    0.0060    1.2110 ca        1 QNZ     -0.102000
      7 C22        -0.0190    0.0060    2.3940 ca        1 QNZ     -0.091500
      8 C17         1.3810   -0.0000    2.3950 ca        1 QNZ     -0.039000
      9 C16         2.1160   -0.0020    3.6690 c2        1 QNZ     -0.032000
     10 C15         1.4410   -0.0020    4.8370 c2        1 QNZ     -0.182000
     11 C14         2.1730   -0.0020    6.1050 c3        1 QNZ      0.159000
     12 N           1.4590   -0.0940    7.2750 n         1 QNZ      0.198000
     13 C5          0.0620   -0.1830    7.2330 ca        1 QNZ     -0.199000
     14 C4         -0.5530   -1.4290    7.1660 ca        1 QNZ     -0.098000
     15 C3         -1.9310   -1.5230    7.1230 ca        1 QNZ     -0.165000
     16 C2         -2.7060   -0.3820    7.1470 ca        1 QNZ     -0.020000
     17 C6         -0.7070    0.9680    7.2630 ca        1 QNZ      0.007000
     18 C1         -2.0990    0.8740    7.2140 ca        1 QNZ     -0.046000
     19 C          -2.9260    2.0980    7.2390 c2        1 QNZ      0.418000
     20 O1         -2.3960    3.1890    7.2980 o         1 QNZ     -0.612000
     21 O          -4.2700    2.0040    7.1970 o         1 QNZ     -0.612000
     22 N1          3.4820    0.0790    6.0740 n2        1 QNZ     -0.246000
     23 C9          4.2180    0.0840    7.2020 ca        1 QNZ      0.082000
     24 C10         5.6140    0.1700    7.1630 ca        1 QNZ     -0.130000
     25 C11         6.3260    0.1720    8.3290 ca        1 QNZ     -0.094000
     26 C12         5.6850    0.0890    9.5580 ca        1 QNZ     -0.237000
     27 C13         4.3110    0.0010    9.6290 ca        1 QNZ      0.018000
     28 C8          3.5650   -0.0020    8.4530 ca        1 QNZ     -0.184000
     29 C7          2.0980   -0.0990    8.4680 c2        1 QNZ      0.260000
     30 O2          1.4810   -0.1800    9.5130 o         1 QNZ     -0.349000
     31 H19         2.2250   -0.2940   -0.6340 ha        1 QNZ      0.129500
     32 H21        -1.6300   -0.4580    1.5170 ha        1 QNZ      0.129500
     33 H18         3.1530   -0.1450    1.2280 ha        1 QNZ      0.126500
     34 H22        -0.6220   -0.2470    3.2580 ha        1 QNZ      0.126500
     35 H16         2.3800   -1.0450    3.7890 ha        1 QNZ      0.078000
     36 H15         1.8250   -0.4370    5.7520 DU        1 QNZ      0.108000
     37 H4          0.1010   -2.2910    7.2020 ha        1 QNZ      0.081000
     38 H6         -0.0040    1.7870    7.1660 ha        1 QNZ      0.113000
     39 H3         -2.5010   -2.4360    7.0030 ha        1 QNZ      0.093000
     40 H2         -3.7260   -0.7430    7.2030 ha        1 QNZ      0.114000
     41 H10         6.1590    0.8090    6.4780 ha        1 QNZ      0.119000
     42 H11         7.3930    0.0230    8.4430 ha        1 QNZ      0.095000
     43 H12         6.4260   -0.3940   10.1840 ha        1 QNZ      0.110000
     44 H13         4.3550   -0.0150   10.7110 ha        1 QNZ      0.137000
@<TRIPOS>BOND
     1    1    2 1   
     2    2    3 1   
     3    3    4 1   
     4    3    6 1   
     5    4    5 1   
     6    4   31 1   
     7    5    8 1   
     8    5   33 1   
     9    6    7 1   
    10    6   32 1   
    11    7    8 1   
    12    7   34 1   
    13    8    9 1   
    14    9   10 1   
    15    9   35 1   
    16   10   11 1   
    17   10   36 1   
    18   11   12 1   
    19   11   22 1   
    20   11   36 1   
    21   12   13 1   
    22   12   29 1   
    23   13   14 1   
    24   13   17 1   
    25   14   15 1   
    26   14   37 1   
    27   15   16 1   
    28   15   39 1   
    29   16   18 1   
    30   16   40 1   
    31   17   18 1   
    32   17   38 1   
    33   18   19 1   
    34   19   20 1   
    35   19   21 1   
    36   22   23 1   
    37   23   24 1   
    38   23   28 1   
    39   24   25 1   
    40   24   41 1   
    41   25   26 1   
    42   25   42 1   
    43   26   27 1   
    44   26   43 1   
    45   27   28 1   
    46   27   44 1   
    47   28   29 1   
    48   29   30 1   
@<TRIPOS>SUBSTRUCTURE
     1 QNZ         1 TEMP              0 ****  ****    0 ROOT
