@<TRIPOS>MOLECULE
QNZ
   44    47     1     0     0
SMALL
bcc


@<TRIPOS>ATOM
      1 N2         -1.0060    1.2600   -3.5420 n1        1 QNZ     -0.135000
      2 C23        -0.7470    1.0560   -2.4240 c1        1 QNZ     -0.050000
      3 C20        -0.4310    0.8070   -1.0670 ca        1 QNZ     -0.127000
      4 C19         0.8300    0.3000   -0.7120 ca        1 QNZ     -0.072500
      5 C18         1.1360    0.0580    0.6150 ca        1 QNZ     -0.195500
      6 C21        -1.3710    1.0630   -0.0550 ca        1 QNZ     -0.072500
      7 C22        -1.0610    0.8200    1.2730 ca        1 QNZ     -0.195500
      8 C17         0.2010    0.3090    1.6510 ca        1 QNZ      0.103000
      9 C16         0.5690    0.0390    3.0040 c2        1 QNZ     -0.383000
     10 C15        -0.1040    0.1600    4.1830 c1        1 QNZ     -0.235000
     11 C14         2.6900   -0.3930    6.9540 c2        1 QNZ      0.085000
     12 N           1.8880   -0.2970    8.1010 n         1 QNZ     -0.232000
     13 C5          0.4720   -0.3480    7.9370 ca        1 QNZ     -0.007000
     14 C4         -0.3440   -1.0760    8.8250 ca        1 QNZ     -0.098000
     15 C3         -1.7130   -1.1660    8.5850 ca        1 QNZ     -0.159000
     16 C2         -2.2790   -0.5780    7.4570 ca        1 QNZ     -0.087000
     17 C6         -0.1120    0.3100    6.8320 ca        1 QNZ     -0.038000
     18 C1         -1.4730    0.1430    6.5700 ca        1 QNZ     -0.097000
     19 C          -2.0700    0.6840    5.3310 c2        1 QNZ      0.367000
     20 O1         -1.4070    0.6550    4.1390 os        1 QNZ     -0.213000
     21 O          -3.2110    1.1610    5.2420 o         1 QNZ     -0.373000
     22 N1          4.0010   -0.3570    6.9190 n2        1 QNZ     -0.207000
     23 C9          4.6840   -0.2000    8.1300 ca        1 QNZ      0.051000
     24 C10         6.1010   -0.1410    8.1560 ca        1 QNZ     -0.129000
     25 C11         6.7660    0.0160    9.3600 ca        1 QNZ     -0.102000
     26 C12         6.0600    0.1200   10.5670 ca        1 QNZ     -0.169000
     27 C13         4.6750    0.0660   10.5670 ca        1 QNZ     -0.060000
     28 C8          3.9810   -0.0950    9.3590 ca        1 QNZ     -0.178000
     29 C7          2.5020   -0.1530    9.3660 c2        1 QNZ      0.345000
     30 O2          1.8310   -0.0870   10.4130 o         1 QNZ     -0.354000
     31 H19         1.5730    0.0960   -1.4970 ha        1 QNZ      0.115000
     32 H21        -2.3610    1.4610   -0.3230 ha        1 QNZ      0.115000
     33 H18         2.1260   -0.3390    0.8810 ha        1 QNZ      0.139500
     34 H22        -1.8120    1.0280    2.0520 ha        1 QNZ      0.139500
     35 H16         1.5960   -0.3490    3.1320 ha        1 QNZ      0.105000
     36 H15         2.1420   -0.5090    5.9810 h5        1 QNZ      0.239000
     37 H4          0.0920   -1.5570    9.7140 ha        1 QNZ      0.147000
     38 H6          0.4960    0.9210    6.1400 ha        1 QNZ      0.191000
     39 H3         -2.3480   -1.7200    9.2920 ha        1 QNZ      0.126000
     40 H2         -3.3560   -0.6740    7.2520 ha        1 QNZ      0.144000
     41 H10         6.6620   -0.2200    7.2120 ha        1 QNZ      0.150000
     42 H11         7.8650    0.0620    9.3720 ha        1 QNZ      0.127000
     43 H12         6.6080    0.2460   11.5110 ha        1 QNZ      0.129000
     44 H13         4.1000    0.1460   11.5040 ha        1 QNZ      0.153000
@<TRIPOS>BOND
     1    1    2 1   
     2    2    3 1   
     3    3    4 1   
     4    3    6 1   
     5    4    5 1   
     6    4   31 1   
     7    5    8 1   
     8    5   33 1   
     9    6    7 1   
    10    6   32 1   
    11    7    8 1   
    12    7   34 1   
    13    8    9 1   
    14    9   10 1   
    15    9   35 1   
    16   10   20 1   
    17   11   12 1   
    18   11   22 1   
    19   11   36 1   
    20   12   13 1   
    21   12   29 1   
    22   13   14 1   
    23   13   17 1   
    24   14   15 1   
    25   14   37 1   
    26   15   16 1   
    27   15   39 1   
    28   16   18 1   
    29   16   40 1   
    30   17   18 1   
    31   17   38 1   
    32   18   19 1   
    33   19   20 1   
    34   19   21 1   
    35   22   23 1   
    36   23   24 1   
    37   23   28 1   
    38   24   25 1   
    39   24   41 1   
    40   25   26 1   
    41   25   42 1   
    42   26   27 1   
    43   26   43 1   
    44   27   28 1   
    45   27   44 1   
    46   28   29 1   
    47   29   30 1   
@<TRIPOS>SUBSTRUCTURE
     1 QNZ         1 TEMP              0 ****  ****    0 ROOT
