@<TRIPOS>MOLECULE
QPA
   25    22     1     0     0
SMALL
bcc


@<TRIPOS>ATOM
      1 C        1094.1230  -57.0410  143.1330 c2        1 QPA      0.327000
      2 N        1094.8060  -59.2560  144.0740 n3        1 QPA     -0.344000
      3 O        1093.4600  -57.5360  142.1700 o         1 QPA     -0.619500
      4 C8      -1010.2400   53.0980 -131.7270 c2        1 QPA      0.218000
      5 C9      -1011.4670   53.8460 -132.1550 c3        1 QPA     -0.287000
      6 CA       1095.2290  -57.8870  143.8260 c3        1 QPA     -0.095000
      7 CB       1096.5230  -57.7640  143.0040 c3        1 QPA     -0.079000
      8 SG       1097.8270  -58.8600  143.4870 s         1 QPA     -0.992000
      9 C10     -1010.5330   51.7200 -131.1240 c2        1 QPA      0.317000
     10 O10     -1010.7580   51.6530 -129.8820 o         1 QPA     -0.572000
     11 O11     -1007.2930   56.0340 -131.4390 o         1 QPA     -1.153667
     12 O12     -1009.2670   56.1600 -133.0490 o         1 QPA     -1.153667
     13 O13     -1007.1170   54.9830 -133.7500 o         1 QPA     -1.153667
     14 O14     -1009.1070   53.5850 -131.8640 o         1 QPA     -0.379000
     15 OXT      1093.9110  -55.8640  143.5580 o         1 QPA     -0.619500
     16 HN       1094.3070  -59.5810  143.2640 hn        1 QPA      0.131500
     17 HNA      1095.6440  -59.8160  144.1630 hn        1 QPA      0.131500
     18 H9      -1012.1280   53.9850 -131.2660 hc        1 QPA      0.095667
     19 H9A     -1011.2100   54.8440 -132.5920 hc        1 QPA      0.095667
     20 H9B     -1012.0100   53.2340 -132.9150 hc        1 QPA      0.095667
     21 HA       1095.4210  -57.4280  144.8390 h1        1 QPA      0.073000
     22 HB       1096.2880  -57.9610  141.9300 h1        1 QPA      0.043000
     23 HBA      1096.8870  -56.7130  143.0900 h1        1 QPA      0.043000
     24 O9      -1010.6050   50.7340 -131.9090 o         1 QPA     -0.572000
     25 P2      -1007.9410   55.6060 -132.6950 p3        1 QPA      2.451000
@<TRIPOS>BOND
     1    1    3 1   
     2    1    6 1   
     3    1   15 1   
     4    2    6 1   
     5    2   16 1   
     6    2   17 1   
     7    4    5 1   
     8    4    9 1   
     9    4   14 1   
    10    5   18 1   
    11    5   19 1   
    12    5   20 1   
    13    6    7 1   
    14    6   21 1   
    15    7    8 1   
    16    7   22 1   
    17    7   23 1   
    18    9   10 1   
    19    9   24 1   
    20   11   25 1   
    21   12   25 1   
    22   13   25 1   
@<TRIPOS>SUBSTRUCTURE
     1 QPA         1 TEMP              0 ****  ****    0 ROOT
