@<TRIPOS>MOLECULE
QPC
   61    63     1     0     0
SMALL
bcc


@<TRIPOS>ATOM
      1 C1         -0.1590    0.9340    0.0470 ca        1 QPC      0.538200
      2 N1          1.1490    0.8860   -0.1180 nb        1 QPC     -0.666000
      3 C2          1.9240    0.2480    0.8490 cp        1 QPC      0.878500
      4 N2          1.3480   -0.3090    2.0020 nb        1 QPC     -0.704000
      5 C3          0.0270   -0.2390    2.1440 ca        1 QPC      0.645200
      6 C4         -0.8500    0.3690    1.1710 ca        1 QPC     -0.526200
      7 C5          3.3510    0.1520    0.6570 cp        1 QPC     -0.233500
      8 C6          3.9580    0.7450   -0.4830 ca        1 QPC     -0.019000
      9 C7          5.3280    0.6410   -0.6800 ca        1 QPC     -0.153500
     10 C8          6.1260   -0.0470    0.2380 ca        1 QPC      0.014000
     11 C9          5.5400   -0.6330    1.3700 ca        1 QPC     -0.153500
     12 C10         4.1760   -0.5380    1.5850 ca        1 QPC     -0.019000
     13 N3         -0.5670   -0.8540    3.3690 n4        1 QPC     -0.641100
     14 C11         0.3300   -1.0670    4.5160 ca        1 QPC     -0.021400
     15 C12         0.9990   -2.2950    4.6630 ca        1 QPC     -0.080500
     16 C13         1.7330   -2.5340    5.8240 ca        1 QPC     -0.084500
     17 C14         1.8210   -1.5640    6.8310 ca        1 QPC     -0.052300
     18 C15         1.1960   -0.3230    6.6440 ca        1 QPC     -0.084500
     19 C16         0.4530   -0.0640    5.4940 ca        1 QPC     -0.080500
     20 C17         2.4930   -1.8480    8.1340 c3        1 QPC     -0.113100
     21 C18         3.8710   -2.4350    7.9930 c         1 QPC      0.545100
     22 N4          4.6630   -2.5840    9.2650 n4        1 QPC     -0.677800
     23 O1          4.4290   -2.8120    6.9730 o         1 QPC     -0.405100
     24 C19        -2.2800    0.3970    1.3170 c         1 QPC      0.591700
     25 O2         -2.9450   -0.0340    2.2620 o         1 QPC     -0.491100
     26 N5         -3.1140    1.0010    0.2190 n4        1 QPC     -0.740400
     27 C20         4.3220   -3.8480    9.9960 c3        1 QPC      0.106800
     28 C21         5.1460   -4.0330   11.2870 c3        1 QPC     -0.067000
     29 C22         6.6300   -4.1010   10.9670 c3        1 QPC     -0.113433
     30 C23         4.8660   -2.9050   12.2640 c3        1 QPC     -0.113433
     31 C24         4.6910   -5.3580   11.8910 c3        1 QPC     -0.113433
     32 H1         -0.7010    1.4570   -0.7680 h4        1 QPC      0.052100
     33 H2          3.3560    1.2940   -1.2280 ha        1 QPC      0.162500
     34 H3          5.7900    1.1040   -1.5710 ha        1 QPC      0.178000
     35 H4          7.2160   -0.1300    0.0740 ha        1 QPC      0.183000
     36 H5          6.1760   -1.1770    2.0890 ha        1 QPC      0.178000
     37 H6          3.7420   -1.0100    2.4800 ha        1 QPC      0.162500
     38 H7         -1.3460   -0.2450    3.6820 hn        1 QPC      0.486800
     39 H8          0.9470   -3.0810    3.8900 ha        1 QPC      0.174000
     40 H9          2.2490   -3.5040    5.9370 ha        1 QPC      0.179500
     41 H10         1.2700    0.4650    7.4150 ha        1 QPC      0.179500
     42 H11        -0.0360    0.9190    5.3850 ha        1 QPC      0.174000
     43 H12         1.8550   -2.5820    8.7120 hc        1 QPC      0.123700
     44 H13         2.5510   -0.9020    8.7460 hc        1 QPC      0.123700
     45 H14         5.6720   -2.6120    9.0400 hn        1 QPC      0.472800
     46 H15        -4.1160    0.9180    0.4690 hn        1 QPC      0.489800
     47 H16        -2.8870    1.9960    0.0980 hn        1 QPC      0.489800
     48 H17         4.5220   -4.7100    9.2960 hx        1 QPC      0.104700
     49 H18         3.2250   -3.8140   10.2520 hx        1 QPC      0.104700
     50 H19         7.0360   -3.1020   10.6790 hc        1 QPC      0.063256
     51 H20         6.8290   -4.8340   10.1490 hc        1 QPC      0.063256
     52 H21         7.1910   -4.4410   11.8760 hc        1 QPC      0.063256
     53 H22         3.7690   -2.7720   12.4190 hc        1 QPC      0.063256
     54 H23         5.3260   -3.1500   13.2560 hc        1 QPC      0.063256
     55 H24         5.3120   -1.9400   11.9210 hc        1 QPC      0.063256
     56 H25         5.2540   -5.5470   12.8390 hc        1 QPC      0.063256
     57 H26         3.6010   -5.3310   12.1300 hc        1 QPC      0.063256
     58 H27         4.8940   -6.2030   11.1890 hc        1 QPC      0.063256
     59 H32        -0.9640   -1.7670    3.0890 hn        1 QPC      0.486800
     60 H42         4.4970   -1.7850    9.8900 hn        1 QPC      0.472800
     61 H53        -2.9540    0.5090   -0.6690 hn        1 QPC      0.489800
@<TRIPOS>BOND
     1    1    2 ar  
     2    1    6 ar  
     3    1   32 1   
     4    2    3 ar  
     5    3    4 ar  
     6    3    7 1   
     7    4    5 ar  
     8    5    6 ar  
     9    5   13 1   
    10    6   24 1   
    11    7    8 ar  
    12    7   12 ar  
    13    8    9 ar  
    14    8   33 1   
    15    9   10 ar  
    16    9   34 1   
    17   10   11 ar  
    18   10   35 1   
    19   11   12 ar  
    20   11   36 1   
    21   12   37 1   
    22   13   14 1   
    23   13   38 1   
    24   13   59 1   
    25   14   15 ar  
    26   14   19 ar  
    27   15   16 ar  
    28   15   39 1   
    29   16   17 ar  
    30   16   40 1   
    31   17   18 ar  
    32   17   20 1   
    33   18   19 ar  
    34   18   41 1   
    35   19   42 1   
    36   20   21 1   
    37   20   43 1   
    38   20   44 1   
    39   21   22 1   
    40   21   23 2   
    41   22   27 1   
    42   22   45 1   
    43   22   60 1   
    44   24   25 2   
    45   24   26 1   
    46   26   46 1   
    47   26   47 1   
    48   26   61 1   
    49   27   28 1   
    50   27   48 1   
    51   27   49 1   
    52   28   29 1   
    53   28   30 1   
    54   28   31 1   
    55   29   50 1   
    56   29   51 1   
    57   29   52 1   
    58   30   53 1   
    59   30   54 1   
    60   30   55 1   
    61   31   56 1   
    62   31   57 1   
    63   31   58 1   
@<TRIPOS>SUBSTRUCTURE
     1 QPC         1 TEMP              0 ****  ****    0 ROOT
