@<TRIPOS>MOLECULE
QPC
   60    62     1     0     0
SMALL
bcc


@<TRIPOS>ATOM
      1 C1         -0.1940    0.2840   -0.1240 ca        1 QPC      0.514200
      2 N1          1.0990    0.4250   -0.3210 nb        1 QPC     -0.698000
      3 C2          1.9390    0.2550    0.7910 cp        1 QPC      0.852500
      4 N2          1.4980   -0.0680    2.0300 nb        1 QPC     -0.775000
      5 C3          0.1420   -0.2310    2.2380 ca        1 QPC      0.809200
      6 C4         -0.7950   -0.0370    1.1380 ca        1 QPC     -0.554200
      7 C5          3.3860    0.4420    0.5770 cp        1 QPC     -0.205500
      8 C6          3.9350    0.3020   -0.7100 ca        1 QPC     -0.057500
      9 C7          5.3020    0.4870   -0.9060 ca        1 QPC     -0.144000
     10 C8          6.1300    0.8180    0.1670 ca        1 QPC     -0.061000
     11 C9          5.5880    0.9590    1.4460 ca        1 QPC     -0.144000
     12 C10         4.2260    0.7690    1.6570 ca        1 QPC     -0.057500
     13 N3         -0.3020   -0.5660    3.4900 nu        1 QPC     -0.713300
     14 C11         0.5120   -0.7980    4.6260 ca        1 QPC      0.153600
     15 C12         0.2300   -1.9230    5.4360 ca        1 QPC     -0.117000
     16 C13         0.9590   -2.1490    6.5980 ca        1 QPC     -0.084000
     17 C14         1.9820   -1.2720    6.9780 ca        1 QPC     -0.125300
     18 C15         2.2640   -0.1600    6.1780 ca        1 QPC     -0.084000
     19 C16         1.5390    0.0840    5.0130 ca        1 QPC     -0.117000
     20 C17         2.7200   -1.4890    8.2520 c3        1 QPC     -0.087100
     21 C18         3.9490   -2.3380    8.0570 c         1 QPC      0.541100
     22 N4          4.7020   -2.6890    9.3300 ny        1 QPC     -0.686800
     23 O1          4.4440   -2.7750    7.0330 o         1 QPC     -0.389100
     24 C19        -2.2040   -0.1660    1.3130 c         1 QPC      0.599700
     25 O2         -2.8700   -0.5200    2.2870 o         1 QPC     -0.493100
     26 N5         -3.0940    0.1890    0.1270 nz        1 QPC     -0.756400
     27 C20         4.1690   -3.9360    9.9570 c3        1 QPC      0.106800
     28 C21         4.9300   -4.3480   11.2330 c3        1 QPC     -0.069000
     29 C22         6.3920   -4.6170   10.9180 c3        1 QPC     -0.109767
     30 C23         4.8100   -3.2700   12.2970 c3        1 QPC     -0.109767
     31 C24         4.2710   -5.6300   11.7280 c3        1 QPC     -0.109767
     32 H1         -0.8060    0.4310   -1.0360 h4        1 QPC      0.018100
     33 H2          3.3020    0.0420   -1.5740 ha        1 QPC      0.150500
     34 H3          5.7280    0.3740   -1.9160 ha        1 QPC      0.154500
     35 H4          7.2100    0.9690    0.0050 ha        1 QPC      0.158000
     36 H5          6.2410    1.2250    2.2920 ha        1 QPC      0.154500
     37 H6          3.8160    0.8890    2.6710 ha        1 QPC      0.150500
     38 H7         -1.2680   -0.8080    3.6050 hn        1 QPC      0.480800
     39 H8         -0.5710   -2.6300    5.1620 ha        1 QPC      0.163500
     40 H9          0.7180   -3.0260    7.2190 ha        1 QPC      0.147500
     41 H10         3.0590    0.5460    6.4680 ha        1 QPC      0.147500
     42 H11         1.7820    0.9760    4.4130 ha        1 QPC      0.163500
     43 H12         2.0460   -1.9900    9.0040 hc        1 QPC      0.106700
     44 H13         3.0400   -0.4970    8.6820 hc        1 QPC      0.106700
     45 H14         4.6350   -1.9210   10.0050 hn        1 QPC      0.461800
     46 H15        -2.9110    1.1490   -0.1780 hn        1 QPC      0.469133
     47 H16        -2.9180   -0.4510   -0.6520 hn        1 QPC      0.469133
     48 H17         4.2460   -4.7610    9.1910 hx        1 QPC      0.104200
     49 H18         3.0840   -3.7610   10.2080 hx        1 QPC      0.104200
     50 H19         6.4910   -5.3020   10.0420 hc        1 QPC      0.059367
     51 H20         6.8790   -5.1080   11.7980 hc        1 QPC      0.059367
     52 H21         6.9500   -3.6710   10.7120 hc        1 QPC      0.059367
     53 H22         3.7430   -2.9810   12.4520 hc        1 QPC      0.059367
     54 H23         5.2080   -3.6590   13.2680 hc        1 QPC      0.059367
     55 H24         5.4030   -2.3620   12.0320 hc        1 QPC      0.059367
     56 H25         3.1930   -5.4550   11.9620 hc        1 QPC      0.059367
     57 H26         4.7820   -5.9770   12.6600 hc        1 QPC      0.059367
     58 H27         4.3530   -6.4370   10.9610 hc        1 QPC      0.059367
     59 H42         5.6970   -2.8430    9.1080 hn        1 QPC      0.461800
     60 H53        -4.0800    0.1060    0.4110 hn        1 QPC      0.469133
@<TRIPOS>BOND
     1    1    2 ar  
     2    1    6 ar  
     3    1   32 1   
     4    2    3 ar  
     5    3    4 ar  
     6    3    7 1   
     7    4    5 ar  
     8    5    6 ar  
     9    5   13 1   
    10    6   24 1   
    11    7    8 ar  
    12    7   12 ar  
    13    8    9 ar  
    14    8   33 1   
    15    9   10 ar  
    16    9   34 1   
    17   10   11 ar  
    18   10   35 1   
    19   11   12 ar  
    20   11   36 1   
    21   12   37 1   
    22   13   14 1   
    23   13   38 1   
    24   14   15 ar  
    25   14   19 ar  
    26   15   16 ar  
    27   15   39 1   
    28   16   17 ar  
    29   16   40 1   
    30   17   18 ar  
    31   17   20 1   
    32   18   19 ar  
    33   18   41 1   
    34   19   42 1   
    35   20   21 1   
    36   20   43 1   
    37   20   44 1   
    38   21   22 1   
    39   21   23 2   
    40   22   27 1   
    41   22   45 1   
    42   22   59 1   
    43   24   25 2   
    44   24   26 1   
    45   26   46 1   
    46   26   47 1   
    47   26   60 1   
    48   27   28 1   
    49   27   48 1   
    50   27   49 1   
    51   28   29 1   
    52   28   30 1   
    53   28   31 1   
    54   29   50 1   
    55   29   51 1   
    56   29   52 1   
    57   30   53 1   
    58   30   54 1   
    59   30   55 1   
    60   31   56 1   
    61   31   57 1   
    62   31   58 1   
@<TRIPOS>SUBSTRUCTURE
     1 QPC         1 TEMP              0 ****  ****    0 ROOT
