@<TRIPOS>MOLECULE
QPC
   60    62     1     0     0
SMALL
bcc


@<TRIPOS>ATOM
      1 C1         -0.1930    0.2760   -0.1250 ca        1 QPC      0.514200
      2 N1          1.0990    0.4280   -0.3180 nb        1 QPC     -0.698000
      3 C2          1.9380    0.2620    0.7960 cp        1 QPC      0.852500
      4 N2          1.4950   -0.0670    2.0330 nb        1 QPC     -0.775000
      5 C3          0.1400   -0.2420    2.2370 ca        1 QPC      0.809200
      6 C4         -0.7950   -0.0530    1.1350 ca        1 QPC     -0.554200
      7 C5          3.3840    0.4620    0.5870 cp        1 QPC     -0.205500
      8 C6          3.9370    0.3300   -0.6990 ca        1 QPC     -0.057500
      9 C7          5.3030    0.5270   -0.8910 ca        1 QPC     -0.144000
     10 C8          6.1250    0.8610    0.1860 ca        1 QPC     -0.061000
     11 C9          5.5790    0.9940    1.4640 ca        1 QPC     -0.144000
     12 C10         4.2170    0.7930    1.6700 ca        1 QPC     -0.057500
     13 N3         -0.3050   -0.5840    3.4870 nh        1 QPC     -0.713300
     14 C11         0.5080   -0.8120    4.6250 ca        1 QPC      0.153600
     15 C12         0.2340   -1.9410    5.4310 ca        1 QPC     -0.117000
     16 C13         0.9610   -2.1630    6.5940 ca        1 QPC     -0.084000
     17 C14         1.9750   -1.2770    6.9800 ca        1 QPC     -0.125300
     18 C15         2.2490   -0.1610    6.1840 ca        1 QPC     -0.084000
     19 C16         1.5260    0.0790    5.0170 ca        1 QPC     -0.117000
     20 C17         2.7110   -1.4920    8.2550 c3        1 QPC     -0.087100
     21 C18         3.9510   -2.3240    8.0620 c         1 QPC      0.541100
     22 N4          4.7000   -2.6770    9.3360 n4        1 QPC     -0.686800
     23 O1          4.4580   -2.7460    7.0370 o         1 QPC     -0.389100
     24 C19        -2.2040   -0.1950    1.3050 c         1 QPC      0.599700
     25 O2         -2.8690   -0.5570    2.2760 o         1 QPC     -0.493100
     26 N5         -3.0930    0.1560    0.1170 n4        1 QPC     -0.756400
     27 C20         4.1800   -3.9370    9.9480 c3        1 QPC      0.106800
     28 C21         4.9380   -4.3510   11.2250 c3        1 QPC     -0.069000
     29 C22         6.4050   -4.5960   10.9170 c3        1 QPC     -0.110100
     30 C23         4.7950   -3.2850   12.2980 c3        1 QPC     -0.110100
     31 C24         4.2930   -5.6470   11.7030 c3        1 QPC     -0.110100
     32 H1         -0.8040    0.4200   -1.0380 h4        1 QPC      0.018100
     33 H2          3.3090    0.0680   -1.5650 ha        1 QPC      0.150500
     34 H3          5.7330    0.4200   -1.9000 ha        1 QPC      0.154500
     35 H4          7.2040    1.0220    0.0270 ha        1 QPC      0.158000
     36 H5          6.2270    1.2630    2.3120 ha        1 QPC      0.154500
     37 H6          3.8040    0.9070    2.6840 ha        1 QPC      0.150500
     38 H7         -1.2690   -0.8340    3.5980 hn        1 QPC      0.480800
     39 H8         -0.5600   -2.6550    5.1520 ha        1 QPC      0.163500
     40 H9          0.7260   -3.0440    7.2120 ha        1 QPC      0.147500
     41 H10         3.0370    0.5510    6.4770 ha        1 QPC      0.147500
     42 H11         1.7630    0.9750    4.4200 ha        1 QPC      0.163500
     43 H12         3.0180   -0.4970    8.6900 hc        1 QPC      0.106700
     44 H13         2.0400   -2.0030    9.0030 hc        1 QPC      0.106700
     45 H14         4.6190   -1.9160   10.0180 hn        1 QPC      0.461800
     46 H15        -4.0790    0.0640    0.3980 hn        1 QPC      0.469133
     47 H16        -2.9170    1.1180   -0.1840 hn        1 QPC      0.469133
     48 H17         3.0910   -3.7790   10.1930 hx        1 QPC      0.104200
     49 H18         4.2730   -4.7540    9.1750 hx        1 QPC      0.104200
     50 H19         6.9510   -3.6410   10.7250 hc        1 QPC      0.059367
     51 H20         6.8930   -5.0900   11.7960 hc        1 QPC      0.059367
     52 H21         6.5200   -5.2710   10.0350 hc        1 QPC      0.059367
     53 H22         5.1920   -3.6780   13.2680 hc        1 QPC      0.059367
     54 H23         5.3780   -2.3660   12.0460 hc        1 QPC      0.059367
     55 H24         3.7230   -3.0130   12.4490 hc        1 QPC      0.059367
     56 H25         3.2110   -5.4890   11.9300 hc        1 QPC      0.059367
     57 H26         4.8020   -5.9960   12.6350 hc        1 QPC      0.059367
     58 H27         4.3920   -6.4450   10.9280 hc        1 QPC      0.059367
     59 H42         5.6980   -2.8150    9.1200 hn        1 QPC      0.461800
     60 H53        -2.9090   -0.4800   -0.6630 hn        1 QPC      0.469133
@<TRIPOS>BOND
     1    1    2 ar  
     2    1    6 ar  
     3    1   32 1   
     4    2    3 ar  
     5    3    4 ar  
     6    3    7 1   
     7    4    5 ar  
     8    5    6 ar  
     9    5   13 1   
    10    6   24 1   
    11    7    8 ar  
    12    7   12 ar  
    13    8    9 ar  
    14    8   33 1   
    15    9   10 ar  
    16    9   34 1   
    17   10   11 ar  
    18   10   35 1   
    19   11   12 ar  
    20   11   36 1   
    21   12   37 1   
    22   13   14 1   
    23   13   38 1   
    24   14   15 ar  
    25   14   19 ar  
    26   15   16 ar  
    27   15   39 1   
    28   16   17 ar  
    29   16   40 1   
    30   17   18 ar  
    31   17   20 1   
    32   18   19 ar  
    33   18   41 1   
    34   19   42 1   
    35   20   21 1   
    36   20   43 1   
    37   20   44 1   
    38   21   22 1   
    39   21   23 2   
    40   22   27 1   
    41   22   45 1   
    42   22   59 1   
    43   24   25 2   
    44   24   26 1   
    45   26   46 1   
    46   26   47 1   
    47   26   60 1   
    48   27   28 1   
    49   27   48 1   
    50   27   49 1   
    51   28   29 1   
    52   28   30 1   
    53   28   31 1   
    54   29   50 1   
    55   29   51 1   
    56   29   52 1   
    57   30   53 1   
    58   30   54 1   
    59   30   55 1   
    60   31   56 1   
    61   31   57 1   
    62   31   58 1   
@<TRIPOS>SUBSTRUCTURE
     1 QPC         1 TEMP              0 ****  ****    0 ROOT
