@<TRIPOS>MOLECULE
QPC
   58    49     1     0     0
SMALL
bcc


@<TRIPOS>ATOM
      1 C1         -1.9170    0.9620   -5.0110 c1        1 QPC      0.026000
      2 N1         -3.1260    0.7860   -4.4320 n1        1 QPC     -0.213000
      3 C2         -3.3190   -0.2390   -3.5520 c1        1 QPC      0.133000
      4 N2         -2.2920   -1.0870   -3.2550 n2        1 QPC     -0.239000
      5 C3         -1.0850   -0.9140   -3.8300 c1        1 QPC      0.237000
      6 C4         -0.8890    0.1150   -4.7140 c2        1 QPC     -0.316000
      7 C5         -4.7080   -0.4720   -2.9360 c1        1 QPC     -0.070500
      8 C6         -5.0620    0.1730   -1.7590 c1        1 QPC     -0.103500
      9 C7         -6.3420    0.0160   -1.2370 c1        1 QPC     -0.116667
     10 C8         -7.2680   -0.7870   -1.8950 c1        1 QPC     -0.116667
     11 C9         -6.9150   -1.4320   -3.0720 c1        1 QPC     -0.116667
     12 C10        -5.6350   -1.2750   -3.5940 c1        1 QPC     -0.116667
     13 N3         -0.0110   -1.8230   -3.5320 n2        1 QPC     -0.261000
     14 C11         0.6540   -1.7520   -2.2670 c1        1 QPC      0.069000
     15 C12         0.2590   -2.5800   -1.2300 c1        1 QPC     -0.116667
     16 C13         0.9210   -2.5300   -0.0080 c1        1 QPC     -0.116667
     17 C14         1.9820   -1.6480    0.1720 c1        1 QPC     -0.070500
     18 C15         2.3780   -0.8200   -0.8650 c1        1 QPC     -0.103500
     19 C16         1.7150   -0.8700   -2.0860 c1        1 QPC     -0.155000
     20 C17         2.6670   -1.5440    1.5400 c2        1 QPC     -0.146000
     21 C18         1.8770   -0.6070    2.4330 c1        1 QPC      0.305000
     22 N4          2.5010   -0.0260    3.6040 n2        1 QPC     -0.376000
     23 O1          0.7040   -0.3930    2.2020 o         1 QPC     -0.378000
     24 C19         0.4870    0.3680   -5.2890 c2        1 QPC      0.369000
     25 O2          1.4120   -0.3330   -4.9670 o         1 QPC     -0.401000
     26 N5          0.7080    1.4990   -6.1430 n         1 QPC     -0.429000
     27 C20         2.0160    1.2300    4.1300 c3        1 QPC     -0.019000
     28 C21         2.9540    1.7100    5.2960 c3        1 QPC     -0.075000
     29 C22         2.7810    0.7730    6.5200 c3        1 QPC     -0.204667
     30 C23         4.4090    1.6730    4.8290 c3        1 QPC     -0.204667
     31 C24         2.5820    3.1500    5.6940 c3        1 QPC     -0.204667
     32 H1         -1.7780    1.6990   -5.6440 ha        1 QPC      0.163000
     33 H2         -4.4120    0.7360   -1.2970 ha        1 QPC      0.141500
     34 H3         -6.5920    0.4710   -0.4060 ha        1 QPC      0.143167
     35 H4         -8.1710   -0.8980   -1.5270 ha        1 QPC      0.143167
     36 H5         -7.5640   -1.9950   -3.5330 ha        1 QPC      0.143167
     37 H6         -5.3860   -1.7300   -4.4240 ha        1 QPC      0.143167
     38 H7          0.1940   -2.4980   -4.1190 hn        1 QPC      0.279000
     39 H8         -0.4830   -3.1960   -1.3560 ha        1 QPC      0.143167
     40 H9          0.6400   -3.1190    0.7290 ha        1 QPC      0.143167
     41 H10         3.1290   -0.1960   -0.7370 ha        1 QPC      0.141500
     42 H11         1.9930   -0.2880   -2.8150 ha        1 QPC      0.139000
     43 H12         2.7070   -2.4350    1.9540 ha        1 QPC      0.122000
     44 H13         3.5690   -1.1990    1.4250 ha        1 QPC      0.122000
     45 H14         3.1430   -0.4900    4.0540 hn        1 QPC      0.229000
     46 H15         0.0040    2.0390   -6.3800 hn        1 QPC      0.229000
     47 H16         1.5450    1.6980   -6.4210 hn        1 QPC      0.229000
     48 H17         2.0110    1.9000    3.4200 h1        1 QPC      0.098000
     49 H18         1.1040    1.1110    4.4730 h1        1 QPC      0.098000
     50 H19         3.2790   -0.0780    6.3620 hc        1 QPC      0.075778
     51 H20         3.1340    1.2150    7.3220 hc        1 QPC      0.075778
     52 H21         1.8330    0.5760    6.6490 hc        1 QPC      0.075778
     53 H22         4.7740    0.7660    4.9580 hc        1 QPC      0.075778
     54 H23         4.4540    1.9100    3.8790 hc        1 QPC      0.075778
     55 H24         4.9350    2.3130    5.3500 hc        1 QPC      0.075778
     56 H25         3.0760    3.4030    6.5000 hc        1 QPC      0.075778
     57 H26         2.8140    3.7630    4.9610 hc        1 QPC      0.075778
     58 H27         1.6100    3.2020    5.8720 hc        1 QPC      0.075778
@<TRIPOS>BOND
     1    1    6 1   
     2    1   32 1   
     3    2    3 1   
     4    3    4 1   
     5    4    5 1   
     6    5    6 1   
     7    6   24 1   
     8    7    8 1   
     9    8   33 1   
    10    9   10 1   
    11    9   34 1   
    12   10   35 1   
    13   11   12 1   
    14   11   36 1   
    15   12   37 1   
    16   13   14 1   
    17   13   38 1   
    18   14   19 1   
    19   15   16 1   
    20   15   39 1   
    21   16   40 1   
    22   17   18 1   
    23   18   41 1   
    24   19   42 1   
    25   20   21 1   
    26   20   43 1   
    27   20   44 1   
    28   21   23 1   
    29   22   27 1   
    30   22   45 1   
    31   24   25 1   
    32   24   26 1   
    33   26   46 1   
    34   26   47 1   
    35   27   28 1   
    36   27   48 1   
    37   27   49 1   
    38   28   29 1   
    39   28   30 1   
    40   28   31 1   
    41   29   50 1   
    42   29   51 1   
    43   29   52 1   
    44   30   53 1   
    45   30   54 1   
    46   30   55 1   
    47   31   56 1   
    48   31   57 1   
    49   31   58 1   
@<TRIPOS>SUBSTRUCTURE
     1 QPC         1 TEMP              0 ****  ****    0 ROOT
