@<TRIPOS>MOLECULE
QPC
   58    60     1     0     0
SMALL
bcc


@<TRIPOS>ATOM
      1 C1          4.5040   -0.3830   -0.6370 ca        1 QPC      0.491200
      2 N1          3.8460   -1.5460   -0.5530 nb        1 QPC     -0.738000
      3 C2          2.5170   -1.4650   -0.1950 cp        1 QPC      0.764500
      4 N2          1.8440   -0.3220    0.0960 nb        1 QPC     -0.765000
      5 C3          2.5380    0.8700    0.0290 ca        1 QPC      0.757200
      6 C4          3.9200    0.8750   -0.3880 ca        1 QPC     -0.465200
      7 C5          1.7570   -2.7420   -0.1090 cp        1 QPC     -0.149500
      8 C6          1.9910   -3.7580   -1.0440 ca        1 QPC     -0.083500
      9 C7          1.2790   -4.9540   -0.9600 ca        1 QPC     -0.143500
     10 C8          0.3390   -5.1430    0.0530 ca        1 QPC     -0.109000
     11 C9          0.1070   -4.1310    0.9850 ca        1 QPC     -0.143500
     12 C10         0.8110   -2.9300    0.9060 ca        1 QPC     -0.083500
     13 N3          1.9070    2.0510    0.3530 nh        1 QPC     -0.737300
     14 C11         0.5390    2.2120    0.6520 ca        1 QPC      0.151600
     15 C12        -0.1430    3.3240    0.1040 ca        1 QPC     -0.136000
     16 C13        -1.4800    3.5460    0.4050 ca        1 QPC     -0.112500
     17 C14        -2.1800    2.6740    1.2470 ca        1 QPC     -0.102300
     18 C15        -1.5050    1.5810    1.7990 ca        1 QPC     -0.112500
     19 C16        -0.1610    1.3490    1.5190 ca        1 QPC     -0.136000
     20 C17        -3.6090    2.9210    1.5660 c3        1 QPC     -0.110100
     21 C18        -4.5860    2.3180    0.5660 c         1 QPC      0.661100
     22 N4         -4.2690    1.1030    0.0040 n         1 QPC     -0.566900
     23 O1         -5.6490    2.9130    0.2940 o         1 QPC     -0.618100
     24 C19         4.7030    2.1190   -0.5380 c         1 QPC      0.694700
     25 O2          4.5120    3.1390    0.1660 o         1 QPC     -0.639100
     26 N5          5.6820    2.1610   -1.5010 n         1 QPC     -0.669000
     27 C20        -5.1250    0.4230   -0.9230 c3        1 QPC      0.096000
     28 C21        -5.4230   -1.0540   -0.5790 c3        1 QPC     -0.075000
     29 C22        -4.1340   -1.8540   -0.4880 c3        1 QPC     -0.086767
     30 C23        -6.1860   -1.1530    0.7300 c3        1 QPC     -0.086767
     31 C24        -6.2810   -1.6130   -1.7060 c3        1 QPC     -0.086767
     32 H1          5.5740   -0.4730   -0.9060 h4        1 QPC      0.026100
     33 H2          2.7350   -3.6210   -1.8440 ha        1 QPC      0.147000
     34 H3          1.4630   -5.7510   -1.6950 ha        1 QPC      0.135500
     35 H4         -0.2190   -6.0890    0.1180 ha        1 QPC      0.134000
     36 H5         -0.6320   -4.2790    1.7860 ha        1 QPC      0.135500
     37 H6          0.6200   -2.1360    1.6450 ha        1 QPC      0.147000
     38 H7          2.4460    2.8930    0.2790 hn        1 QPC      0.483800
     39 H8          0.3820    4.0260   -0.5620 ha        1 QPC      0.147500
     40 H9         -1.9960    4.4170   -0.0290 ha        1 QPC      0.138500
     41 H10        -2.0370    0.8960    2.4770 ha        1 QPC      0.138500
     42 H11         0.3390    0.4860    1.9870 ha        1 QPC      0.147500
     43 H12        -3.8640    2.4990    2.5760 hc        1 QPC      0.082200
     44 H13        -3.8120    4.0260    1.5990 hc        1 QPC      0.082200
     45 H14        -3.4080    0.6680    0.2410 hn        1 QPC      0.316500
     46 H15         5.8320    1.4070   -2.1190 hn        1 QPC      0.316000
     47 H16         6.2180    2.9860   -1.6080 hn        1 QPC      0.316000
     48 H17        -6.1050    0.9800   -0.9880 h1        1 QPC      0.058700
     49 H18        -4.6390    0.4470   -1.9430 h1        1 QPC      0.058700
     50 H19        -4.3630   -2.9460   -0.4410 hc        1 QPC      0.036478
     51 H20        -3.4930   -1.6640   -1.3830 hc        1 QPC      0.036478
     52 H21        -3.5570   -1.5830    0.4290 hc        1 QPC      0.036478
     53 H22        -7.1170   -0.5380    0.6830 hc        1 QPC      0.036478
     54 H23        -6.4690   -2.2150    0.9290 hc        1 QPC      0.036478
     55 H24        -5.5630   -0.7900    1.5810 hc        1 QPC      0.036478
     56 H25        -7.2230   -1.0210   -1.8070 hc        1 QPC      0.036478
     57 H26        -5.7270   -1.5730   -2.6750 hc        1 QPC      0.036478
     58 H27        -6.5500   -2.6750   -1.4930 hc        1 QPC      0.036478
@<TRIPOS>BOND
     1    1    2 ar  
     2    1    6 ar  
     3    1   32 1   
     4    2    3 ar  
     5    3    4 ar  
     6    3    7 1   
     7    4    5 ar  
     8    5    6 ar  
     9    5   13 1   
    10    6   24 1   
    11    7    8 ar  
    12    7   12 ar  
    13    8    9 ar  
    14    8   33 1   
    15    9   10 ar  
    16    9   34 1   
    17   10   11 ar  
    18   10   35 1   
    19   11   12 ar  
    20   11   36 1   
    21   12   37 1   
    22   13   14 1   
    23   13   38 1   
    24   14   15 ar  
    25   14   19 ar  
    26   15   16 ar  
    27   15   39 1   
    28   16   17 ar  
    29   16   40 1   
    30   17   18 ar  
    31   17   20 1   
    32   18   19 ar  
    33   18   41 1   
    34   19   42 1   
    35   20   21 1   
    36   20   43 1   
    37   20   44 1   
    38   21   22 1   
    39   21   23 2   
    40   22   27 1   
    41   22   45 1   
    42   24   25 2   
    43   24   26 1   
    44   26   46 1   
    45   26   47 1   
    46   27   28 1   
    47   27   48 1   
    48   27   49 1   
    49   28   29 1   
    50   28   30 1   
    51   28   31 1   
    52   29   50 1   
    53   29   51 1   
    54   29   52 1   
    55   30   53 1   
    56   30   54 1   
    57   30   55 1   
    58   31   56 1   
    59   31   57 1   
    60   31   58 1   
@<TRIPOS>SUBSTRUCTURE
     1 QPC         1 TEMP              0 ****  ****    0 ROOT
