@<TRIPOS>MOLECULE
QPH
   24    24     1     0     0
SMALL
bcc


@<TRIPOS>ATOM
      1 C           2.4730   -1.0680   -0.3370 c         1 QPH      0.907600
      2 N           1.2730    1.1350   -0.3660 n         1 QPH     -0.521900
      3 O           3.3210   -0.5390   -1.1080 o         1 QPH     -0.829800
      4 CA          1.1570   -0.2640   -0.0080 c3        1 QPH     -0.056300
      5 CB          0.0210   -0.9840   -0.7510 c3        1 QPH     -0.042100
      6 CG         -1.3440   -0.5290   -0.3790 ca        1 QPH     -0.039300
      7 CZ         -3.9470    0.2640    0.3090 ca        1 QPH     -0.156000
      8 CD1        -2.1920    0.0430   -1.3370 ca        1 QPH     -0.127000
      9 CD2        -1.8170   -0.6950    0.9300 ca        1 QPH     -0.127000
     10 CE1        -3.4850    0.4360   -0.9940 ca        1 QPH     -0.136500
     11 CE2        -3.1080   -0.3000    1.2710 ca        1 QPH     -0.136500
     12 H           1.9290    1.2820   -1.1090 hn        1 QPH      0.317500
     13 HA          0.9690   -0.3430    1.1010 h1        1 QPH      0.069700
     14 HZ         -4.9650    0.5760    0.5800 ha        1 QPH      0.110000
     15 HB2         0.1750   -0.8800   -1.8570 hc        1 QPH      0.061200
     16 HB3         0.1280   -2.0750   -0.4950 hc        1 QPH      0.061200
     17 HD1        -1.8300    0.1870   -2.3650 ha        1 QPH      0.134000
     18 HD2        -1.1490   -1.1280    1.6920 ha        1 QPH      0.134000
     19 HE1        -4.1390    0.8860   -1.7540 ha        1 QPH      0.113000
     20 HE2        -3.4640   -0.4270    2.3030 ha        1 QPH      0.113000
     21 O1          0.5810    2.0630    1.6550 o         1 QPH     -0.651100
     22 CN          1.1080    2.1560    0.5270 c         1 QPH      0.644900
     23 HNA         1.4350    3.1490    0.1280 h5        1 QPH     -0.013800
     24 OXT         2.5760   -2.2030    0.1960 o         1 QPH     -0.829800
@<TRIPOS>BOND
     1    1    3 1   
     2    1    4 1   
     3    1   24 1   
     4    2    4 1   
     5    2   12 1   
     6    2   22 1   
     7    4    5 1   
     8    4   13 1   
     9    5    6 1   
    10    5   15 1   
    11    5   16 1   
    12    6    8 ar  
    13    6    9 ar  
    14    7   10 ar  
    15    7   11 ar  
    16    7   14 1   
    17    8   10 ar  
    18    8   17 1   
    19    9   11 ar  
    20    9   18 1   
    21   10   19 1   
    22   11   20 1   
    23   21   22 2   
    24   22   23 1   
@<TRIPOS>SUBSTRUCTURE
     1 QPH         1 TEMP              0 ****  ****    0 ROOT
