@<TRIPOS>MOLECULE
QPP
   39    42     1     0     0
SMALL
bcc


@<TRIPOS>ATOM
      1 CAK         0.0910    0.1310    0.0600 ca        1 QPP     -0.081500
      2 CAL         1.4800    0.2550    0.0390 ca        1 QPP     -0.133500
      3 CAM         2.1690    0.6340    1.1920 ca        1 QPP     -0.089000
      4 CAN         1.4680    0.8910    2.3710 ca        1 QPP     -0.133500
      5 CAO         0.0800    0.7740    2.4020 ca        1 QPP     -0.081500
      6 CAP        -0.6110    0.3940    1.2440 cp        1 QPP     -0.173500
      7 C2         -2.0880    0.2570    1.2640 cp        1 QPP      0.746500
      8 N1         -2.7910    1.2190    1.9940 nb        1 QPP     -0.680000
      9 N3         -2.6620   -0.7560    0.5880 nb        1 QPP     -0.631000
     10 C4         -4.0310   -0.8600    0.6130 ca        1 QPP      0.438600
     11 CAA        -4.6780   -1.9250   -0.0990 ca        1 QPP     -0.153300
     12 CAB        -6.0440   -2.0420   -0.0740 ca        1 QPP     -0.090000
     13 CAC        -6.8410   -1.1250    0.6540 ca        1 QPP     -0.080000
     14 CAD        -6.2610   -0.0900    1.3490 ca        1 QPP     -0.135000
     15 C5         -4.8550    0.0710    1.3410 ca        1 QPP     -0.247600
     16 C6         -4.1180    1.1100    2.0080 ca        1 QPP      0.536200
     17 NAQ        -4.8590    2.1670    2.7600 n4        1 QPP     -0.697400
     18 CAR        -5.0530    1.8080    4.1510 cc        1 QPP      0.317200
     19 CAV        -4.0860    2.0010    5.2100 cc        1 QPP     -0.239300
     20 CAU        -4.7330    1.5070    6.3580 cd        1 QPP     -0.046600
     21 CAW        -4.2540    1.4380    7.7470 c3        1 QPP     -0.057800
     22 NAT        -5.9990    1.0610    5.9340 na        1 QPP      0.034400
     23 NAS        -6.2080    1.2230    4.6440 nd        1 QPP     -0.460800
     24 HAK        -0.4420   -0.1730   -0.8540 ha        1 QPP      0.143500
     25 HAL         2.0320    0.0490   -0.8910 ha        1 QPP      0.148500
     26 HAM         3.2660    0.7280    1.1720 ha        1 QPP      0.150000
     27 HAN         2.0130    1.1850    3.2810 ha        1 QPP      0.148500
     28 HAO        -0.4600    0.9720    3.3390 ha        1 QPP      0.143500
     29 HAA        -4.0540   -2.6420   -0.6610 ha        1 QPP      0.180000
     30 HAB        -6.5410   -2.8600   -0.6230 ha        1 QPP      0.167000
     31 HAC        -7.9360   -1.2550    0.6590 ha        1 QPP      0.162000
     32 HAD        -6.9050    0.5910    1.9250 ha        1 QPP      0.138000
     33 HAQ        -4.3220    3.0500    2.7460 hn        1 QPP      0.478300
     34 HAV        -3.0880    2.4220    5.1320 ha        1 QPP      0.199000
     35 HAW1       -4.9210    2.0210    8.4310 hc        1 QPP      0.080367
     36 HAW2       -3.2220    1.8660    7.8060 hc        1 QPP      0.080367
     37 HAW3       -4.2190    0.3760    8.1040 hc        1 QPP      0.080367
     38 HAT        -6.7140    0.6560    6.5060 hn        1 QPP      0.356700
     39 HAQ2       -5.7660    2.3120    2.2930 hn        1 QPP      0.478300
@<TRIPOS>BOND
     1    1    2 ar  
     2    1    6 ar  
     3    1   24 1   
     4    2    3 ar  
     5    2   25 1   
     6    3    4 ar  
     7    3   26 1   
     8    4    5 ar  
     9    4   27 1   
    10    5    6 ar  
    11    5   28 1   
    12    6    7 1   
    13    7    8 ar  
    14    7    9 ar  
    15    8   16 ar  
    16    9   10 ar  
    17   10   11 ar  
    18   10   15 ar  
    19   11   12 ar  
    20   11   29 1   
    21   12   13 ar  
    22   12   30 1   
    23   13   14 ar  
    24   13   31 1   
    25   14   15 ar  
    26   14   32 1   
    27   15   16 ar  
    28   16   17 1   
    29   17   18 1   
    30   17   33 1   
    31   17   39 1   
    32   18   19 1   
    33   18   23 2   
    34   19   20 2   
    35   19   34 1   
    36   20   21 1   
    37   20   22 1   
    38   21   35 1   
    39   21   36 1   
    40   21   37 1   
    41   22   23 1   
    42   22   38 1   
@<TRIPOS>SUBSTRUCTURE
     1 QPP         1 TEMP              0 ****  ****    0 ROOT
