@<TRIPOS>MOLECULE
QPP
   38    41     1     0     0
SMALL
bcc


@<TRIPOS>ATOM
      1 CAK        -0.3010    0.9610    0.4710 ca        1 QPP     -0.088000
      2 CAL         1.0640    1.2110    0.6130 ca        1 QPP     -0.144500
      3 CAM         1.7220    0.8640    1.7920 ca        1 QPP     -0.116000
      4 CAN         1.0140    0.2660    2.8340 ca        1 QPP     -0.144500
      5 CAO        -0.3510    0.0140    2.7030 ca        1 QPP     -0.088000
      6 CAP        -1.0110    0.3620    1.5180 cp        1 QPP     -0.138500
      7 C2         -2.4680    0.0920    1.3660 cp        1 QPP      0.738500
      8 N1         -3.2500    0.3480    2.4860 nb        1 QPP     -0.754000
      9 N3         -2.9030   -0.3750    0.1840 nb        1 QPP     -0.712000
     10 C4         -4.2570   -0.6120    0.0650 ca        1 QPP      0.438600
     11 CAA        -4.7740   -1.1150   -1.1730 ca        1 QPP     -0.179300
     12 CAB        -6.1190   -1.3470   -1.3170 ca        1 QPP     -0.105000
     13 CAC        -7.0140   -1.0920   -0.2550 ca        1 QPP     -0.142000
     14 CAD        -6.5470   -0.6120    0.9480 ca        1 QPP     -0.091000
     15 C5         -5.1680   -0.3700    1.1390 ca        1 QPP     -0.286600
     16 C6         -4.5750    0.1310    2.3810 ca        1 QPP      0.693200
     17 NAQ        -5.4390    0.4520    3.4440 nu        1 QPP     -0.789600
     18 CAR        -4.9340    0.8030    4.7090 cc        1 QPP      0.503200
     19 CAV        -3.9840    1.8680    4.9860 cc        1 QPP     -0.248300
     20 CAU        -3.8680    1.8900    6.3850 cd        1 QPP     -0.101600
     21 CAW        -3.0470    2.7600    7.2400 c3        1 QPP     -0.034800
     22 NAT        -4.7190    0.8840    6.8660 na        1 QPP     -0.011600
     23 NAS        -5.3490    0.2270    5.9000 nd        1 QPP     -0.551800
     24 HAK        -0.8130    1.2330   -0.4650 ha        1 QPP      0.148000
     25 HAL         1.6200    1.6820   -0.2110 ha        1 QPP      0.132500
     26 HAM         2.7990    1.0610    1.9000 ha        1 QPP      0.130000
     27 HAN         1.5320   -0.0100    3.7640 ha        1 QPP      0.132500
     28 HAO        -0.9030   -0.4560    3.5310 ha        1 QPP      0.148000
     29 HAA        -4.0740   -1.3090   -2.0010 ha        1 QPP      0.155000
     30 HAB        -6.5160   -1.7340   -2.2690 ha        1 QPP      0.138000
     31 HAC        -8.0880   -1.2790   -0.4010 ha        1 QPP      0.137000
     32 HAD        -7.2720   -0.4100    1.7500 ha        1 QPP      0.133000
     33 HAQ        -6.2640   -0.1140    3.4750 hn        1 QPP      0.432800
     34 HAV        -3.4690    2.4860    4.2600 ha        1 QPP      0.183000
     35 HAW1       -2.3310    2.1580    7.8540 hc        1 QPP      0.054367
     36 HAW2       -2.4600    3.4630    6.5980 hc        1 QPP      0.054367
     37 HAW3       -3.6880    3.3610    7.9330 hc        1 QPP      0.054367
     38 HAT        -4.8860    0.6470    7.8150 hn        1 QPP      0.321700
@<TRIPOS>BOND
     1    1    2 ar  
     2    1    6 ar  
     3    1   24 1   
     4    2    3 ar  
     5    2   25 1   
     6    3    4 ar  
     7    3   26 1   
     8    4    5 ar  
     9    4   27 1   
    10    5    6 ar  
    11    5   28 1   
    12    6    7 1   
    13    7    8 ar  
    14    7    9 ar  
    15    8   16 ar  
    16    9   10 ar  
    17   10   11 ar  
    18   10   15 ar  
    19   11   12 ar  
    20   11   29 1   
    21   12   13 ar  
    22   12   30 1   
    23   13   14 ar  
    24   13   31 1   
    25   14   15 ar  
    26   14   32 1   
    27   15   16 ar  
    28   16   17 1   
    29   17   18 1   
    30   17   33 1   
    31   18   19 1   
    32   18   23 2   
    33   19   20 2   
    34   19   34 1   
    35   20   21 1   
    36   20   22 1   
    37   21   35 1   
    38   21   36 1   
    39   21   37 1   
    40   22   23 1   
    41   22   38 1   
@<TRIPOS>SUBSTRUCTURE
     1 QPP         1 TEMP              0 ****  ****    0 ROOT
