@<TRIPOS>MOLECULE
QPP
   38    41     1     0     0
SMALL
bcc


@<TRIPOS>ATOM
      1 CAK        -0.3010    0.9310    0.4640 ca        1 QPP     -0.088000
      2 CAL         1.0650    1.1770    0.6030 ca        1 QPP     -0.144500
      3 CAM         1.7230    0.8380    1.7850 ca        1 QPP     -0.116000
      4 CAN         1.0130    0.2520    2.8330 ca        1 QPP     -0.144500
      5 CAO        -0.3530    0.0050    2.7040 ca        1 QPP     -0.088000
      6 CAP        -1.0130    0.3440    1.5170 cp        1 QPP     -0.138500
      7 C2         -2.4710    0.0790    1.3680 cp        1 QPP      0.738500
      8 N1         -3.2510    0.3480    2.4870 nb        1 QPP     -0.754000
      9 N3         -2.9080   -0.3970    0.1910 nb        1 QPP     -0.712000
     10 C4         -4.2640   -0.6290    0.0750 ca        1 QPP      0.438600
     11 CAA        -4.7840   -1.1410   -1.1570 ca        1 QPP     -0.179300
     12 CAB        -6.1300   -1.3690   -1.2990 ca        1 QPP     -0.105000
     13 CAC        -7.0220   -1.1020   -0.2380 ca        1 QPP     -0.142000
     14 CAD        -6.5530   -0.6130    0.9600 ca        1 QPP     -0.091000
     15 C5         -5.1730   -0.3750    1.1480 ca        1 QPP     -0.286600
     16 C6         -4.5770    0.1350    2.3850 ca        1 QPP      0.693200
     17 NAQ        -5.4380    0.4690    3.4460 nh        1 QPP     -0.789600
     18 CAR        -4.9310    0.8280    4.7080 cc        1 QPP      0.503200
     19 CAV        -3.9760    1.8920    4.9750 cc        1 QPP     -0.248300
     20 CAU        -3.8580    1.9250    6.3730 cd        1 QPP     -0.101600
     21 CAW        -3.0340    2.7980    7.2210 c3        1 QPP     -0.034800
     22 NAT        -4.7130    0.9250    6.8640 na        1 QPP     -0.011600
     23 NAS        -5.3460    0.2640    5.9030 nd        1 QPP     -0.551800
     24 HAK        -0.8120    1.1960   -0.4740 ha        1 QPP      0.148000
     25 HAL         1.6230    1.6380   -0.2250 ha        1 QPP      0.132500
     26 HAM         2.8000    1.0320    1.8900 ha        1 QPP      0.130000
     27 HAN         1.5310   -0.0170    3.7650 ha        1 QPP      0.132500
     28 HAO        -0.9060   -0.4550    3.5380 ha        1 QPP      0.148000
     29 HAA        -4.0850   -1.3450   -1.9840 ha        1 QPP      0.155000
     30 HAB        -6.5290   -1.7630   -2.2470 ha        1 QPP      0.138000
     31 HAC        -8.0980   -1.2860   -0.3820 ha        1 QPP      0.137000
     32 HAD        -7.2770   -0.4010    1.7610 ha        1 QPP      0.133000
     33 HAQ        -6.2660   -0.0930    3.4820 hn        1 QPP      0.432800
     34 HAV        -3.4600    2.5020    4.2430 ha        1 QPP      0.183000
     35 HAW1       -3.6710    3.4080    7.9090 hc        1 QPP      0.054367
     36 HAW2       -2.3200    2.1980    7.8400 hc        1 QPP      0.054367
     37 HAW3       -2.4440    3.4930    6.5730 hc        1 QPP      0.054367
     38 HAT        -4.8800    0.6970    7.8150 hn        1 QPP      0.321700
@<TRIPOS>BOND
     1    1    2 ar  
     2    1    6 ar  
     3    1   24 1   
     4    2    3 ar  
     5    2   25 1   
     6    3    4 ar  
     7    3   26 1   
     8    4    5 ar  
     9    4   27 1   
    10    5    6 ar  
    11    5   28 1   
    12    6    7 1   
    13    7    8 ar  
    14    7    9 ar  
    15    8   16 ar  
    16    9   10 ar  
    17   10   11 ar  
    18   10   15 ar  
    19   11   12 ar  
    20   11   29 1   
    21   12   13 ar  
    22   12   30 1   
    23   13   14 ar  
    24   13   31 1   
    25   14   15 ar  
    26   14   32 1   
    27   15   16 ar  
    28   16   17 1   
    29   17   18 1   
    30   17   33 1   
    31   18   19 1   
    32   18   23 2   
    33   19   20 2   
    34   19   34 1   
    35   20   21 1   
    36   20   22 1   
    37   21   35 1   
    38   21   36 1   
    39   21   37 1   
    40   22   23 1   
    41   22   38 1   
@<TRIPOS>SUBSTRUCTURE
     1 QPP         1 TEMP              0 ****  ****    0 ROOT
