@<TRIPOS>MOLECULE
QPP
   38    41     1     0     0
SMALL
bcc


@<TRIPOS>ATOM
      1 CAK         4.9190    2.1110    4.9560 ca        1 QPP     -0.088000
      2 CAL         5.6220    2.8450    5.9110 ca        1 QPP     -0.144500
      3 CAM         6.8920    3.3430    5.6180 ca        1 QPP     -0.116000
      4 CAN         7.4610    3.1060    4.3670 ca        1 QPP     -0.144500
      5 CAO         6.7660    2.3710    3.4070 ca        1 QPP     -0.088000
      6 CAP         5.4920    1.8720    3.7010 cp        1 QPP     -0.138500
      7 C2          4.7400    1.0910    2.6800 cp        1 QPP      0.738500
      8 N1          5.4900    0.1850    1.9390 nb        1 QPP     -0.754000
      9 N3          3.4230    1.3230    2.5520 nb        1 QPP     -0.712000
     10 C4          2.7470    0.5830    1.6040 ca        1 QPP      0.438600
     11 CAA         1.3420    0.7930    1.4220 ca        1 QPP     -0.179300
     12 CAB         0.6460    0.0610    0.4930 ca        1 QPP     -0.105000
     13 CAC         1.3000   -0.9120   -0.2950 ca        1 QPP     -0.142000
     14 CAD         2.6500   -1.1350   -0.1470 ca        1 QPP     -0.091000
     15 C5          3.4030   -0.3940    0.7920 ca        1 QPP     -0.286600
     16 C6          4.8410   -0.5520    1.0170 ca        1 QPP      0.693200
     17 NAQ         5.5180   -1.5510    0.2940 nh        1 QPP     -0.789600
     18 CAR         6.9190   -1.6660    0.3520 cc        1 QPP      0.503200
     19 CAV         7.7160   -1.8160    1.5600 cc        1 QPP     -0.248300
     20 CAU         9.0310   -1.9870    1.1020 cd        1 QPP     -0.101600
     21 CAW        10.2700   -2.1850    1.8700 c3        1 QPP     -0.034800
     22 NAT         8.9690   -1.9390   -0.3000 na        1 QPP     -0.011600
     23 NAS         7.7410   -1.7430   -0.7610 nd        1 QPP     -0.551800
     24 HAK         3.9150    1.7250    5.1920 ha        1 QPP      0.148000
     25 HAL         5.1710    3.0310    6.8960 ha        1 QPP      0.132500
     26 HAM         7.4430    3.9220    6.3730 ha        1 QPP      0.130000
     27 HAN         8.4610    3.4990    4.1350 ha        1 QPP      0.132500
     28 HAO         7.2240    2.1860    2.4230 ha        1 QPP      0.148000
     29 HAA         0.8340    1.5500    2.0410 ha        1 QPP      0.155000
     30 HAB        -0.4340    0.2230    0.3540 ha        1 QPP      0.138000
     31 HAC         0.7170   -1.4910   -1.0260 ha        1 QPP      0.137000
     32 HAD         3.1260   -1.9110   -0.7650 ha        1 QPP      0.133000
     33 HAQ         5.1300   -1.7200   -0.6140 hn        1 QPP      0.432800
     34 HAV         7.3600   -1.7780    2.5830 ha        1 QPP      0.183000
     35 HAW1       11.0080   -1.3710    1.6560 hc        1 QPP      0.054367
     36 HAW2       10.0330   -2.1710    2.9620 hc        1 QPP      0.054367
     37 HAW3       10.7440   -3.1670    1.6200 hc        1 QPP      0.054367
     38 HAT         9.7250   -2.0450   -0.9340 hn        1 QPP      0.321700
@<TRIPOS>BOND
     1    1    2 ar  
     2    1    6 ar  
     3    1   24 1   
     4    2    3 ar  
     5    2   25 1   
     6    3    4 ar  
     7    3   26 1   
     8    4    5 ar  
     9    4   27 1   
    10    5    6 ar  
    11    5   28 1   
    12    6    7 1   
    13    7    8 ar  
    14    7    9 ar  
    15    8   16 ar  
    16    9   10 ar  
    17   10   11 ar  
    18   10   15 ar  
    19   11   12 ar  
    20   11   29 1   
    21   12   13 ar  
    22   12   30 1   
    23   13   14 ar  
    24   13   31 1   
    25   14   15 ar  
    26   14   32 1   
    27   15   16 ar  
    28   16   17 1   
    29   17   18 1   
    30   17   33 1   
    31   18   19 1   
    32   18   23 2   
    33   19   20 2   
    34   19   34 1   
    35   20   21 1   
    36   20   22 1   
    37   21   35 1   
    38   21   36 1   
    39   21   37 1   
    40   22   23 1   
    41   22   38 1   
@<TRIPOS>SUBSTRUCTURE
     1 QPP         1 TEMP              0 ****  ****    0 ROOT
