@<TRIPOS>MOLECULE
QQ1
   50    72     1     0     0
SMALL
bcc


@<TRIPOS>ATOM
      1 C1          0.0000    0.0000    0.0000 c3        1 QQ1      0.526000
      2 C2          1.3830    0.0000    0.0000 c3        1 QQ1     -0.187000
      3 C6         -0.6980   -0.0010    1.1950 c3        1 QQ1     -0.061000
      4 C3          2.0760    0.0000    1.1930 c2        1 QQ1     -0.174000
      5 C5         -0.0160   -0.0010    2.3950 c2        1 QQ1     -0.159000
      6 C24        -2.9040    4.6580    5.3520 c2        1 QQ1     -0.128000
      7 C10         3.5990   -0.4670    5.1930 c2        1 QQ1     -0.285000
      8 C4          1.3790   -0.0010    2.4010 c3        1 QQ1      0.385000
      9 C21        -0.7340    3.3350    4.4300 c2        1 QQ1     -0.271000
     10 C7          2.1160   -0.0020    3.6850 c2        1 QQ1     -0.008000
     11 C8          1.7930    0.7290    4.8190 c3        1 QQ1     -0.464000
     12 C22        -1.3180    4.4020    3.6970 c2        1 QQ1      0.023000
     13 C26        -1.3330    2.9990    5.6490 c2        1 QQ1     -0.254000
     14 C19         0.6620    1.6510    4.9830 c2        1 QQ1     -0.066000
     15 C16         5.5960    4.1450    8.0250 DU        1 QQ1      0.016000
     16 C15         4.1450    4.2950    8.4860 DU        1 QQ1     -0.348000
     17 C17         5.6240    3.5410    6.6190 DU        1 QQ1      0.079000
     18 C14         3.4730    2.9200    8.5080 c3        1 QQ1     -0.266000
     19 C18         4.9530    2.1670    6.6410 DU        1 QQ1     -0.384000
     20 C13         3.5020    2.3160    7.1030 DU        1 QQ1     -0.483000
     21 N23        -2.3800    5.0170    4.1930 n2        1 QQ1     -0.143000
     22 N25        -2.4020    3.6780    6.0680 na        1 QQ1     -0.002000
     23 N11         3.2230   -0.7120    3.9680 n2        1 QQ1     -0.093000
     24 N20         0.3280    2.5710    4.1360 n2        1 QQ1     -0.003000
     25 N9          2.7500    0.4150    5.7610 nx        1 QQ1      0.458000
     26 N28        -0.7840    4.7950    2.4820 nv        1 QQ1      0.056000
     27 S27        -0.4350    1.6590    6.3580 ss        1 QQ1      0.341000
     28 H1          0.4600    0.3040    0.9330 DU        1 QQ1      0.034000
     29 H2          0.4080    0.0000   -0.4720 DU        1 QQ1      0.139000
     30 H6          0.1430   -0.0000    0.5120 DU        1 QQ1     -0.524000
     31 H3          0.9930   -0.0000    1.1920 DU        1 QQ1      0.278000
     32 H5          0.9980   -0.0000    2.0130 ha        1 QQ1     -0.227000
     33 H24        -2.4510    3.7550    4.9610 DU        1 QQ1      0.288000
     34 H10         2.7410    0.1910    5.2540 DU        1 QQ1      0.179000
     35 H281       -0.1580    4.1140    2.8640 hn        1 QQ1      0.063000
     36 H282       -0.0250    5.4480    2.4600 hn        1 QQ1      0.063000
     37 H162        4.8150    4.1670    7.2740 DU        1 QQ1     -0.032000
     38 H151        5.1440    3.8920    8.6040 DU        1 QQ1      0.157000
     39 H152        3.6110    4.9530    7.8110 ha        1 QQ1      0.115000
     40 H171        5.1610    3.9090    7.5270 DU        1 QQ1     -0.032000
     41 H172        6.6520    3.4350    6.2940 ha        1 QQ1      0.133000
     42 H141        4.0050    3.3390    7.6620 DU        1 QQ1      0.342000
     43 H142        2.4480    3.0180    8.8450 hc        1 QQ1      0.157000
     44 H181        4.5900    2.2010    7.6610 DU        1 QQ1      0.280000
     45 H182        4.9600    1.7570    5.6390 ha        1 QQ1      0.180000
     46 H13         4.4920    1.8950    7.2300 DU        1 QQ1      0.280000
     47 C12         2.8300    0.9420    7.1250 c3        1 QQ1     -0.092000
     48 H161        6.0610    5.1230    7.9990 ha        1 QQ1      0.127000
     49 H121        3.3970    1.8110    6.8150 hx        1 QQ1     -0.008000
     50 H122        2.5930    1.9590    7.4140 hx        1 QQ1     -0.008000
@<TRIPOS>BOND
     1    1    2 1   
     2    1    3 1   
     3    1   28 1   
     4    1   29 1   
     5    2    4 1   
     6    2   29 1   
     7    2   31 1   
     8    3    5 1   
     9    3   28 1   
    10    3   30 1   
    11    4    8 1   
    12    4   31 1   
    13    5    8 1   
    14    5   32 1   
    15    6   21 1   
    16    6   22 1   
    17    6   33 1   
    18    7   23 1   
    19    7   25 1   
    20    7   34 1   
    21    8   10 1   
    22    8   31 1   
    23    9   12 1   
    24    9   13 1   
    25    9   24 1   
    26   10   11 1   
    27   10   23 1   
    28   11   14 1   
    29   11   25 1   
    30   11   34 1   
    31   12   21 1   
    32   12   26 1   
    33   13   22 1   
    34   13   27 1   
    35   14   24 1   
    36   14   27 1   
    37   15   16 1   
    38   15   17 1   
    39   15   37 1   
    40   15   38 1   
    41   15   40 1   
    42   15   48 1   
    43   16   18 1   
    44   16   38 1   
    45   16   39 1   
    46   16   42 1   
    47   17   19 1   
    48   17   37 1   
    49   17   40 1   
    50   17   41 1   
    51   18   20 1   
    52   18   42 1   
    53   18   43 1   
    54   19   20 1   
    55   19   44 1   
    56   19   45 1   
    57   19   46 1   
    58   20   42 1   
    59   20   44 1   
    60   20   46 1   
    61   20   47 1   
    62   22   33 1   
    63   25   34 1   
    64   25   47 1   
    65   26   35 1   
    66   26   36 1   
    67   28   30 1   
    68   28   31 1   
    69   37   40 1   
    70   44   46 1   
    71   47   49 1   
    72   47   50 1   
@<TRIPOS>SUBSTRUCTURE
     1 QQ1         1 TEMP              0 ****  ****    0 ROOT
