@<TRIPOS>MOLECULE
QQ1
   50    48     1     0     0
SMALL
bcc


@<TRIPOS>ATOM
      1 C1         -5.8550    0.2660    2.3180 c2        1 QQ1      0.128000
      2 C2          3.6090   -2.3280    1.0310 c2        1 QQ1     -0.159000
      3 C6         -6.2660    1.3930    1.7820 c1        1 QQ1     -0.576000
      4 C3          3.2150   -1.2440    1.6220 c1        1 QQ1     -0.117000
      5 C5         -6.6730    2.4870    1.2590 c1        1 QQ1      0.200000
      6 C24        -3.0380    2.8120    2.2140 c2        1 QQ1      0.035000
      7 C10         5.4480   -0.5890    4.4250 c1        1 QQ1      0.167000
      8 C4          2.7970   -0.1460    2.1940 c2        1 QQ1     -0.118000
      9 C21        -0.4280    2.9750    2.8990 c2        1 QQ1     -0.249000
     10 C7          3.2290    0.3220    3.5180 c2        1 QQ1      0.115000
     11 C8          2.4620    1.2250    4.2220 c2        1 QQ1     -0.031000
     12 C22        -1.1260    4.1390    2.3870 c2        1 QQ1      0.251000
     13 C26        -1.1870    1.7520    3.0220 c2        1 QQ1     -0.201000
     14 C19         1.1590    1.6540    3.6970 c2        1 QQ1     -0.264000
     15 C16         6.1740    5.0380   11.1460 c2        1 QQ1     -0.215500
     16 C15         4.9120    4.7330   10.8360 c2        1 QQ1     -0.145000
     17 C17         6.4220    3.1200    6.1810 c3        1 QQ1     -0.222500
     18 C14         4.5240    4.0870    9.5970 c2        1 QQ1     -0.145000
     19 C18         6.0570    1.9060    6.9830 c3        1 QQ1     -0.222500
     20 C13         3.2620    3.7810    9.2870 c2        1 QQ1     -0.215500
     21 N23        -2.4550    4.0250    2.0480 n2        1 QQ1     -0.251000
     22 N25        -2.4930    1.6610    2.6810 n2        1 QQ1     -0.204000
     23 N11         4.4220   -0.1600    4.0140 n2        1 QQ1     -0.312000
     24 N20         0.9000    2.8940    3.2930 n2        1 QQ1     -0.042000
     25 N9          2.8590    1.8010    5.4670 n3        1 QQ1     -0.126000
     26 N28        -0.4720    5.3270    2.2370 nh        1 QQ1     -0.343000
     27 S27        -0.1760    0.5420    3.6340 ss        1 QQ1      0.514000
     28 H1         -4.1170    2.7590    1.9270 h5        1 QQ1      0.210000
     29 H2          4.4900   -2.3510    0.3700 ha        1 QQ1      0.145500
     30 H6         -6.5250   -0.6030    2.4460 ha        1 QQ1      0.126000
     31 H3          3.0850   -3.2890    1.1540 ha        1 QQ1      0.145500
     32 H5          2.0740    0.5110    1.6750 ha        1 QQ1      0.164000
     33 H24        -4.8170    0.1220    2.6710 ha        1 QQ1      0.126000
     34 H10         3.8500    1.7800    5.6410 hn        1 QQ1      0.256000
     35 H281        0.4740    5.4020    2.5170 hn        1 QQ1      0.251500
     36 H282       -0.9520    6.1300    1.9090 hn        1 QQ1      0.251500
     37 H162        5.6460    3.3330    5.4060 hc        1 QQ1      0.074333
     38 H151        7.0190    4.8210   10.4790 ha        1 QQ1      0.119000
     39 H152        4.0900    4.9680   11.5340 ha        1 QQ1      0.118000
     40 H171        6.5060    4.0170    6.8420 hc        1 QQ1      0.074333
     41 H172        7.4010    2.9740    5.6630 hc        1 QQ1      0.074333
     42 H141        2.4210    4.0000    9.9590 ha        1 QQ1      0.119000
     43 H142        5.3460    3.8500    8.8960 ha        1 QQ1      0.118000
     44 H181        5.0800    2.0560    7.5080 hc        1 QQ1      0.074333
     45 H182        6.8350    1.6980    7.7570 hc        1 QQ1      0.074333
     46 H13         5.9760    1.0040    6.3250 hc        1 QQ1      0.074333
     47 C12         2.1120    2.3600    6.3720 c1        1 QQ1     -0.152000
     48 H161        6.4410    5.5280   12.0910 ha        1 QQ1      0.119000
     49 H121        2.9870    3.2900    8.3370 ha        1 QQ1      0.119000
     50 H122        1.0190    2.4130    6.2090 ha        1 QQ1      0.063000
@<TRIPOS>BOND
     1    1    3 1   
     2    1   30 1   
     3    1   33 1   
     4    2    4 1   
     5    2   29 1   
     6    2   31 1   
     7    3    5 1   
     8    4    8 1   
     9    6   21 1   
    10    6   22 1   
    11    6   28 1   
    12    7   23 1   
    13    8   10 1   
    14    8   32 1   
    15    9   12 1   
    16    9   13 1   
    17    9   24 1   
    18   10   11 1   
    19   10   23 1   
    20   11   14 1   
    21   11   25 1   
    22   12   21 1   
    23   12   26 1   
    24   13   22 1   
    25   13   27 1   
    26   14   24 1   
    27   14   27 1   
    28   15   16 1   
    29   15   38 1   
    30   15   48 1   
    31   16   18 1   
    32   16   39 1   
    33   17   19 1   
    34   17   37 1   
    35   17   40 1   
    36   17   41 1   
    37   18   20 1   
    38   18   43 1   
    39   19   44 1   
    40   19   45 1   
    41   19   46 1   
    42   20   42 1   
    43   20   49 1   
    44   25   34 1   
    45   25   47 1   
    46   26   35 1   
    47   26   36 1   
    48   47   50 1   
@<TRIPOS>SUBSTRUCTURE
     1 QQ1         1 TEMP              0 ****  ****    0 ROOT
