@<TRIPOS>MOLECULE
QQ1
   50    54     1     0     0
SMALL
bcc


@<TRIPOS>ATOM
      1 C1          4.8010    3.2780    0.0950 ca        1 QQ1     -0.124000
      2 C2          3.8480    3.8760   -0.7320 ca        1 QQ1     -0.124500
      3 C6          4.3960    2.4250    1.1200 ca        1 QQ1     -0.124500
      4 C3          2.4920    3.6130   -0.5430 ca        1 QQ1     -0.117000
      5 C5          3.0400    2.1530    1.3140 ca        1 QQ1     -0.117000
      6 C24         2.9710   -4.0260   -0.3410 ca        1 QQ1      0.682900
      7 C10        -1.4720    2.7790    0.9890 cc        1 QQ1      0.399400
      8 C4          2.0820    2.7410    0.4740 ca        1 QQ1     -0.110500
      9 C21         0.9570   -2.2380   -0.1650 ca        1 QQ1     -0.215200
     10 C7          0.6680    2.4520    0.6560 cd        1 QQ1      0.371800
     11 C8          0.0500    1.1670    0.6360 cc        1 QQ1     -0.226500
     12 C22         0.6950   -3.5960   -0.5990 ca        1 QQ1      0.754200
     13 C26         2.3210   -1.9020    0.1670 ca        1 QQ1      0.414600
     14 C19         0.6710   -0.1100    0.3940 cc        1 QQ1      0.397800
     15 C16        -5.4770   -0.3120   -2.0160 c3        1 QQ1     -0.078400
     16 C15        -4.6360   -1.4750   -1.5320 c3        1 QQ1     -0.075900
     17 C17        -4.6410    0.9420   -2.1710 c3        1 QQ1     -0.075900
     18 C14        -3.9080   -1.1360   -0.2470 c3        1 QQ1     -0.074900
     19 C18        -3.9200    1.2830   -0.8830 c3        1 QQ1     -0.074900
     20 C13        -3.0620    0.1190   -0.4120 c3        1 QQ1     -0.080700
     21 N23         1.7370   -4.4830   -0.6880 nb        1 QQ1     -0.785000
     22 N25         3.3370   -2.7960    0.0820 nb        1 QQ1     -0.701000
     23 N11        -0.2980    3.4370    0.8690 nd        1 QQ1     -0.650000
     24 N20         0.0410   -1.2050   -0.0320 nd        1 QQ1     -0.524100
     25 N9         -1.3180    1.3930    0.8660 na        1 QQ1     -0.168900
     26 N28        -0.5850   -3.9950   -0.8860 nh        1 QQ1     -0.954500
     27 S27         2.3850   -0.2820    0.6420 ss        1 QQ1      0.005500
     28 H1          5.8700    3.4860   -0.0590 ha        1 QQ1      0.134000
     29 H2          4.1650    4.5590   -1.5330 ha        1 QQ1      0.135500
     30 H6          5.1440    1.9660    1.7830 ha        1 QQ1      0.135500
     31 H3          1.7390    4.0920   -1.1870 ha        1 QQ1      0.145500
     32 H5          2.7240    1.5400    2.1760 ha        1 QQ1      0.145500
     33 H24         3.7870   -4.7770   -0.4220 h5        1 QQ1      0.054100
     34 H10        -2.4460    3.2470    1.1740 h5        1 QQ1      0.065100
     35 H281       -1.3000   -3.3120   -0.9280 hn        1 QQ1      0.446300
     36 H282       -0.7520   -4.8940   -1.2670 hn        1 QQ1      0.446300
     37 H162       -6.3070   -0.1210   -1.2860 hc        1 QQ1      0.041700
     38 H151       -5.2920   -2.3690   -1.3630 hc        1 QQ1      0.041950
     39 H152       -3.8890   -1.7480   -2.3220 hc        1 QQ1      0.041950
     40 H171       -3.8910    0.7930   -2.9910 hc        1 QQ1      0.041950
     41 H172       -5.3000    1.7990   -2.4670 hc        1 QQ1      0.041950
     42 H141       -4.6520   -0.9810    0.5780 hc        1 QQ1      0.041200
     43 H142       -3.2480   -1.9950    0.0470 hc        1 QQ1      0.041200
     44 H181       -3.2750    2.1860   -1.0420 hc        1 QQ1      0.041200
     45 H182       -4.6730    1.5380   -0.0910 hc        1 QQ1      0.041200
     46 H13        -2.2720   -0.0860   -1.1880 hc        1 QQ1      0.077700
     47 C12        -2.3890    0.4400    0.9330 c3        1 QQ1      0.041300
     48 H161       -5.9480   -0.5740   -2.9990 hc        1 QQ1      0.041700
     49 H121       -3.1690    0.8570    1.6350 h1        1 QQ1      0.068700
     50 H122       -1.9940   -0.5150    1.3830 h1        1 QQ1      0.068700
@<TRIPOS>BOND
     1    1    2 ar  
     2    1    3 ar  
     3    1   28 1   
     4    2    4 ar  
     5    2   29 1   
     6    3    5 ar  
     7    3   30 1   
     8    4    8 ar  
     9    4   31 1   
    10    5    8 ar  
    11    5   32 1   
    12    6   21 ar  
    13    6   22 ar  
    14    6   33 1   
    15    7   23 2   
    16    7   25 1   
    17    7   34 1   
    18    8   10 1   
    19    9   12 ar  
    20    9   13 ar  
    21    9   24 1   
    22   10   11 2   
    23   10   23 1   
    24   11   14 1   
    25   11   25 1   
    26   12   21 ar  
    27   12   26 1   
    28   13   22 ar  
    29   13   27 1   
    30   14   24 2   
    31   14   27 1   
    32   15   16 1   
    33   15   17 1   
    34   15   37 1   
    35   15   48 1   
    36   16   18 1   
    37   16   38 1   
    38   16   39 1   
    39   17   19 1   
    40   17   40 1   
    41   17   41 1   
    42   18   20 1   
    43   18   42 1   
    44   18   43 1   
    45   19   20 1   
    46   19   44 1   
    47   19   45 1   
    48   20   46 1   
    49   20   47 1   
    50   25   47 1   
    51   26   35 1   
    52   26   36 1   
    53   47   49 1   
    54   47   50 1   
@<TRIPOS>SUBSTRUCTURE
     1 QQ1         1 TEMP              0 ****  ****    0 ROOT
