@<TRIPOS>MOLECULE
QQ1
   51    53     1     0     0
SMALL
bcc


@<TRIPOS>ATOM
      1 C1          0.0150   -1.9930    2.6120 cx        1 QQ1     -0.116500
      2 C2          1.4550   -2.4710    2.4560 cx        1 QQ1      0.011800
      3 C6         -0.6140   -0.6640    2.1990 c3        1 QQ1      0.056800
      4 C3          1.1090   -1.5770    3.5550 cu        1 QQ1     -0.172400
      5 C5         -0.2180    0.2790    3.3210 ce        1 QQ1     -0.801200
      6 C24        -2.4050    4.0840    1.0080 c1        1 QQ1      0.279400
      7 C10         3.3320    1.2180    6.2920 cc        1 QQ1     -0.021900
      8 C4          0.9840   -0.3020    3.9720 ce        1 QQ1      0.049800
      9 C21        -0.4320    4.0540    2.9610 ce        1 QQ1     -0.253000
     10 C7          1.7960    0.5040    4.8250 cc        1 QQ1     -0.011100
     11 C8          1.5820    1.9050    5.0410 cd        1 QQ1     -0.071200
     12 C22        -0.6980    5.2890    2.2820 ce        1 QQ1      0.439100
     13 C26        -1.2340    2.8830    2.5960 cf        1 QQ1      0.276300
     14 C19         0.5610    2.6100    4.3290 cf        1 QQ1      0.368200
     15 C16         6.8230    0.9230    6.4420 c1        1 QQ1     -0.030500
     16 C15         5.7210    1.2140    6.8050 c1        1 QQ1     -0.221100
     17 C17         2.7860    7.4030    5.0050 c1        1 QQ1     -0.167500
     18 C14         4.4200    1.5680    7.2790 c3        1 QQ1      0.104700
     19 C18         2.8720    6.4100    4.3420 c1        1 QQ1     -0.167500
     20 C13         4.2240    3.1030    7.4570 c3        1 QQ1     -0.101400
     21 N23        -1.7100    5.2330    1.3080 nh        1 QQ1     -0.315500
     22 N25        -2.1620    2.9010    1.6680 nf        1 QQ1     -0.530000
     23 N11         2.8880    0.1110    5.6200 na        1 QQ1     -0.095100
     24 N20         0.5940    3.8530    3.8910 ne        1 QQ1     -0.408300
     25 N9          2.5500    2.3180    5.9470 na        1 QQ1     -0.003100
     26 S27        -0.8090    1.6290    3.7470 sx        1 QQ1      0.577700
     27 H1         -0.2180   -0.2980    1.2190 hc        1 QQ1      0.065200
     28 H2          2.1320   -2.0590    1.6800 hc        1 QQ1      0.097200
     29 H6         -0.7230   -2.7790    2.8510 hc        1 QQ1      0.115700
     30 H3          1.6300   -3.5510    2.6310 hc        1 QQ1      0.097200
     31 H5         -1.7240   -0.7690    2.1200 hc        1 QQ1      0.065200
     32 H24        -1.9500    6.0560    0.7940 hn        1 QQ1      0.318700
     33 H10         3.2730   -0.8060    5.6670 hn        1 QQ1      0.360700
     34 H281       -0.2150    7.2860    2.1040 hn        1 QQ1      0.308700
     35 H282        4.2120    1.0400    8.2610 hc        1 QQ1      0.122700
     36 H151        3.6650    1.7580   10.3900 ha        1 QQ1      0.001000
     37 H152        3.3990    2.3720   10.4970 ha        1 QQ1      0.001000
     38 H171        2.7180    8.2860    5.5920 ha        1 QQ1      0.170500
     39 H172        2.2400    4.2210    9.4930 ha        1 QQ1      0.001000
     40 H141        4.0530    3.3370    8.5390 hc        1 QQ1      0.097200
     41 H142        4.2850   -0.4620   10.2490 ha        1 QQ1      0.001000
     42 H181        5.1290    3.6590    7.1090 hc        1 QQ1      0.097200
     43 H182        3.8720   -0.5590    9.7210 ha        1 QQ1      0.001000
     44 H13         2.9580    5.5370    3.7440 ha        1 QQ1      0.170500
     45 C12         2.9860    3.5290    6.6240 c3        1 QQ1      0.025300
     46 H161        2.1760    4.3910   10.1460 ha        1 QQ1      0.001000
     47 H121        2.1580    3.9090    7.2850 h1        1 QQ1      0.104700
     48 H122        3.2380    4.3190    5.8620 h1        1 QQ1      0.104700
     49 N28        -0.0190    6.4330    2.5710 nh        1 QQ1     -0.502100
     50 H162        7.8060    0.6640    6.1220 ha        1 QQ1      0.190500
     51 H283        0.7050    6.4200    3.2550 hn        1 QQ1      0.308700
@<TRIPOS>BOND
     1    1    2 1   
     2    1    3 1   
     3    1    4 1   
     4    1   29 1   
     5    2    4 1   
     6    2   28 1   
     7    2   30 1   
     8    3    5 1   
     9    3   27 1   
    10    3   31 1   
    11    4    8 2   
    12    5    8 1   
    13    5   26 2   
    14    6   21 2   
    15    6   22 2   
    16    7   18 1   
    17    7   23 2   
    18    7   25 1   
    19    8   10 1   
    20    9   12 1   
    21    9   13 2   
    22    9   24 1   
    23   10   11 2   
    24   10   23 1   
    25   11   14 1   
    26   11   25 1   
    27   12   21 1   
    28   12   49 2   
    29   13   22 1   
    30   13   26 1   
    31   14   24 2   
    32   14   26 1   
    33   15   16 3   
    34   15   50 1   
    35   16   18 1   
    36   17   19 3   
    37   17   38 1   
    38   18   20 1   
    39   18   35 1   
    40   19   44 1   
    41   20   40 1   
    42   20   42 1   
    43   20   45 1   
    44   21   32 1   
    45   23   33 1   
    46   25   45 1   
    47   34   49 1   
    48   36   37 1   
    49   39   46 1   
    50   41   43 1   
    51   45   47 1   
    52   45   48 1   
    53   49   51 1   
@<TRIPOS>SUBSTRUCTURE
     1 QQ1         1 TEMP              0 ****  ****    0 ROOT
