@<TRIPOS>MOLECULE
QQ2
   60    62     1     0     0
SMALL
bcc


@<TRIPOS>ATOM
      1 C22         3.4440    1.5050   -1.0800 ca        1 QQ2     -0.166000
      2 C1         -1.7910    1.8760    0.3890 ca        1 QQ2      0.688900
      3 C5         -0.8520    0.3110   -1.0210 ca        1 QQ2      0.695200
      4 C4         -2.1630   -0.1930   -1.2900 ca        1 QQ2     -0.475600
      5 C3         -3.2670    0.4460   -0.6640 ca        1 QQ2      0.710200
      6 C11        -7.7640    1.1560    1.6130 ca        1 QQ2     -0.117000
      7 C10        -7.7490    1.5920    0.2830 ca        1 QQ2     -0.072300
      8 C9         -6.6930    1.2240   -0.5530 ca        1 QQ2     -0.110000
      9 C8         -5.6460    0.4100   -0.0760 ca        1 QQ2      0.136600
     10 C12        -6.7380    0.3550    2.1020 ca        1 QQ2     -0.116000
     11 C16        -4.8370   -1.0370   -1.8670 c3        1 QQ2      0.282900
     12 C13        -5.6830   -0.0250    1.2680 ca        1 QQ2      0.018400
     13 C20         1.5740   -0.0230   -1.3510 ca        1 QQ2      0.095600
     14 N2         -3.0740    1.4970    0.2070 nb        1 QQ2     -0.752000
     15 N6         -0.6640    1.3650   -0.1600 nb        1 QQ2     -0.763000
     16 N7         -4.5890    0.0640   -0.9700 nh        1 QQ2     -0.658700
     17 N18        -4.2250   -3.4440   -1.0170 n1        1 QQ2     -0.348800
     18 N19         0.2260   -0.2690   -1.7060 nh        1 QQ2     -0.715300
     19 C21         2.1030    1.2870   -1.3590 ca        1 QQ2     -0.104000
     20 C23         4.2880    0.4150   -0.7990 ca        1 QQ2      0.113100
     21 C24         3.7830   -0.8880   -0.7950 ca        1 QQ2     -0.166000
     22 C25         2.4330   -1.1030   -1.0620 ca        1 QQ2     -0.104000
     23 O26         5.6070    0.7530   -0.5580 os        1 QQ2     -0.315900
     24 C27         6.4570   -0.3210   -0.1530 c3        1 QQ2      0.090400
     25 C28         7.8140    0.3150    0.1730 c3        1 QQ2      0.137100
     26 C29         8.8160   -0.8250    0.4580 c3        1 QQ2      0.144800
     27 N30         9.9020   -0.4290    1.3390 n3        1 QQ2     -0.735600
     28 C31        10.6090   -1.5660    1.8850 c3        1 QQ2      0.153100
     29 C32        10.7880    0.5570    0.7630 c3        1 QQ2      0.153100
     30 O33         8.2750    1.1440   -0.8750 oh        1 QQ2     -0.582800
     31 CL1        -4.4570   -1.0160    1.9020 cl        1 QQ2     -0.075400
     32 H22         3.8610    2.5230   -1.0790 ha        1 QQ2      0.146000
     33 H1         -1.6380    2.7230    1.0930 h5        1 QQ2      0.055100
     34 H4         -2.2970   -1.0540   -1.9550 ha        1 QQ2      0.149000
     35 H11        -8.5910    1.4510    2.2760 ha        1 QQ2      0.140000
     36 H9         -6.6760    1.5840   -1.5940 ha        1 QQ2      0.146000
     37 H12        -6.7540    0.0190    3.1500 ha        1 QQ2      0.151000
     38 H161       -5.9420   -1.0360   -2.1140 h1        1 QQ2      0.090200
     39 H162       -4.2600   -0.8540   -2.8240 h1        1 QQ2      0.090200
     40 H19         0.0480   -1.2050   -2.0090 hn        1 QQ2      0.423800
     41 H21         1.4540    2.1490   -1.5800 ha        1 QQ2      0.144000
     42 H24         4.4300   -1.7500   -0.5790 ha        1 QQ2      0.146000
     43 H25         2.0500   -2.1350   -1.0480 ha        1 QQ2      0.144000
     44 H271        6.5530   -1.0580   -0.9950 h1        1 QQ2      0.044700
     45 H272        6.0370   -0.8280    0.7540 h1        1 QQ2      0.044700
     46 H28         7.7110    1.0120    1.0520 h1        1 QQ2      0.107700
     47 H291        9.1970   -1.2070   -0.5350 h1        1 QQ2      0.032200
     48 H292        8.2590   -1.6670    0.9590 h1        1 QQ2      0.032200
     49 H311       11.3880   -1.1940    2.6010 h1        1 QQ2      0.034867
     50 H312        9.8870   -2.2150    2.4460 h1        1 QQ2      0.034867
     51 H313       11.1170   -2.1930    1.1000 h1        1 QQ2      0.034867
     52 H321       10.1800    1.4190    0.3780 h1        1 QQ2      0.034867
     53 H322       11.4790    0.9270    1.5650 h1        1 QQ2      0.034867
     54 H323       11.4080    0.1510   -0.0830 h1        1 QQ2      0.034867
     55 H33         8.1300    0.6770   -1.7060 ho        1 QQ2      0.399000
     56 H331       -9.6880    1.7890   -0.6000 hc        1 QQ2      0.048367
     57 H332       -9.2470    3.1080    0.5620 hc        1 QQ2      0.048367
     58 H333       -8.5020    3.0700   -1.0900 hc        1 QQ2      0.048367
     59 C33        -8.8500    2.4360   -0.2380 c3        1 QQ2     -0.055800
     60 C17        -4.4900   -2.3720   -1.3790 c1        1 QQ2      0.172700
@<TRIPOS>BOND
     1    1   19 ar  
     2    1   20 ar  
     3    1   32 1   
     4    2   14 ar  
     5    2   15 ar  
     6    2   33 1   
     7    3    4 ar  
     8    3   15 ar  
     9    3   18 1   
    10    4    5 ar  
    11    4   34 1   
    12    5   14 ar  
    13    5   16 1   
    14    6    7 ar  
    15    6   10 ar  
    16    6   35 1   
    17    7    8 ar  
    18    7   59 1   
    19    8    9 ar  
    20    8   36 1   
    21    9   12 ar  
    22    9   16 1   
    23   10   12 ar  
    24   10   37 1   
    25   11   16 1   
    26   11   38 1   
    27   11   39 1   
    28   11   60 1   
    29   12   31 1   
    30   13   18 1   
    31   13   19 ar  
    32   13   22 ar  
    33   17   60 3   
    34   18   40 1   
    35   19   41 1   
    36   20   21 ar  
    37   20   23 1   
    38   21   22 ar  
    39   21   42 1   
    40   22   43 1   
    41   23   24 1   
    42   24   25 1   
    43   24   44 1   
    44   24   45 1   
    45   25   26 1   
    46   25   30 1   
    47   25   46 1   
    48   26   27 1   
    49   26   47 1   
    50   26   48 1   
    51   27   28 1   
    52   27   29 1   
    53   28   49 1   
    54   28   50 1   
    55   28   51 1   
    56   29   52 1   
    57   29   53 1   
    58   29   54 1   
    59   30   55 1   
    60   56   59 1   
    61   57   59 1   
    62   58   59 1   
@<TRIPOS>SUBSTRUCTURE
     1 QQ2         1 TEMP              0 ****  ****    0 ROOT
