@<TRIPOS>MOLECULE
QQ2
   63    64     1     0     0
SMALL
bcc


@<TRIPOS>ATOM
      1 C22         0.5410    1.1950    0.7900 ca        1 QQ2     -0.147500
      2 C1          5.1550   -2.7750    0.7270 ca        1 QQ2      0.717900
      3 C5          4.8090   -0.5400    1.1670 ca        1 QQ2      0.540200
      4 C4          5.9000   -0.1870    0.3350 ca        1 QQ2     -0.330600
      5 C3          6.6070   -1.2750   -0.2600 ca        1 QQ2      0.560200
      6 C11         8.4890   -3.6240   -4.3840 ca        1 QQ2     -0.053000
      7 C10         7.9770   -2.3320   -4.6000 ca        1 QQ2     -0.019300
      8 C9          7.7470   -1.4990   -3.5060 ca        1 QQ2     -0.124000
      9 C8          8.0370   -1.9420   -2.1950 ca        1 QQ2     -0.062400
     10 C12         8.7670   -4.0670   -3.0990 ca        1 QQ2     -0.093000
     11 C16         9.0330   -0.7560   -0.2620 c3        1 QQ2      0.182900
     12 C13         8.5470   -3.2390   -1.9860 ca        1 QQ2      0.052400
     13 C20         2.6060    0.4380    1.7920 ca        1 QQ2     -0.102400
     14 N2          6.2350   -2.5650   -0.0760 nb        1 QQ2     -0.599000
     15 N6          4.4220   -1.8290    1.3690 nb        1 QQ2     -0.631000
     16 N7          7.7960   -0.9700   -1.1080 n4        1 QQ2     -0.538500
     17 N18         8.8210    1.2700    1.3710 n1        1 QQ2     -0.223800
     18 N19         4.0690    0.5290    1.8880 n4        1 QQ2     -0.610100
     19 C21         1.9260    1.2080    0.8240 ca        1 QQ2     -0.047000
     20 C23        -0.1730    0.4100    1.7240 ca        1 QQ2      0.188100
     21 C24         0.5030   -0.3760    2.6670 ca        1 QQ2     -0.147500
     22 C25         1.8950   -0.3700    2.6970 ca        1 QQ2     -0.047000
     23 O26        -1.5440    0.5290    1.6210 os        1 QQ2     -0.236200
     24 C27        -2.3340   -0.3520    2.3610 c2        1 QQ2     -0.072900
     25 C28        -3.4930    0.1490    2.8470 c2        1 QQ2      0.033900
     26 C29        -4.4860   -0.6980    3.5930 c3        1 QQ2      0.164000
     27 N30        -5.9190   -0.3890    3.2650 n4        1 QQ2     -0.672400
     28 C31        -6.7670   -1.6030    3.4140 c3        1 QQ2      0.077600
     29 C32        -6.4430    0.7220    4.1100 c3        1 QQ2      0.077600
     30 O33        -3.8940    1.4550    2.7300 oh        1 QQ2     -0.504100
     31 CL1         8.9320   -3.8650   -0.4610 cl        1 QQ2     -0.025400
     32 H22        -0.0110    1.7970    0.0470 ha        1 QQ2      0.187500
     33 H1          4.8460   -3.8430    0.8760 h5        1 QQ2      0.134100
     34 H4          6.1960    0.8610    0.1640 ha        1 QQ2      0.195000
     35 H11         8.6740   -4.2890   -5.2490 ha        1 QQ2      0.192000
     36 H9          7.3480   -0.4870   -3.6940 ha        1 QQ2      0.153000
     37 H12         9.1740   -5.0840   -2.9420 ha        1 QQ2      0.198000
     38 H161        9.2440   -1.7010    0.3340 hx        1 QQ2      0.168200
     39 H162        9.9000   -0.5830   -0.9770 hx        1 QQ2      0.168200
     40 H19         4.3700    1.4420    1.5140 hn        1 QQ2      0.482800
     41 H21         2.4690    1.8350    0.0970 ha        1 QQ2      0.169500
     42 H24        -0.0490   -0.9890    3.3970 ha        1 QQ2      0.187500
     43 H25         2.4160   -0.9980    3.4420 ha        1 QQ2      0.169500
     44 H271       -5.0550    3.4990    2.7820 ha        1 QQ2      0.003500
     45 H272       -2.0030   -1.3950    2.4240 h4        1 QQ2      0.181000
     46 H28        -4.6800    3.5990    3.3380 ha        1 QQ2      0.003500
     47 H291       -4.3380   -0.5370    4.7030 hx        1 QQ2      0.122200
     48 H292       -4.2920   -1.7860    3.3560 hx        1 QQ2      0.122200
     49 H311       -7.8360   -1.3320    3.1890 hx        1 QQ2      0.115200
     50 H312       -6.4250   -2.3950    2.6960 hx        1 QQ2      0.115200
     51 H313       -6.6960   -1.9850    4.4680 hx        1 QQ2      0.115200
     52 H321       -5.7940    1.6330    3.9670 hx        1 QQ2      0.115200
     53 H322       -7.4950    0.9570    3.7930 hx        1 QQ2      0.115200
     54 H323       -6.4380    0.4120    5.1890 hx        1 QQ2      0.115200
     55 H33        -3.1820    1.9840    2.3290 ho        1 QQ2      0.470000
     56 H331        8.6630   -1.7480   -6.5400 hc        1 QQ2      0.079700
     57 H332        7.0740   -2.6190   -6.5240 hc        1 QQ2      0.079700
     58 H333        7.1640   -0.8870   -5.9870 hc        1 QQ2      0.079700
     59 C17         8.8820    0.3760    0.6300 c1        1 QQ2      0.123700
     60 H71         7.5830   -0.0660   -1.5700 hn        1 QQ2      0.467800
     61 H192        4.3310    0.4730    2.8880 hn        1 QQ2      0.482800
     62 H301       -5.9600   -0.0770    2.2820 hn        1 QQ2      0.462800
     63 C33         7.7000   -1.8670   -5.9780 c3        1 QQ2     -0.082800
@<TRIPOS>BOND
     1    1   19 ar  
     2    1   20 ar  
     3    1   32 1   
     4    2   14 ar  
     5    2   15 ar  
     6    2   33 1   
     7    3    4 ar  
     8    3   15 ar  
     9    3   18 1   
    10    4    5 ar  
    11    4   34 1   
    12    5   14 ar  
    13    5   16 1   
    14    6    7 ar  
    15    6   10 ar  
    16    6   35 1   
    17    7    8 ar  
    18    7   63 1   
    19    8    9 ar  
    20    8   36 1   
    21    9   12 ar  
    22    9   16 1   
    23   10   12 ar  
    24   10   37 1   
    25   11   16 1   
    26   11   38 1   
    27   11   39 1   
    28   11   59 1   
    29   12   31 1   
    30   13   18 1   
    31   13   19 ar  
    32   13   22 ar  
    33   16   60 1   
    34   17   59 3   
    35   18   40 1   
    36   18   61 1   
    37   19   41 1   
    38   20   21 ar  
    39   20   23 1   
    40   21   22 ar  
    41   21   42 1   
    42   22   43 1   
    43   23   24 1   
    44   24   25 2   
    45   24   45 1   
    46   25   26 1   
    47   25   30 1   
    48   26   27 1   
    49   26   47 1   
    50   26   48 1   
    51   27   28 1   
    52   27   29 1   
    53   27   62 1   
    54   28   49 1   
    55   28   50 1   
    56   28   51 1   
    57   29   52 1   
    58   29   53 1   
    59   29   54 1   
    60   30   55 1   
    61   44   46 1   
    62   56   63 1   
    63   57   63 1   
    64   58   63 1   
@<TRIPOS>SUBSTRUCTURE
     1 QQ2         1 TEMP              0 ****  ****    0 ROOT
