@<TRIPOS>MOLECULE
QQ2
   61    62     1     0     0
SMALL
bcc


@<TRIPOS>ATOM
      1 C22        -0.0850    1.1360    0.7370 ca        1 QQ2     -0.112500
      2 C1          3.9090   -1.4880   -1.8190 ca        1 QQ2      0.691900
      3 C5          4.1190   -0.1080    0.0150 ca        1 QQ2      0.693200
      4 C4          5.5370   -0.1870   -0.1130 ca        1 QQ2     -0.465600
      5 C3          6.0700   -0.9680   -1.1790 ca        1 QQ2      0.720200
      6 C11         9.0880   -3.9840   -3.9530 ca        1 QQ2     -0.112000
      7 C10         9.1980   -2.6290   -4.2830 ca        1 QQ2     -0.067300
      8 C9          8.6500   -1.6650   -3.4350 ca        1 QQ2     -0.108000
      9 C8          7.9940   -2.0420   -2.2460 ca        1 QQ2      0.125600
     10 C12         8.4400   -4.3750   -2.7860 ca        1 QQ2     -0.114000
     11 C16         8.3690   -0.3840   -0.4910 c3        1 QQ2      0.281900
     12 C13         7.8960   -3.4140   -1.9280 ca        1 QQ2      0.019400
     13 C20         2.2370    0.7680    1.3720 ca        1 QQ2      0.173600
     14 N2          5.2300   -1.6400   -2.0450 nb        1 QQ2     -0.739000
     15 N6          3.2870   -0.7730   -0.8490 nb        1 QQ2     -0.780000
     16 N7          7.4540   -1.0200   -1.4080 nh        1 QQ2     -0.652700
     17 N18         8.4860   -1.3650    1.9400 n1        1 QQ2     -0.342800
     18 N19         3.6030    0.6940    1.0500 nh        1 QQ2     -0.731300
     19 C21         1.2540    1.0110    0.3840 ca        1 QQ2     -0.133500
     20 C23        -0.4470    1.0430    2.0840 ca        1 QQ2      0.023100
     21 C24         0.5030    0.8270    3.0850 ca        1 QQ2     -0.112500
     22 C25         1.8380    0.6850    2.7290 ca        1 QQ2     -0.133500
     23 O26        -1.7970    1.2770    2.3960 os        1 QQ2     -0.241200
     24 C27        -2.3880    0.2890    3.1500 c2        1 QQ2      0.038100
     25 C28        -3.6410    0.5340    3.6040 c2        1 QQ2     -0.106100
     26 C29        -4.4040   -0.4190    4.4560 c3        1 QQ2      0.193000
     27 N30        -5.6910   -0.8510    3.7880 n4        1 QQ2     -0.680400
     28 C31        -6.0590   -2.2320    4.1830 c3        1 QQ2      0.080100
     29 C32        -6.7960    0.0970    4.0930 c3        1 QQ2      0.080100
     30 O33        -4.3610    1.6800    3.3230 oh        1 QQ2     -0.532100
     31 CL1         7.1220   -3.9310   -0.5070 cl        1 QQ2     -0.081400
     32 H22        -0.8510    1.3280   -0.0300 ha        1 QQ2      0.148500
     33 H1          3.2380   -2.0300   -2.5200 h5        1 QQ2      0.058100
     34 H4          6.1890    0.3360    0.5970 ha        1 QQ2      0.155000
     35 H11         9.5140   -4.7470   -4.6230 ha        1 QQ2      0.146000
     36 H9          8.7260   -0.5990   -3.7060 ha        1 QQ2      0.147000
     37 H12         8.3550   -5.4440   -2.5350 ha        1 QQ2      0.154000
     38 H161        9.4070   -0.4470   -0.9390 h1        1 QQ2      0.094200
     39 H162        8.0860    0.7100   -0.4060 h1        1 QQ2      0.094200
     40 H19         4.2270    0.8100    1.8220 hn        1 QQ2      0.437800
     41 H21         1.5350    1.1030   -0.6780 ha        1 QQ2      0.160500
     42 H24         0.2000    0.7730    4.1410 ha        1 QQ2      0.148500
     43 H25         2.5840    0.5130    3.5210 ha        1 QQ2      0.160500
     44 H271       -2.5550    3.4800    1.6760 ha        1 QQ2      0.004000
     45 H272       -1.8100   -0.6220    3.3620 h4        1 QQ2      0.170000
     46 H28        -2.8940    3.0820    1.2440 ha        1 QQ2      0.004000
     47 H291       -4.6750    0.0700    5.4360 hx        1 QQ2      0.108700
     48 H292       -3.7840   -1.3380    4.6570 hx        1 QQ2      0.108700
     49 H311       -7.0350   -2.5100    3.7010 hx        1 QQ2      0.105867
     50 H312       -5.2600   -2.9450    3.8450 hx        1 QQ2      0.105867
     51 H313       -6.1650   -2.2880    5.2990 hx        1 QQ2      0.105867
     52 H321       -6.4720    1.1400    3.8150 hx        1 QQ2      0.105867
     53 H322       -7.7030   -0.1910    3.4980 hx        1 QQ2      0.105867
     54 H323       -7.0360    0.0570    5.1880 hx        1 QQ2      0.105867
     55 H33        -3.7340    2.3760    3.0550 ho        1 QQ2      0.463000
     56 H331       11.0040   -2.1880   -5.3430 hc        1 QQ2      0.051700
     57 H332        9.6990   -2.9460   -6.3480 hc        1 QQ2      0.051700
     58 H333        9.5690   -1.2050   -5.8580 hc        1 QQ2      0.051700
     59 C17         8.4240   -0.9420    0.8600 c1        1 QQ2      0.171700
     60 H301       -5.5330   -0.8270    2.7700 hn        1 QQ2      0.458800
     61 C33         9.8990   -2.2190   -5.5230 c3        1 QQ2     -0.058800
@<TRIPOS>BOND
     1    1   19 ar  
     2    1   20 ar  
     3    1   32 1   
     4    2   14 ar  
     5    2   15 ar  
     6    2   33 1   
     7    3    4 ar  
     8    3   15 ar  
     9    3   18 1   
    10    4    5 ar  
    11    4   34 1   
    12    5   14 ar  
    13    5   16 1   
    14    6    7 ar  
    15    6   10 ar  
    16    6   35 1   
    17    7    8 ar  
    18    7   61 1   
    19    8    9 ar  
    20    8   36 1   
    21    9   12 ar  
    22    9   16 1   
    23   10   12 ar  
    24   10   37 1   
    25   11   16 1   
    26   11   38 1   
    27   11   39 1   
    28   11   59 1   
    29   12   31 1   
    30   13   18 1   
    31   13   19 ar  
    32   13   22 ar  
    33   17   59 3   
    34   18   40 1   
    35   19   41 1   
    36   20   21 ar  
    37   20   23 1   
    38   21   22 ar  
    39   21   42 1   
    40   22   43 1   
    41   23   24 1   
    42   24   25 2   
    43   24   45 1   
    44   25   26 1   
    45   25   30 1   
    46   26   27 1   
    47   26   47 1   
    48   26   48 1   
    49   27   28 1   
    50   27   29 1   
    51   27   60 1   
    52   28   49 1   
    53   28   50 1   
    54   28   51 1   
    55   29   52 1   
    56   29   53 1   
    57   29   54 1   
    58   30   55 1   
    59   44   46 1   
    60   56   61 1   
    61   57   61 1   
    62   58   61 1   
@<TRIPOS>SUBSTRUCTURE
     1 QQ2         1 TEMP              0 ****  ****    0 ROOT
