@<TRIPOS>MOLECULE
QQ2
   61    63     1     0     0
SMALL
bcc


@<TRIPOS>ATOM
      1 C22        -0.1280    1.9730    1.4410 ca        1 QQ2     -0.119500
      2 C1          3.3520   -1.2880   -1.1250 ca        1 QQ2      0.689900
      3 C5          3.8770    0.3890    0.3650 ca        1 QQ2      0.697200
      4 C4          5.2560    0.2110    0.0460 ca        1 QQ2     -0.466600
      5 C3          5.5980   -0.7780   -0.9210 ca        1 QQ2      0.721200
      6 C11         8.0710   -4.3890   -3.5220 ca        1 QQ2     -0.112000
      7 C10         8.1660   -3.1180   -4.1020 ca        1 QQ2     -0.067300
      8 C9          7.7800   -1.9940   -3.3690 ca        1 QQ2     -0.108000
      9 C8          7.3040   -2.1240   -2.0490 ca        1 QQ2      0.125600
     10 C12         7.6000   -4.5360   -2.2220 ca        1 QQ2     -0.115000
     11 C16         7.9910   -0.2130   -0.6910 c3        1 QQ2      0.280900
     12 C13         7.2190   -3.4150   -1.4800 ca        1 QQ2      0.019400
     13 C20         2.2500    1.6000    1.7880 ca        1 QQ2      0.167600
     14 N2          4.6160   -1.5500   -1.5120 nb        1 QQ2     -0.741000
     15 N6          2.9040   -0.3780   -0.2260 nb        1 QQ2     -0.787000
     16 N7          6.9270   -0.9450   -1.3370 nh        1 QQ2     -0.651700
     17 N18         8.4440   -0.7670    1.8340 n1        1 QQ2     -0.340800
     18 N19         3.5480    1.3960    1.2890 nu        1 QQ2     -0.732300
     19 C21         1.1380    1.7260    0.9240 ca        1 QQ2     -0.134500
     20 C23        -0.2960    2.1200    2.8230 ca        1 QQ2      0.020100
     21 C24         0.7930    2.0310    3.6950 ca        1 QQ2     -0.119500
     22 C25         2.0570    1.7680    3.1810 ca        1 QQ2     -0.134500
     23 O26        -1.5600    2.4680    3.3040 os        1 QQ2     -0.326900
     24 C27        -2.2170    1.4200    4.0060 c3        1 QQ2      0.097400
     25 C28        -2.8560    0.4700    2.9830 c3        1 QQ2      0.088100
     26 C29        -3.7330   -0.5580    3.7170 c3        1 QQ2      0.102800
     27 N30        -4.5270   -1.4170    2.7760 nx        1 QQ2     -0.669400
     28 C31        -4.6590   -2.8020    3.2930 c3        1 QQ2      0.081600
     29 C32        -5.8660   -0.8240    2.5060 c3        1 QQ2      0.081600
     30 O33        -3.6870    1.1650    2.0690 oh        1 QQ2     -0.634800
     31 Cl1         6.6580   -3.6360    0.1090 cl        1 QQ2     -0.082400
     32 H22        -0.9920    2.0820    0.7690 ha        1 QQ2      0.143000
     33 H1          2.5670   -1.9110   -1.6070 h5        1 QQ2      0.053100
     34 H4          6.0230    0.8180    0.5400 ha        1 QQ2      0.156000
     35 H11         8.3700   -5.2770   -4.0990 ha        1 QQ2      0.146000
     36 H9          7.8430   -0.9970   -3.8340 ha        1 QQ2      0.148000
     37 H12         7.5270   -5.5400   -1.7740 ha        1 QQ2      0.154000
     38 H161        8.9460   -0.4120   -1.2650 h1        1 QQ2      0.094700
     39 H162        7.7580    0.8930   -0.7640 h1        1 QQ2      0.094700
     40 H19         4.2880    1.6330    1.9170 hn        1 QQ2      0.439800
     41 H21         1.2620    1.6330   -0.1670 ha        1 QQ2      0.158000
     42 H24         0.6500    2.1750    4.7760 ha        1 QQ2      0.143000
     43 H25         2.9110    1.7010    3.8750 ha        1 QQ2      0.158000
     44 H271       -3.0040    1.9490    4.6080 h1        1 QQ2      0.077700
     45 H272       -1.5120    0.8620    4.6740 h1        1 QQ2      0.077700
     46 H28        -2.0440   -0.0490    2.3960 h1        1 QQ2      0.074700
     47 H291       -4.4530   -0.0270    4.4020 hx        1 QQ2      0.108200
     48 H292       -3.0590   -1.2200    4.3330 hx        1 QQ2      0.108200
     49 H311       -5.2800   -3.4070    2.5790 hx        1 QQ2      0.107200
     50 H312       -3.6410   -3.2670    3.3900 hx        1 QQ2      0.107200
     51 H313       -5.1610   -2.7810    4.2980 hx        1 QQ2      0.107200
     52 H321       -5.7270    0.2310    2.1330 hx        1 QQ2      0.107200
     53 H322       -6.3890   -1.4380    1.7250 hx        1 QQ2      0.107200
     54 H323       -6.4720   -0.8170    3.4500 hx        1 QQ2      0.107200
     55 H33        -3.2920    2.0400    1.9170 ho        1 QQ2      0.464000
     56 H331        9.8000   -2.9460   -5.4720 hc        1 QQ2      0.052033
     57 H332        8.3530   -3.8220   -6.1240 hc        1 QQ2      0.052033
     58 H333        8.3170   -2.0170   -5.9480 hc        1 QQ2      0.052033
     59 C17         8.2320   -0.5320    0.7160 c1        1 QQ2      0.170700
     60 H301       -4.0160   -1.4460    1.8800 hn        1 QQ2      0.459800
     61 C33         8.6800   -2.9660   -5.4830 c3        1 QQ2     -0.059800
@<TRIPOS>BOND
     1    1   19 ar  
     2    1   20 ar  
     3    1   32 1   
     4    2   14 ar  
     5    2   15 ar  
     6    2   33 1   
     7    3    4 ar  
     8    3   15 ar  
     9    3   18 1   
    10    4    5 ar  
    11    4   34 1   
    12    5   14 ar  
    13    5   16 1   
    14    6    7 ar  
    15    6   10 ar  
    16    6   35 1   
    17    7    8 ar  
    18    7   61 1   
    19    8    9 ar  
    20    8   36 1   
    21    9   12 ar  
    22    9   16 1   
    23   10   12 ar  
    24   10   37 1   
    25   11   16 1   
    26   11   38 1   
    27   11   39 1   
    28   11   59 1   
    29   12   31 1   
    30   13   18 1   
    31   13   19 ar  
    32   13   22 ar  
    33   17   59 3   
    34   18   40 1   
    35   19   41 1   
    36   20   21 ar  
    37   20   23 1   
    38   21   22 ar  
    39   21   42 1   
    40   22   43 1   
    41   23   24 1   
    42   24   25 1   
    43   24   44 1   
    44   24   45 1   
    45   25   26 1   
    46   25   30 1   
    47   25   46 1   
    48   26   27 1   
    49   26   47 1   
    50   26   48 1   
    51   27   28 1   
    52   27   29 1   
    53   27   60 1   
    54   28   49 1   
    55   28   50 1   
    56   28   51 1   
    57   29   52 1   
    58   29   53 1   
    59   29   54 1   
    60   30   55 1   
    61   56   61 1   
    62   57   61 1   
    63   58   61 1   
@<TRIPOS>SUBSTRUCTURE
     1 QQ2         1 TEMP              0 ****  ****    0 ROOT
