@<TRIPOS>MOLECULE
QQ3
   41    43     1     0     0
SMALL
bcc


@<TRIPOS>ATOM
      1 C8         -0.4210   -0.6620    0.8230 c3        1 QQ3     -0.089100
      2 C7          0.9740   -0.3190    0.3630 c3        1 QQ3     -0.078400
      3 C6          1.8940   -0.0670    1.5360 c3        1 QQ3     -0.088400
      4 C5          3.3500    0.1630    1.1010 c3        1 QQ3      0.114700
      5 C12         4.2660    0.0620    2.3250 c3        1 QQ3     -0.226400
      6 C18         5.7590    0.1090    1.9740 c         1 QQ3      0.910600
      7 O4          6.5510   -0.5380    2.7090 o         1 QQ3     -0.829800
      8 O3          6.1520    0.8090    0.9850 o         1 QQ3     -0.829800
      9 N1          3.5190    1.4010    0.3500 n         1 QQ3     -0.469400
     10 C4          3.3770    2.6800    0.9700 c         1 QQ3      0.726100
     11 O1          2.5710    2.9650    1.8650 o         1 QQ3     -0.613500
     12 C3          4.3170    3.6250    0.2770 ca        1 QQ3     -0.274900
     13 C10         4.5360    5.0220    0.4210 ca        1 QQ3      0.485600
     14 C14         3.7390    5.7860    1.4290 c3        1 QQ3     -0.158400
     15 N2          5.4540    5.6580   -0.3180 nb        1 QQ3     -0.693000
     16 C11         6.2110    4.9410   -1.2150 ca        1 QQ3      0.418600
     17 C15         7.2060    5.6190   -1.9990 ca        1 QQ3     -0.191300
     18 C17         7.9850    4.9240   -2.8860 ca        1 QQ3     -0.116000
     19 C16         7.8390    3.5250   -3.0560 ca        1 QQ3     -0.159000
     20 C13         6.8980    2.8370   -2.3330 ca        1 QQ3     -0.065000
     21 C9          6.0640    3.5250   -1.4130 ca        1 QQ3     -0.117300
     22 C1          5.0760    2.8920   -0.6380 ca        1 QQ3     -0.008600
     23 C2          4.6050    1.4580   -0.6080 c         1 QQ3      0.772100
     24 O2          4.9010    0.5590   -1.3970 o         1 QQ3     -0.585500
     25 H81C       -0.8490    0.1700    1.4330 hc        1 QQ3      0.023367
     26 H82C       -0.4140   -1.5870    1.4500 hc        1 QQ3      0.023367
     27 H83C       -1.0890   -0.8370   -0.0540 hc        1 QQ3      0.023367
     28 H71C        1.3810   -1.1580   -0.2600 hc        1 QQ3      0.041700
     29 H72C        0.9370    0.5910   -0.2920 hc        1 QQ3      0.041700
     30 H61C        1.8830   -0.9600    2.2150 hc        1 QQ3      0.050200
     31 H62C        1.5300    0.8140    2.1280 hc        1 QQ3      0.050200
     32 H5          3.6430   -0.6620    0.3810 h1        1 QQ3      0.079700
     33 H121        4.0580   -0.9040    2.8490 hc        1 QQ3      0.046200
     34 H122        4.0480    0.8980    3.0370 hc        1 QQ3      0.046200
     35 H141        3.5380    6.8320    1.0940 hc        1 QQ3      0.059700
     36 H142        4.3110    5.8230    2.3910 hc        1 QQ3      0.059700
     37 H143        2.7670    5.2630    1.6160 hc        1 QQ3      0.059700
     38 H15         7.3340    6.7040   -1.8660 ha        1 QQ3      0.137000
     39 H17         8.7480    5.4500   -3.4790 ha        1 QQ3      0.120000
     40 H16         8.4950    3.0010   -3.7650 ha        1 QQ3      0.128000
     41 H13         6.7690    1.7430   -2.4230 ha        1 QQ3      0.176000
@<TRIPOS>BOND
     1    1    2 1   
     2    1   25 1   
     3    1   26 1   
     4    1   27 1   
     5    2    3 1   
     6    2   28 1   
     7    2   29 1   
     8    3    4 1   
     9    3   30 1   
    10    3   31 1   
    11    4    5 1   
    12    4    9 1   
    13    4   32 1   
    14    5    6 1   
    15    5   33 1   
    16    5   34 1   
    17    6    7 1   
    18    6    8 1   
    19    9   10 1   
    20    9   23 1   
    21   10   11 2   
    22   10   12 1   
    23   12   13 ar  
    24   12   22 ar  
    25   13   14 1   
    26   13   15 ar  
    27   14   35 1   
    28   14   36 1   
    29   14   37 1   
    30   15   16 ar  
    31   16   17 ar  
    32   16   21 ar  
    33   17   18 ar  
    34   17   38 1   
    35   18   19 ar  
    36   18   39 1   
    37   19   20 ar  
    38   19   40 1   
    39   20   21 ar  
    40   20   41 1   
    41   21   22 ar  
    42   22   23 1   
    43   23   24 2   
@<TRIPOS>SUBSTRUCTURE
     1 QQ3         1 TEMP              0 ****  ****    0 ROOT
