@<TRIPOS>MOLECULE
QQ3
   41    40     1     0     0
SMALL
bcc


@<TRIPOS>ATOM
      1 C8         -3.8190   -3.8530    0.0500 c3        1 QQ3     -0.200000
      2 C7         -2.3880   -3.4730   -0.3510 c3        1 QQ3     -0.182000
      3 C6         -1.9540   -2.2400    0.4280 c3        1 QQ3     -0.155000
      4 C5         -0.4450   -2.1350    0.4080 c3        1 QQ3      0.044000
      5 C12         0.1160   -2.6730    1.7070 c3        1 QQ3     -0.246000
      6 C18         1.0690   -3.8480    1.4090 c2        1 QQ3      0.328000
      7 O4          0.6050   -4.9420    0.9590 o         1 QQ3     -0.575000
      8 O3          2.2910   -3.7520    1.6900 o         1 QQ3     -0.575000
      9 N1         -0.0640   -0.7590    0.2560 n         1 QQ3     -0.319000
     10 C4         -0.4180    0.3030    1.1240 c2        1 QQ3      0.365000
     11 O1         -1.0850    0.2060    2.1260 o         1 QQ3     -0.298000
     12 C3          0.2210    1.5930    0.5840 c2        1 QQ3     -0.174000
     13 C10         0.2220    2.9230    1.0630 c2        1 QQ3      0.061000
     14 C14        -0.4910    3.7050    2.1610 c3        1 QQ3     -0.185000
     15 N2          0.9170    3.8980    0.3890 n1        1 QQ3     -0.151000
     16 C11         1.6220    3.5780   -0.7670 c1        1 QQ3      0.022000
     17 C15         2.3210    4.5780   -1.4630 c2        1 QQ3     -0.117000
     18 C17         3.0120    4.2620   -2.6240 c1        1 QQ3     -0.117000
     19 C16         3.0130    2.9570   -3.0970 c1        1 QQ3     -0.115000
     20 C13         2.3220    1.9660   -2.4090 c1        1 QQ3     -0.115000
     21 C9          1.6230    2.2830   -1.2370 c1        1 QQ3     -0.053000
     22 C1          0.9090    1.2800   -0.5450 c2        1 QQ3     -0.053000
     23 C2          0.7530   -0.2210   -0.7910 c2        1 QQ3      0.355000
     24 O2          1.2200   -0.8380   -1.7140 o         1 QQ3     -0.290000
     25 H81C       -3.9680   -3.6230    0.9970 hc        1 QQ3      0.057000
     26 H82C       -4.4600   -3.3610   -0.5130 hc        1 QQ3      0.057000
     27 H83C       -3.9480   -4.8180   -0.0750 hc        1 QQ3      0.057000
     28 H71C       -1.7750   -4.2270   -0.1430 hc        1 QQ3      0.116500
     29 H72C       -2.3580   -3.2820   -1.3040 hc        1 QQ3      0.116500
     30 H61C       -2.3400   -1.4450    0.0170 hc        1 QQ3      0.068500
     31 H62C       -2.2630   -2.3110    1.3500 hc        1 QQ3      0.068500
     32 H5         -0.0860   -2.6640   -0.3510 h1        1 QQ3      0.152000
     33 H121       -0.6210   -2.9860    2.2790 hc        1 QQ3      0.081000
     34 H122        0.6050   -1.9670    2.1670 hc        1 QQ3      0.081000
     35 H141       -0.0440    4.5740    2.2890 hc        1 QQ3      0.104333
     36 H142       -0.4610    3.1930    3.0030 hc        1 QQ3      0.104333
     37 H143       -1.4300    3.8550    1.9000 hc        1 QQ3      0.104333
     38 H15         2.3210    5.4990   -1.1300 ha        1 QQ3      0.145000
     39 H17         3.4200    4.9820   -3.1660 ha        1 QQ3      0.128000
     40 H16         3.5100    2.7300   -3.9320 ha        1 QQ3      0.152000
     41 H13         2.3230    1.0530   -2.7410 ha        1 QQ3      0.152000
@<TRIPOS>BOND
     1    1    2 1   
     2    1   25 1   
     3    1   26 1   
     4    1   27 1   
     5    2    3 1   
     6    2   28 1   
     7    2   29 1   
     8    3    4 1   
     9    3   30 1   
    10    3   31 1   
    11    4    5 1   
    12    4    9 1   
    13    4   32 1   
    14    5    6 1   
    15    5   33 1   
    16    5   34 1   
    17    6    7 1   
    18    6    8 1   
    19    9   10 1   
    20    9   23 1   
    21   10   11 1   
    22   10   12 1   
    23   12   13 1   
    24   12   22 1   
    25   13   14 1   
    26   13   15 1   
    27   14   35 1   
    28   14   36 1   
    29   14   37 1   
    30   16   17 1   
    31   16   21 1   
    32   17   18 1   
    33   17   38 1   
    34   18   39 1   
    35   19   20 1   
    36   19   40 1   
    37   20   41 1   
    38   21   22 1   
    39   22   23 1   
    40   23   24 1   
@<TRIPOS>SUBSTRUCTURE
     1 QQ3         1 TEMP              0 ****  ****    0 ROOT
