@<TRIPOS>MOLECULE
QQ3
   41    43     1     0     0
SMALL
bcc


@<TRIPOS>ATOM
      1 C8         -0.4240   -0.6550    0.8290 c3        1 QQ3     -0.089100
      2 C7          0.9690   -0.3130    0.3650 c3        1 QQ3     -0.078400
      3 C6          1.8950   -0.0680    1.5360 c3        1 QQ3     -0.088400
      4 C5          3.3490    0.1610    1.0950 c3        1 QQ3      0.114700
      5 C12         4.2700    0.0520    2.3150 c3        1 QQ3     -0.226400
      6 C18         5.7620    0.0980    1.9590 c         1 QQ3      0.910600
      7 O4          6.5560   -0.5530    2.6880 o         1 QQ3     -0.829800
      8 O3          6.1520    0.8010    0.9700 o         1 QQ3     -0.829800
      9 N1          3.5180    1.4020    0.3490 n         1 QQ3     -0.469400
     10 C4          3.3810    2.6780    0.9750 c         1 QQ3      0.726100
     11 O1          2.5790    2.9610    1.8740 o         1 QQ3     -0.613500
     12 C3          4.3200    3.6240    0.2830 ca        1 QQ3     -0.274900
     13 C10         4.5430    5.0200    0.4320 ca        1 QQ3      0.485600
     14 C14         3.7520    5.7810    1.4470 c3        1 QQ3     -0.158400
     15 N2          5.4590    5.6570   -0.3080 nb        1 QQ3     -0.693000
     16 C11         6.2120    4.9420   -1.2110 ca        1 QQ3      0.418600
     17 C15         7.2050    5.6220   -1.9950 ca        1 QQ3     -0.191300
     18 C17         7.9790    4.9300   -2.8890 ca        1 QQ3     -0.116000
     19 C16         7.8290    3.5310   -3.0640 ca        1 QQ3     -0.159000
     20 C13         6.8900    2.8420   -2.3410 ca        1 QQ3     -0.065000
     21 C9          6.0600    3.5280   -1.4150 ca        1 QQ3     -0.117300
     22 C1          5.0740    2.8940   -0.6390 ca        1 QQ3     -0.008600
     23 C2          4.6000    1.4600   -0.6130 c         1 QQ3      0.772100
     24 O2          4.8910    0.5640   -1.4080 o         1 QQ3     -0.585500
     25 H81C       -0.4170   -1.5820    1.4520 hc        1 QQ3      0.023367
     26 H82C       -0.8480    0.1750    1.4450 hc        1 QQ3      0.023367
     27 H83C       -1.0970   -0.8240   -0.0460 hc        1 QQ3      0.023367
     28 H71C        1.3720   -1.1500   -0.2640 hc        1 QQ3      0.041700
     29 H72C        0.9320    0.6000   -0.2860 hc        1 QQ3      0.041700
     30 H61C        1.8850   -0.9650    2.2100 hc        1 QQ3      0.050200
     31 H62C        1.5350    0.8110    2.1330 hc        1 QQ3      0.050200
     32 H5          3.6370   -0.6620    0.3700 h1        1 QQ3      0.079700
     33 H121        4.0570    0.8860    3.0310 hc        1 QQ3      0.046200
     34 H122        4.0620   -0.9160    2.8360 hc        1 QQ3      0.046200
     35 H141        2.7790    5.2600    1.6350 hc        1 QQ3      0.059700
     36 H142        3.5520    6.8290    1.1180 hc        1 QQ3      0.059700
     37 H143        4.3270    5.8120    2.4070 hc        1 QQ3      0.059700
     38 H15         7.3360    6.7060   -1.8580 ha        1 QQ3      0.137000
     39 H17         8.7410    5.4570   -3.4820 ha        1 QQ3      0.120000
     40 H16         8.4810    3.0100   -3.7780 ha        1 QQ3      0.128000
     41 H13         6.7580    1.7490   -2.4350 ha        1 QQ3      0.176000
@<TRIPOS>BOND
     1    1    2 1   
     2    1   25 1   
     3    1   26 1   
     4    1   27 1   
     5    2    3 1   
     6    2   28 1   
     7    2   29 1   
     8    3    4 1   
     9    3   30 1   
    10    3   31 1   
    11    4    5 1   
    12    4    9 1   
    13    4   32 1   
    14    5    6 1   
    15    5   33 1   
    16    5   34 1   
    17    6    7 1   
    18    6    8 1   
    19    9   10 1   
    20    9   23 1   
    21   10   11 2   
    22   10   12 1   
    23   12   13 ar  
    24   12   22 ar  
    25   13   14 1   
    26   13   15 ar  
    27   14   35 1   
    28   14   36 1   
    29   14   37 1   
    30   15   16 ar  
    31   16   17 ar  
    32   16   21 ar  
    33   17   18 ar  
    34   17   38 1   
    35   18   19 ar  
    36   18   39 1   
    37   19   20 ar  
    38   19   40 1   
    39   20   21 ar  
    40   20   41 1   
    41   21   22 ar  
    42   22   23 1   
    43   23   24 2   
@<TRIPOS>SUBSTRUCTURE
     1 QQ3         1 TEMP              0 ****  ****    0 ROOT
