@<TRIPOS>MOLECULE
QQ3
   41    43     1     0     0
SMALL
bcc


@<TRIPOS>ATOM
      1 C8          4.3970    3.3250    1.9570 c3        1 QQ3     -0.089100
      2 C7          3.3110    2.2800    1.9290 c3        1 QQ3     -0.078400
      3 C6          3.4420    1.3800    0.7200 c3        1 QQ3     -0.088400
      4 C5          2.4240    0.2300    0.7310 c3        1 QQ3      0.114700
      5 C12         2.8330   -0.8180   -0.3090 c3        1 QQ3     -0.226400
      6 C18         1.9760   -2.0900   -0.2640 c         1 QQ3      0.910600
      7 O4          2.5300   -3.1780   -0.5760 o         1 QQ3     -0.829800
      8 O3          0.7460   -2.0090    0.0580 o         1 QQ3     -0.829800
      9 N1          1.0520    0.6980    0.5760 n         1 QQ3     -0.469400
     10 C4          0.5850    1.2570   -0.6520 c         1 QQ3      0.726100
     11 O1          1.2450    1.9670   -1.4220 o         1 QQ3     -0.613500
     12 C3         -0.8690    0.9030   -0.7870 ca        1 QQ3     -0.274900
     13 C10        -1.8470    1.2580   -1.7560 ca        1 QQ3      0.485600
     14 C14        -1.4560    2.1380   -2.8990 c3        1 QQ3     -0.158400
     15 N2         -3.1030    0.8030   -1.6680 nb        1 QQ3     -0.693000
     16 C11        -3.4440   -0.0400   -0.6350 ca        1 QQ3      0.418600
     17 C15        -4.7880   -0.5400   -0.5480 ca        1 QQ3     -0.191300
     18 C17        -5.1480   -1.3950    0.4600 ca        1 QQ3     -0.116000
     19 C16        -4.2130   -1.8120    1.4410 ca        1 QQ3     -0.159000
     20 C13        -2.9210   -1.3550    1.4010 ca        1 QQ3     -0.065000
     21 C9         -2.5140   -0.4590    0.3770 ca        1 QQ3     -0.117300
     22 C1         -1.2100    0.0550    0.2690 ca        1 QQ3     -0.008600
     23 C2          0.0010   -0.1140    1.1560 c         1 QQ3      0.772100
     24 O2          0.0400   -0.6320    2.2730 o         1 QQ3     -0.585500
     25 H81C        5.4060    2.8460    2.0020 hc        1 QQ3      0.023367
     26 H82C        4.3540    3.9610    1.0390 hc        1 QQ3      0.023367
     27 H83C        4.2810    3.9850    2.8500 hc        1 QQ3      0.023367
     28 H71C        3.3600    1.6610    2.8640 hc        1 QQ3      0.041700
     29 H72C        2.3090    2.7830    1.9190 hc        1 QQ3      0.041700
     30 H61C        3.3280    1.9820   -0.2210 hc        1 QQ3      0.050200
     31 H62C        4.4670    0.9230    0.7080 hc        1 QQ3      0.050200
     32 H5          2.4540   -0.2650    1.7510 h1        1 QQ3      0.079700
     33 H121        2.7590   -0.3850   -1.3390 hc        1 QQ3      0.046200
     34 H122        3.8990   -1.1050   -0.1280 hc        1 QQ3      0.046200
     35 H141       -1.1540    1.4960   -3.7650 hc        1 QQ3      0.059700
     36 H142       -2.2970    2.7980   -3.2210 hc        1 QQ3      0.059700
     37 H143       -0.5810    2.7710   -2.6060 hc        1 QQ3      0.059700
     38 H15        -5.5180   -0.2300   -1.3110 ha        1 QQ3      0.137000
     39 H17        -6.1780   -1.7770    0.5170 ha        1 QQ3      0.120000
     40 H16        -4.5370   -2.5120    2.2240 ha        1 QQ3      0.128000
     41 H13        -2.1590   -1.6740    2.1350 ha        1 QQ3      0.176000
@<TRIPOS>BOND
     1    1    2 1   
     2    1   25 1   
     3    1   26 1   
     4    1   27 1   
     5    2    3 1   
     6    2   28 1   
     7    2   29 1   
     8    3    4 1   
     9    3   30 1   
    10    3   31 1   
    11    4    5 1   
    12    4    9 1   
    13    4   32 1   
    14    5    6 1   
    15    5   33 1   
    16    5   34 1   
    17    6    7 1   
    18    6    8 1   
    19    9   10 1   
    20    9   23 1   
    21   10   11 2   
    22   10   12 1   
    23   12   13 ar  
    24   12   22 ar  
    25   13   14 1   
    26   13   15 ar  
    27   14   35 1   
    28   14   36 1   
    29   14   37 1   
    30   15   16 ar  
    31   16   17 ar  
    32   16   21 ar  
    33   17   18 ar  
    34   17   38 1   
    35   18   19 ar  
    36   18   39 1   
    37   19   20 ar  
    38   19   40 1   
    39   20   21 ar  
    40   20   41 1   
    41   21   22 ar  
    42   22   23 1   
    43   23   24 2   
@<TRIPOS>SUBSTRUCTURE
     1 QQ3         1 TEMP              0 ****  ****    0 ROOT
