@<TRIPOS>MOLECULE
QQ3
   41    43     1     0     0
SMALL
bcc


@<TRIPOS>ATOM
      1 C8         -0.4290   -0.6520    0.8080 c3        1 QQ3     -0.089100
      2 C7          0.9680   -0.3130    0.3540 c3        1 QQ3     -0.078400
      3 C6          1.8830   -0.0580    1.5320 c3        1 QQ3     -0.088400
      4 C5          3.3410    0.1680    1.1030 c3        1 QQ3      0.114700
      5 C12         4.2510    0.0690    2.3320 c3        1 QQ3     -0.226400
      6 C18         5.7460    0.1120    1.9900 c         1 QQ3      0.910600
      7 O4          6.5330   -0.5340    2.7310 o         1 QQ3     -0.829800
      8 O3          6.1450    0.8080    1.0000 o         1 QQ3     -0.829800
      9 N1          3.5170    1.4030    0.3490 n         1 QQ3     -0.469400
     10 C4          3.3740    2.6840    0.9640 c         1 QQ3      0.726100
     11 O1          2.5630    2.9740    1.8530 o         1 QQ3     -0.613500
     12 C3          4.3190    3.6250    0.2730 ca        1 QQ3     -0.274900
     13 C10         4.5400    5.0220    0.4140 ca        1 QQ3      0.485600
     14 C14         3.7390    5.7900    1.4150 c3        1 QQ3     -0.158400
     15 N2          5.4630    5.6540   -0.3230 nb        1 QQ3     -0.693000
     16 C11         6.2240    4.9320   -1.2130 ca        1 QQ3      0.418600
     17 C15         7.2240    5.6060   -1.9940 ca        1 QQ3     -0.191300
     18 C17         8.0070    4.9070   -2.8740 ca        1 QQ3     -0.116000
     19 C16         7.8590    3.5080   -3.0400 ca        1 QQ3     -0.159000
     20 C13         6.9130    2.8240   -2.3210 ca        1 QQ3     -0.065000
     21 C9          6.0750    3.5160   -1.4070 ca        1 QQ3     -0.117300
     22 C1          5.0810    2.8880   -0.6360 ca        1 QQ3     -0.008600
     23 C2          4.6070    1.4540   -0.6030 c         1 QQ3      0.772100
     24 O2          4.9060    0.5520   -1.3880 o         1 QQ3     -0.585500
     25 H81C       -1.0930   -0.8280   -0.0720 hc        1 QQ3      0.023367
     26 H82C       -0.4270   -1.5740    1.4380 hc        1 QQ3      0.023367
     27 H83C       -0.8590    0.1830    1.4130 hc        1 QQ3      0.023367
     28 H71C        1.3780   -1.1550   -0.2640 hc        1 QQ3      0.041700
     29 H72C        0.9370    0.5950   -0.3040 hc        1 QQ3      0.041700
     30 H61C        1.8670   -0.9490    2.2130 hc        1 QQ3      0.050200
     31 H62C        1.5170    0.8250    2.1190 hc        1 QQ3      0.050200
     32 H5          3.6360   -0.6610    0.3870 h1        1 QQ3      0.079700
     33 H121        4.0380   -0.8950    2.8580 hc        1 QQ3      0.046200
     34 H122        4.0310    0.9080    3.0400 hc        1 QQ3      0.046200
     35 H141        3.5410    6.8360    1.0750 hc        1 QQ3      0.059700
     36 H142        4.3050    5.8300    2.3800 hc        1 QQ3      0.059700
     37 H143        2.7650    5.2710    1.5980 hc        1 QQ3      0.059700
     38 H15         7.3540    6.6920   -1.8640 ha        1 QQ3      0.137000
     39 H17         8.7740    5.4300   -3.4650 ha        1 QQ3      0.120000
     40 H16         8.5180    2.9800   -3.7440 ha        1 QQ3      0.128000
     41 H13         6.7820    1.7300   -2.4070 ha        1 QQ3      0.176000
@<TRIPOS>BOND
     1    1    2 1   
     2    1   25 1   
     3    1   26 1   
     4    1   27 1   
     5    2    3 1   
     6    2   28 1   
     7    2   29 1   
     8    3    4 1   
     9    3   30 1   
    10    3   31 1   
    11    4    5 1   
    12    4    9 1   
    13    4   32 1   
    14    5    6 1   
    15    5   33 1   
    16    5   34 1   
    17    6    7 1   
    18    6    8 1   
    19    9   10 1   
    20    9   23 1   
    21   10   11 2   
    22   10   12 1   
    23   12   13 ar  
    24   12   22 ar  
    25   13   14 1   
    26   13   15 ar  
    27   14   35 1   
    28   14   36 1   
    29   14   37 1   
    30   15   16 ar  
    31   16   17 ar  
    32   16   21 ar  
    33   17   18 ar  
    34   17   38 1   
    35   18   19 ar  
    36   18   39 1   
    37   19   20 ar  
    38   19   40 1   
    39   20   21 ar  
    40   20   41 1   
    41   21   22 ar  
    42   22   23 1   
    43   23   24 2   
@<TRIPOS>SUBSTRUCTURE
     1 QQ3         1 TEMP              0 ****  ****    0 ROOT
