@<TRIPOS>MOLECULE
QQQ
   27    28     1     0     0
SMALL
bcc


@<TRIPOS>ATOM
      1 O11         0.1990    0.3040    0.4790 o         1 QQQ     -0.728533
      2 S10         1.4680   -0.0470   -0.0120 s6        1 QQQ      1.406900
      3 O13         2.4130   -0.2580    1.0070 o         1 QQQ     -0.728533
      4 O12         1.4720   -0.9920   -1.0360 o         1 QQQ     -0.728533
      5 C8          2.0480    1.5470   -0.7470 cc        1 QQQ      0.342200
      6 N7          2.3970    1.7210   -2.0310 nd        1 QQQ     -0.551100
      7 C3          2.7710    3.0700   -2.1610 ca        1 QQQ      0.063400
      8 C4          3.2200    3.8070   -3.2640 ca        1 QQQ     -0.078000
      9 C5          3.5200    5.1500   -3.0870 ca        1 QQQ     -0.178000
     10 C6          3.3830    5.7770   -1.8380 ca        1 QQQ     -0.141000
     11 C1          2.9420    5.0860   -0.7190 ca        1 QQQ     -0.138000
     12 C2          2.6320    3.7280   -0.8670 ca        1 QQQ     -0.074200
     13 N9          2.1730    2.7380    0.0060 na        1 QQQ     -0.121300
     14 C14         1.8770    2.8860    1.4130 c3        1 QQQ      0.053000
     15 C15         3.1000    3.2770    2.2460 c3        1 QQQ     -0.105100
     16 C16         0.7420    3.8760    1.6870 c3        1 QQQ     -0.105100
     17 H4          3.3290    3.3230   -4.2440 ha        1 QQQ      0.132000
     18 H5          3.8730    5.7430   -3.9430 ha        1 QQQ      0.109000
     19 H6          3.6330    6.8440   -1.7470 ha        1 QQQ      0.108000
     20 H1          2.8390    5.5880    0.2520 ha        1 QQQ      0.121000
     21 H14         1.5320    1.8610    1.7700 h1        1 QQQ      0.111700
     22 H15         2.8010    3.3180    3.3210 hc        1 QQQ      0.038367
     23 H15A        3.9090    2.5170    2.1290 hc        1 QQQ      0.038367
     24 H15B        3.4940    4.2750    1.9420 hc        1 QQQ      0.038367
     25 H16         0.5400    3.8930    2.7840 hc        1 QQQ      0.038367
     26 H16A       -0.1880    3.5590    1.1580 hc        1 QQQ      0.038367
     27 H16B        1.0150    4.9060    1.3550 hc        1 QQQ      0.038367
@<TRIPOS>BOND
     1    1    2 1   
     2    2    3 1   
     3    2    4 1   
     4    2    5 1   
     5    5    6 2   
     6    5   13 1   
     7    6    7 1   
     8    7    8 ar  
     9    7   12 ar  
    10    8    9 ar  
    11    8   17 1   
    12    9   10 ar  
    13    9   18 1   
    14   10   11 ar  
    15   10   19 1   
    16   11   12 ar  
    17   11   20 1   
    18   12   13 1   
    19   13   14 1   
    20   14   15 1   
    21   14   16 1   
    22   14   21 1   
    23   15   22 1   
    24   15   23 1   
    25   15   24 1   
    26   16   25 1   
    27   16   26 1   
    28   16   27 1   
@<TRIPOS>SUBSTRUCTURE
     1 QQQ         1 TEMP              0 ****  ****    0 ROOT
