@<TRIPOS>MOLECULE
QQQ
   27    28     1     0     0
SMALL
bcc


@<TRIPOS>ATOM
      1 O11         0.1840    0.3200    0.5000 o         1 QQQ     -0.728533
      2 S10         1.4490   -0.0410    0.0040 s6        1 QQQ      1.406900
      3 O13         2.3970   -0.2550    1.0200 o         1 QQQ     -0.728533
      4 O12         1.4420   -0.9900   -1.0160 o         1 QQQ     -0.728533
      5 C8          2.0360    1.5470   -0.7390 cc        1 QQQ      0.342200
      6 N7          2.3810    1.7130   -2.0250 nd        1 QQQ     -0.551100
      7 C3          2.7630    3.0600   -2.1620 ca        1 QQQ      0.063400
      8 C4          3.2120    3.7890   -3.2690 ca        1 QQQ     -0.078000
      9 C5          3.5210    5.1310   -3.0990 ca        1 QQQ     -0.178000
     10 C6          3.3920    5.7640   -1.8520 ca        1 QQQ     -0.141000
     11 C1          2.9510    5.0800   -0.7280 ca        1 QQQ     -0.138000
     12 C2          2.6320    3.7230   -0.8700 ca        1 QQQ     -0.074200
     13 N9          2.1700    2.7400    0.0090 na        1 QQQ     -0.121300
     14 C14         1.8800    2.8950    1.4160 c3        1 QQQ      0.053000
     15 C15         3.1090    3.2810    2.2430 c3        1 QQQ     -0.105100
     16 C16         0.7530    3.8930    1.6900 c3        1 QQQ     -0.105100
     17 H4          3.3150    3.3010   -4.2470 ha        1 QQQ      0.132000
     18 H5          3.8750    5.7180   -3.9580 ha        1 QQQ      0.109000
     19 H6          3.6490    6.8300   -1.7660 ha        1 QQQ      0.108000
     20 H1          2.8550    5.5860    0.2410 ha        1 QQQ      0.121000
     21 H14         1.5300    1.8740    1.7790 h1        1 QQQ      0.111700
     22 H15         2.8140    3.3290    3.3180 hc        1 QQQ      0.038367
     23 H15A        3.9130    2.5160    2.1270 hc        1 QQQ      0.038367
     24 H15B        3.5080    4.2760    1.9340 hc        1 QQQ      0.038367
     25 H16         0.5550    3.9160    2.7880 hc        1 QQQ      0.038367
     26 H16A       -0.1810    3.5790    1.1650 hc        1 QQQ      0.038367
     27 H16B        1.0300    4.9200    1.3530 hc        1 QQQ      0.038367
@<TRIPOS>BOND
     1    1    2 1   
     2    2    3 1   
     3    2    4 1   
     4    2    5 1   
     5    5    6 2   
     6    5   13 1   
     7    6    7 1   
     8    7    8 ar  
     9    7   12 ar  
    10    8    9 ar  
    11    8   17 1   
    12    9   10 ar  
    13    9   18 1   
    14   10   11 ar  
    15   10   19 1   
    16   11   12 ar  
    17   11   20 1   
    18   12   13 1   
    19   13   14 1   
    20   14   15 1   
    21   14   16 1   
    22   14   21 1   
    23   15   22 1   
    24   15   23 1   
    25   15   24 1   
    26   16   25 1   
    27   16   26 1   
    28   16   27 1   
@<TRIPOS>SUBSTRUCTURE
     1 QQQ         1 TEMP              0 ****  ****    0 ROOT
