@<TRIPOS>MOLECULE
QQQ
   27    28     1     0     0
SMALL
bcc


@<TRIPOS>ATOM
      1 O11        -2.6710    0.2110   -1.1710 o         1 QQQ     -0.728533
      2 S10        -2.4140   -0.4970    0.0160 s6        1 QQQ      1.406900
      3 O13        -2.6760    0.2550    1.1730 o         1 QQQ     -0.728533
      4 O12        -2.8770   -1.8110    0.0400 o         1 QQQ     -0.728533
      5 C8         -0.5660   -0.5770    0.0210 cc        1 QQQ      0.342200
      6 N7          0.1550   -1.7080    0.0440 nd        1 QQQ     -0.551100
      7 C3          1.5060   -1.3160    0.0390 ca        1 QQQ      0.063400
      8 C4          2.6900   -2.0630    0.0560 ca        1 QQQ     -0.078000
      9 C5          3.9020   -1.3880    0.0450 ca        1 QQQ     -0.178000
     10 C6          3.9620    0.0150    0.0190 ca        1 QQQ     -0.141000
     11 C1          2.8160    0.7950    0.0020 ca        1 QQQ     -0.138000
     12 C2          1.5770    0.1410    0.0120 ca        1 QQQ     -0.074200
     13 N9          0.2500    0.5780    0.0010 na        1 QQQ     -0.121300
     14 C14        -0.2170    1.9450   -0.0260 c3        1 QQQ      0.053000
     15 C15         0.2040    2.7480    1.2080 c3        1 QQQ     -0.105100
     16 C16         0.2090    2.7000   -1.2880 c3        1 QQQ     -0.105100
     17 H4          2.6490   -3.1610    0.0760 ha        1 QQQ      0.132000
     18 H5          4.8400   -1.9600    0.0580 ha        1 QQQ      0.109000
     19 H6          4.9470    0.5050    0.0120 ha        1 QQQ      0.108000
     20 H1          2.8770    1.8910   -0.0190 ha        1 QQQ      0.121000
     21 H14        -1.3540    1.8890   -0.0270 h1        1 QQQ      0.111700
     22 H15         1.3140    2.8380    1.2720 hc        1 QQQ      0.038367
     23 H15A       -0.2380    3.7700    1.1360 hc        1 QQQ      0.038367
     24 H15B       -0.1750    2.2590    2.1380 hc        1 QQQ      0.038367
     25 H16        -0.2330    3.7250   -1.2570 hc        1 QQQ      0.038367
     26 H16A        1.3190    2.7880   -1.3520 hc        1 QQQ      0.038367
     27 H16B       -0.1670    2.1770   -2.2000 hc        1 QQQ      0.038367
@<TRIPOS>BOND
     1    1    2 1   
     2    2    3 1   
     3    2    4 1   
     4    2    5 1   
     5    5    6 2   
     6    5   13 1   
     7    6    7 1   
     8    7    8 ar  
     9    7   12 ar  
    10    8    9 ar  
    11    8   17 1   
    12    9   10 ar  
    13    9   18 1   
    14   10   11 ar  
    15   10   19 1   
    16   11   12 ar  
    17   11   20 1   
    18   12   13 1   
    19   13   14 1   
    20   14   15 1   
    21   14   16 1   
    22   14   21 1   
    23   15   22 1   
    24   15   23 1   
    25   15   24 1   
    26   16   25 1   
    27   16   26 1   
    28   16   27 1   
@<TRIPOS>SUBSTRUCTURE
     1 QQQ         1 TEMP              0 ****  ****    0 ROOT
