@<TRIPOS>MOLECULE
QQV
   53    55     1     0     0
SMALL
bcc


@<TRIPOS>ATOM
      1 O12        -1.4460   -3.2340   -0.4510 o         1 QQV     -0.649300
      2 S1         -1.8460   -1.9770   -0.9310 sy        1 QQV      1.377300
      3 O11        -1.8330   -1.7810   -2.3200 o         1 QQV     -0.649300
      4 C13        -3.3470   -1.5790   -0.3080 ca        1 QQV     -0.389500
      5 C24        -4.2100   -0.7200   -1.0020 ca        1 QQV     -0.015500
      6 C27        -5.4710   -0.4120   -0.4990 ca        1 QQV     -0.154500
      7 C28        -5.8900   -0.9660    0.7120 ca        1 QQV     -0.063000
      8 C26        -5.0470   -1.8300    1.4120 ca        1 QQV     -0.154500
      9 C25        -3.7880   -2.1330    0.9020 ca        1 QQV     -0.015500
     10 C4         -0.8750   -0.7730   -0.1560 c3        1 QQV     -0.279900
     11 C7         -0.8870    0.5920   -0.8350 c3        1 QQV     -0.047400
     12 C6          0.5930   -1.1880   -0.0950 c3        1 QQV     -0.036400
     13 C2          1.4010    0.1080   -0.0570 c3        1 QQV     -0.122700
     14 C5          0.5230    1.1780   -0.7210 c3        1 QQV     -0.130700
     15 C9          0.5030    2.4730    0.0840 c         1 QQV      0.661100
     16 N17        -0.0460    3.5800   -0.5500 n         1 QQV     -0.536900
     17 C21        -0.3340    4.7840    0.1720 c3        1 QQV      0.023700
     18 C14        -1.7750    5.0130    0.5880 c2        1 QQV      0.404200
     19 N10        -2.7450    4.2580    0.2440 n2        1 QQV     -0.779100
     20 O16         0.9990    2.5630    1.2250 o         1 QQV     -0.615100
     21 C3          2.7370   -0.0590   -0.7710 c         1 QQV      0.665100
     22 O15         2.9540    0.5000   -1.8660 o         1 QQV     -0.609100
     23 N8          3.6970   -0.9070   -0.2310 n         1 QQV     -0.459800
     24 C19         4.9990   -1.0150   -0.8640 c3        1 QQV      0.049500
     25 C23         6.1420   -0.4870    0.0130 c3        1 QQV      0.101400
     26 O18         6.1040   -1.0440    1.3240 os        1 QQV     -0.412600
     27 C22         4.8560   -0.8310    1.9700 c3        1 QQV      0.101400
     28 C20         3.6860   -1.3780    1.1350 c3        1 QQV      0.049500
     29 HXT        -1.8670    5.9240    1.2220 h4        1 QQV     -0.032200
     30 H4         -1.2260   -0.6280    0.9040 h1        1 QQV      0.113700
     31 H24        -3.8810   -0.2950   -1.9680 ha        1 QQV      0.155000
     32 H25        -3.1270   -2.8330    1.4460 ha        1 QQV      0.155000
     33 H27        -6.1350    0.2640   -1.0570 ha        1 QQV      0.143500
     34 H28        -6.8870   -0.7240    1.1120 ha        1 QQV      0.139000
     35 H26        -5.3780   -2.2750    2.3620 ha        1 QQV      0.143500
     36 H71C       -1.1550    0.4800   -1.9210 hc        1 QQV      0.070200
     37 H72C       -1.6510    1.2580   -0.3600 hc        1 QQV      0.070200
     38 H61C        0.7930   -1.8190    0.8060 hc        1 QQV      0.067200
     39 H62C        0.8600   -1.7920   -1.0020 hc        1 QQV      0.067200
     40 H5          0.9250    1.4030   -1.7520 hc        1 QQV      0.116700
     41 H2          1.5910    0.4150    1.0110 hc        1 QQV      0.103700
     42 H17        -0.5990    3.4110   -1.3600 hn        1 QQV      0.313500
     43 H211        0.2960    4.8100    1.1100 h1        1 QQV      0.081700
     44 H212       -0.0420    5.6590   -0.4810 h1        1 QQV      0.081700
     45 H10        -3.6450    4.5260    0.5870 hn        1 QQV      0.389400
     46 H191        5.1780   -2.1090   -1.0730 h1        1 QQV      0.068700
     47 H192        5.0000   -0.4570   -1.8420 h1        1 QQV      0.068700
     48 H201        2.7250   -1.1150    1.6520 h1        1 QQV      0.068700
     49 H202        3.7690   -2.5030    1.1010 h1        1 QQV      0.068700
     50 H231        7.1300   -0.8190   -0.4010 h1        1 QQV      0.058200
     51 H232        6.1100    0.6320    0.0820 h1        1 QQV      0.058200
     52 H221        4.9380   -1.3990    2.9330 h1        1 QQV      0.058200
     53 H222        4.7210    0.2640    2.1780 h1        1 QQV      0.058200
@<TRIPOS>BOND
     1    1    2 2   
     2    2    3 2   
     3    2    4 1   
     4    2   10 1   
     5    4    5 ar  
     6    4    9 ar  
     7    5    6 ar  
     8    5   31 1   
     9    6    7 ar  
    10    6   33 1   
    11    7    8 ar  
    12    7   34 1   
    13    8    9 ar  
    14    8   35 1   
    15    9   32 1   
    16   10   11 1   
    17   10   12 1   
    18   10   30 1   
    19   11   14 1   
    20   11   36 1   
    21   11   37 1   
    22   12   13 1   
    23   12   38 1   
    24   12   39 1   
    25   13   14 1   
    26   13   21 1   
    27   13   41 1   
    28   14   15 1   
    29   14   40 1   
    30   15   16 1   
    31   15   20 2   
    32   16   17 1   
    33   16   42 1   
    34   17   18 1   
    35   17   43 1   
    36   17   44 1   
    37   18   19 2   
    38   18   29 1   
    39   19   45 1   
    40   21   22 2   
    41   21   23 1   
    42   23   24 1   
    43   23   28 1   
    44   24   25 1   
    45   24   46 1   
    46   24   47 1   
    47   25   26 1   
    48   25   50 1   
    49   25   51 1   
    50   26   27 1   
    51   27   28 1   
    52   27   52 1   
    53   27   53 1   
    54   28   48 1   
    55   28   49 1   
@<TRIPOS>SUBSTRUCTURE
     1 QQV         1 TEMP              0 ****  ****    0 ROOT
