@<TRIPOS>MOLECULE
QQV
   54    56     1     0     0
SMALL
bcc


@<TRIPOS>ATOM
      1 O12         1.4430   -1.0390   -0.1120 o         1 QQV     -0.649800
      2 S1          2.3200    0.0380    0.0500 sy        1 QQV      1.379300
      3 O11         3.6980   -0.2090   -0.1060 o         1 QQV     -0.649800
      4 C13         1.8350    1.3630   -0.8030 ca        1 QQV     -0.429500
      5 C24         2.7650    2.3030   -1.2780 ca        1 QQV     -0.012500
      6 C27         2.3580    3.3950   -2.0350 ca        1 QQV     -0.148500
      7 C28         1.0060    3.5670   -2.3380 ca        1 QQV     -0.040000
      8 C26         0.0670    2.6390   -1.8830 ca        1 QQV     -0.148500
      9 C25         0.4810    1.5480   -1.1260 ca        1 QQV     -0.012500
     10 C4          2.1300    0.6320    1.7030 c3        1 QQV     -0.263900
     11 C7          3.3990    1.3070    2.2090 c3        1 QQV     -0.035400
     12 C6          1.8330   -0.5030    2.6840 c3        1 QQV     -0.050400
     13 C2          3.0380   -0.6330    3.6260 c3        1 QQV     -0.125700
     14 C5          4.1470    0.1770    2.9260 c3        1 QQV     -0.146700
     15 C9          5.1680    0.6970    3.8950 c         1 QQV      0.572100
     16 N17         6.4690   -0.0770    3.9060 ny        1 QQV     -0.678800
     17 C21         7.4850    0.4180    4.8730 c3        1 QQV     -0.003500
     18 C14         8.1780    1.6830    4.3960 c2        1 QQV      0.381200
     19 N10         7.8150    2.8880    4.5590 n2        1 QQV     -0.672100
     20 O16         5.0730    1.6410    4.6650 o         1 QQV     -0.435100
     21 C3          3.5070   -2.0610    3.8860 c         1 QQV      0.673100
     22 O15         4.7390   -2.3130    3.7690 o         1 QQV     -0.715100
     23 N8          2.6410   -3.0400    4.2780 n         1 QQV     -0.422800
     24 C19         3.0860   -4.4250    4.3440 c3        1 QQV      0.045000
     25 C23         2.4820   -5.1910    5.5270 c3        1 QQV      0.111900
     26 O18         1.0700   -5.0310    5.5800 os        1 QQV     -0.389600
     27 C22         0.6930   -3.6690    5.6970 c3        1 QQV      0.111900
     28 C20         1.2320   -2.8220    4.5310 c3        1 QQV      0.045000
     29 HXT         9.1400    1.4970    3.8710 h4        1 QQV      0.050800
     30 H4          1.2860    1.3720    1.7400 h1        1 QQV      0.127700
     31 H24         3.8380    2.1540   -1.0600 ha        1 QQV      0.153500
     32 H25        -0.2610    0.8010   -0.7890 ha        1 QQV      0.153500
     33 H27         3.1020    4.1190   -2.4030 ha        1 QQV      0.156500
     34 H28         0.6810    4.4310   -2.9410 ha        1 QQV      0.155000
     35 H26        -0.9990    2.7650   -2.1310 ha        1 QQV      0.156500
     36 H71C        3.1580    2.1360    2.9210 hc        1 QQV      0.079200
     37 H72C        4.0110    1.7250    1.3700 hc        1 QQV      0.079200
     38 H61C        1.6400   -1.4650    2.1380 hc        1 QQV      0.086200
     39 H62C        0.9120   -0.2640    3.2750 hc        1 QQV      0.086200
     40 H5          4.6290   -0.4790    2.1370 hc        1 QQV      0.138700
     41 H2          2.7910   -0.1630    4.6180 hc        1 QQV      0.092700
     42 H17         6.8570   -0.0580    2.9550 hn        1 QQV      0.486800
     43 H211        8.2540   -0.3980    5.0070 hx        1 QQV      0.116700
     44 H212        6.9730    0.5900    5.8650 hx        1 QQV      0.116700
     45 H10         6.9590    3.0730    5.0430 hn        1 QQV      0.416400
     46 H191        2.7770   -4.9310    3.3840 h1        1 QQV      0.072950
     47 H192        4.2090   -4.4570    4.4210 h1        1 QQV      0.072950
     48 H201        0.6550   -3.0800    3.5960 h1        1 QQV      0.072950
     49 H202        1.0480   -1.7410    4.7840 h1        1 QQV      0.072950
     50 H231        2.9400   -4.8620    6.4960 h1        1 QQV      0.069950
     51 H232        2.6340   -6.2940    5.3820 h1        1 QQV      0.069950
     52 H221       -0.4290   -3.6820    5.6630 h1        1 QQV      0.069950
     53 H222        1.0470   -3.2570    6.6790 h1        1 QQV      0.069950
     54 H172        6.2290   -1.0670    4.1260 hn        1 QQV      0.486800
@<TRIPOS>BOND
     1    1    2 2   
     2    2    3 2   
     3    2    4 1   
     4    2   10 1   
     5    4    5 ar  
     6    4    9 ar  
     7    5    6 ar  
     8    5   31 1   
     9    6    7 ar  
    10    6   33 1   
    11    7    8 ar  
    12    7   34 1   
    13    8    9 ar  
    14    8   35 1   
    15    9   32 1   
    16   10   11 1   
    17   10   12 1   
    18   10   30 1   
    19   11   14 1   
    20   11   36 1   
    21   11   37 1   
    22   12   13 1   
    23   12   38 1   
    24   12   39 1   
    25   13   14 1   
    26   13   21 1   
    27   13   41 1   
    28   14   15 1   
    29   14   40 1   
    30   15   16 1   
    31   15   20 2   
    32   16   17 1   
    33   16   42 1   
    34   16   54 1   
    35   17   18 1   
    36   17   43 1   
    37   17   44 1   
    38   18   19 2   
    39   18   29 1   
    40   19   45 1   
    41   21   22 2   
    42   21   23 1   
    43   23   24 1   
    44   23   28 1   
    45   24   25 1   
    46   24   46 1   
    47   24   47 1   
    48   25   26 1   
    49   25   50 1   
    50   25   51 1   
    51   26   27 1   
    52   27   28 1   
    53   27   52 1   
    54   27   53 1   
    55   28   48 1   
    56   28   49 1   
@<TRIPOS>SUBSTRUCTURE
     1 QQV         1 TEMP              0 ****  ****    0 ROOT
