@<TRIPOS>MOLECULE
QQV
   54    56     1     0     0
SMALL
bcc


@<TRIPOS>ATOM
      1 O12         1.5860   -1.0810   -0.2250 o         1 QQV     -0.649800
      2 S1          2.3020    0.1030   -0.0220 sy        1 QQV      1.379300
      3 O11         3.7050    0.0480   -0.1270 o         1 QQV     -0.649800
      4 C13         1.6730    1.3600   -0.8870 ca        1 QQV     -0.428500
      5 C24         2.4830    2.4230   -1.3180 ca        1 QQV     -0.012500
      6 C27         1.9600    3.4580   -2.0850 ca        1 QQV     -0.148500
      7 C28         0.6090    3.4460   -2.4410 ca        1 QQV     -0.040000
      8 C26        -0.2100    2.3930   -2.0290 ca        1 QQV     -0.148500
      9 C25         0.3200    1.3610   -1.2620 ca        1 QQV     -0.012500
     10 C4          1.9700    0.6490    1.6250 c3        1 QQV     -0.263900
     11 C7          3.1230    1.4680    2.1920 c3        1 QQV     -0.035400
     12 C6          1.7730   -0.5250    2.5850 c3        1 QQV     -0.050400
     13 C2          2.9420   -0.5190    3.5790 c3        1 QQV     -0.126700
     14 C5          3.9730    0.4320    2.9360 c3        1 QQV     -0.145700
     15 C9          4.8740    1.0640    3.9560 c         1 QQV      0.568100
     16 N17         6.2550    0.4470    4.0330 n4        1 QQV     -0.677800
     17 C21         7.1350    1.0680    5.0550 c3        1 QQV     -0.006500
     18 C14         8.4850    0.3790    5.1400 c2        1 QQV      0.386200
     19 N10         9.6300    0.9140    5.2500 n2        1 QQV     -0.669100
     20 O16         4.6340    1.9870    4.7180 o         1 QQV     -0.419100
     21 C3          3.5700   -1.8820    3.8480 c         1 QQV      0.672100
     22 O15         4.8270   -1.9830    3.7790 o         1 QQV     -0.714100
     23 N8          2.8130   -2.9630    4.1980 n         1 QQV     -0.423800
     24 C19         3.4180   -4.2850    4.2710 c3        1 QQV      0.045000
     25 C23         2.8640   -5.1330    5.4220 c3        1 QQV      0.111900
     26 O18         1.4420   -5.1440    5.4170 os        1 QQV     -0.389600
     27 C22         0.8990   -3.8390    5.5290 c3        1 QQV      0.111900
     28 C20         1.3790   -2.9180    4.3930 c3        1 QQV      0.045000
     29 HXT         8.4420   -0.7330    5.1550 h4        1 QQV      0.043800
     30 H4          1.0410    1.2790    1.6310 h1        1 QQV      0.127700
     31 H24         3.5570    2.4200   -1.0580 ha        1 QQV      0.153000
     32 H25        -0.3250    0.5160   -0.9590 ha        1 QQV      0.153000
     33 H27         2.6110    4.2800   -2.4200 ha        1 QQV      0.156500
     34 H28         0.1930    4.2630   -3.0520 ha        1 QQV      0.155000
     35 H26        -1.2730    2.3750   -2.3180 ha        1 QQV      0.156500
     36 H71C        2.7510    2.2540    2.8970 hc        1 QQV      0.079200
     37 H72C        3.7160    1.9670    1.3830 hc        1 QQV      0.079200
     38 H61C        0.8050   -0.4080    3.1350 hc        1 QQV      0.086700
     39 H62C        1.7230   -1.4970    2.0240 hc        1 QQV      0.086700
     40 H5          4.5690   -0.1500    2.1680 hc        1 QQV      0.137700
     41 H2          2.5960   -0.0950    4.5630 hc        1 QQV      0.092700
     42 H17         6.1300   -0.5670    4.2380 hn        1 QQV      0.483800
     43 H211        6.6230    0.9850    6.0600 hx        1 QQV      0.115700
     44 H212        7.2340    2.1650    4.8100 hx        1 QQV      0.115700
     45 H10         9.7030    1.9110    5.2570 hn        1 QQV      0.412400
     46 H191        3.2120   -4.8130    3.2950 h1        1 QQV      0.072950
     47 H192        4.5330   -4.1840    4.3940 h1        1 QQV      0.072950
     48 H201        0.8750   -3.2320    3.4330 h1        1 QQV      0.072950
     49 H202        1.0560   -1.8700    4.6460 h1        1 QQV      0.072950
     50 H231        3.1530   -6.2080    5.2740 h1        1 QQV      0.069950
     51 H232        3.2390   -4.7640    6.4120 h1        1 QQV      0.069950
     52 H221       -0.2110   -3.9860    5.4490 h1        1 QQV      0.069950
     53 H222        1.1610   -3.4000    6.5280 h1        1 QQV      0.069950
     54 H172        6.6930    0.5160    3.1070 hn        1 QQV      0.483800
@<TRIPOS>BOND
     1    1    2 2   
     2    2    3 2   
     3    2    4 1   
     4    2   10 1   
     5    4    5 ar  
     6    4    9 ar  
     7    5    6 ar  
     8    5   31 1   
     9    6    7 ar  
    10    6   33 1   
    11    7    8 ar  
    12    7   34 1   
    13    8    9 ar  
    14    8   35 1   
    15    9   32 1   
    16   10   11 1   
    17   10   12 1   
    18   10   30 1   
    19   11   14 1   
    20   11   36 1   
    21   11   37 1   
    22   12   13 1   
    23   12   38 1   
    24   12   39 1   
    25   13   14 1   
    26   13   21 1   
    27   13   41 1   
    28   14   15 1   
    29   14   40 1   
    30   15   16 1   
    31   15   20 2   
    32   16   17 1   
    33   16   42 1   
    34   16   54 1   
    35   17   18 1   
    36   17   43 1   
    37   17   44 1   
    38   18   19 2   
    39   18   29 1   
    40   19   45 1   
    41   21   22 2   
    42   21   23 1   
    43   23   24 1   
    44   23   28 1   
    45   24   25 1   
    46   24   46 1   
    47   24   47 1   
    48   25   26 1   
    49   25   50 1   
    50   25   51 1   
    51   26   27 1   
    52   27   28 1   
    53   27   52 1   
    54   27   53 1   
    55   28   48 1   
    56   28   49 1   
@<TRIPOS>SUBSTRUCTURE
     1 QQV         1 TEMP              0 ****  ****    0 ROOT
