@<TRIPOS>MOLECULE
QQV
   53    50     1     0     0
SMALL
bcc


@<TRIPOS>ATOM
      1 O12        -1.4610    1.5300   -1.4910 o         1 QQV     -0.927500
      2 S1         -0.0370    1.7290   -1.4240 ss        1 QQV      2.840000
      3 O11         0.4370    0.6280   -2.2180 o         1 QQV     -0.927500
      4 C13         0.4360    3.3050   -2.1470 c1        1 QQV     -0.837000
      5 C24         1.3610    3.3420   -3.1800 c2        1 QQV     -0.016000
      6 C27         1.6510    4.5430   -3.8090 c1        1 QQV     -0.154000
      7 C28         1.0170    5.7100   -3.4040 c1        1 QQV     -0.107000
      8 C26         0.0930    5.6750   -2.3730 c1        1 QQV     -0.107000
      9 C25        -0.1980    4.4720   -1.7430 c1        1 QQV     -0.018000
     10 C4          0.5390    1.6200    0.2110 c2        1 QQV     -0.778000
     11 C7          1.5890    0.7920    0.2560 c3        1 QQV     -0.121000
     12 C6         -0.6140    0.8580    1.1490 c3        1 QQV     -0.115000
     13 C2         -0.5580   -0.4510    0.9060 c3        1 QQV     -0.113000
     14 C5          1.0240   -0.6870    0.4840 c3        1 QQV     -0.119000
     15 C9          1.7740   -1.4550    1.4440 c2        1 QQV      0.306000
     16 N17         3.1020   -1.9270    1.1150 n         1 QQV     -0.381000
     17 C21         3.9860   -2.4050    2.1700 c3        1 QQV     -0.048000
     18 C14         5.4090   -2.4680    1.6470 c2        1 QQV     -0.091000
     19 N10         6.4180   -2.2340    2.4570 n1        1 QQV     -0.219000
     20 O16         1.3090   -1.6670    2.5470 o         1 QQV     -0.382000
     21 C3         -1.6030   -0.9490   -0.1920 c2        1 QQV      0.316000
     22 O15        -1.6070   -0.4470   -1.2980 o         1 QQV     -0.375000
     23 N8         -2.5530   -1.9930    0.1320 n         1 QQV     -0.326000
     24 C19        -3.6360   -2.6280   -0.7170 c3        1 QQV     -0.056500
     25 C23        -5.0210   -2.4160   -0.1360 c3        1 QQV     -0.034500
     26 O18        -4.9500   -2.0830    1.1220 os        1 QQV     -0.271000
     27 C22        -4.1310   -2.5570    2.0120 c3        1 QQV     -0.034500
     28 C20        -2.7510   -2.7690    1.4190 c3        1 QQV     -0.056500
     29 HXT         5.5750   -2.6810    0.7120 h4        1 QQV      0.142000
     30 H4          0.7130    2.5650    0.4070 ha        1 QQV      0.154000
     31 H24         1.8060    2.5230   -3.4650 ha        1 QQV      0.156000
     32 H25        -0.8500    4.4470   -1.0150 ha        1 QQV      0.153000
     33 H27         2.3030    4.5680   -4.5370 ha        1 QQV      0.145000
     34 H28         1.2220    6.5590   -3.8490 ha        1 QQV      0.143000
     35 H26        -0.3540    6.4970   -2.0870 ha        1 QQV      0.143000
     36 H71C        2.1740    1.0400    0.9940 hc        1 QQV      0.106000
     37 H72C        2.0820    0.8350   -0.5890 hc        1 QQV      0.106000
     38 H61C       -0.4320    1.0250    2.0940 hc        1 QQV      0.109000
     39 H62C       -1.5010    1.1970    0.9200 hc        1 QQV      0.109000
     40 H5          1.1090   -1.2370   -0.3200 hc        1 QQV      0.150000
     41 H2         -0.8150   -0.9810    1.6830 hc        1 QQV      0.143000
     42 H17         3.3660   -1.9760    0.2430 hn        1 QQV      0.233000
     43 H211        3.7030   -3.2990    2.4530 h1        1 QQV      0.110000
     44 H212        3.9450   -1.7950    2.9310 h1        1 QQV      0.110000
     45 H10         6.2610   -2.0330    3.3370 DU        1 QQV      0.157000
     46 H191       -3.4640   -3.5920   -0.7850 h1        1 QQV      0.100750
     47 H192       -3.6060   -2.2380   -1.6120 h1        1 QQV      0.100750
     48 H201       -2.6290   -3.7210    1.2360 h1        1 QQV      0.100750
     49 H202       -2.0800   -2.4820    2.0680 h1        1 QQV      0.100750
     50 H231       -5.4750   -1.7010   -0.6340 h1        1 QQV      0.096000
     51 H232       -5.5390   -3.2490   -0.2210 h1        1 QQV      0.096000
     52 H221       -4.4750   -3.4140    2.3440 h1        1 QQV      0.096000
     53 H222       -4.0670   -1.9290    2.7530 h1        1 QQV      0.096000
@<TRIPOS>BOND
     1    1    2 1   
     2    2    3 1   
     3    4    5 1   
     4    4    9 1   
     5    5    6 1   
     6    5   31 1   
     7    6   33 1   
     8    7    8 1   
     9    7   34 1   
    10    8   35 1   
    11    9   32 1   
    12   10   11 1   
    13   10   12 1   
    14   10   30 1   
    15   11   14 1   
    16   11   36 1   
    17   11   37 1   
    18   12   13 1   
    19   12   38 1   
    20   12   39 1   
    21   13   14 1   
    22   13   21 1   
    23   13   41 1   
    24   14   15 1   
    25   14   40 1   
    26   15   16 1   
    27   15   20 1   
    28   16   17 1   
    29   16   42 1   
    30   17   18 1   
    31   17   43 1   
    32   17   44 1   
    33   18   19 1   
    34   18   29 1   
    35   21   22 1   
    36   21   23 1   
    37   23   24 1   
    38   23   28 1   
    39   24   25 1   
    40   24   46 1   
    41   24   47 1   
    42   25   26 1   
    43   25   50 1   
    44   25   51 1   
    45   26   27 1   
    46   27   28 1   
    47   27   52 1   
    48   27   53 1   
    49   28   48 1   
    50   28   49 1   
@<TRIPOS>SUBSTRUCTURE
     1 QQV         1 TEMP              0 ****  ****    0 ROOT
