@<TRIPOS>MOLECULE
QQV
   54    56     1     0     0
SMALL
bcc


@<TRIPOS>ATOM
      1 O12         1.5600   -1.0880   -0.2090 o         1 QQV     -0.649800
      2 S1          2.2830    0.0930   -0.0180 sy        1 QQV      1.379300
      3 O11         3.6850    0.0300   -0.1330 o         1 QQV     -0.649800
      4 C13         1.6540    1.3480   -0.8840 ca        1 QQV     -0.428500
      5 C24         2.4660    2.4050   -1.3270 ca        1 QQV     -0.012500
      6 C27         1.9420    3.4390   -2.0950 ca        1 QQV     -0.148500
      7 C28         0.5890    3.4320   -2.4410 ca        1 QQV     -0.040000
      8 C26        -0.2330    2.3860   -2.0180 ca        1 QQV     -0.148500
      9 C25         0.2980    1.3550   -1.2500 ca        1 QQV     -0.012500
     10 C4          1.9660    0.6490    1.6290 c3        1 QQV     -0.263900
     11 C7          3.1270    1.4660    2.1830 c3        1 QQV     -0.035400
     12 C6          1.7710   -0.5200    2.5960 c3        1 QQV     -0.050400
     13 C2          2.9480   -0.5130    3.5810 c3        1 QQV     -0.126700
     14 C5          3.9780    0.4290    2.9260 c3        1 QQV     -0.145700
     15 C9          4.8900    1.0630    3.9350 c         1 QQV      0.568100
     16 N17         6.2680    0.4400    4.0040 n4        1 QQV     -0.677800
     17 C21         7.1590    1.0620    5.0170 c3        1 QQV     -0.006500
     18 C14         8.5070    0.3680    5.0940 c2        1 QQV      0.386200
     19 N10         9.6550    0.8990    5.1930 n2        1 QQV     -0.669100
     20 O16         4.6590    1.9900    4.6940 o         1 QQV     -0.419100
     21 C3          3.5720   -1.8780    3.8520 c         1 QQV      0.672100
     22 O15         4.8280   -1.9850    3.7740 o         1 QQV     -0.714100
     23 N8          2.8130   -2.9540    4.2140 n         1 QQV     -0.423800
     24 C19         3.4140   -4.2780    4.2890 c3        1 QQV      0.045000
     25 C23         2.8650   -5.1180    5.4490 c3        1 QQV      0.111900
     26 O18         1.4420   -5.1230    5.4560 os        1 QQV     -0.389600
     27 C22         0.9060   -3.8140    5.5640 c3        1 QQV      0.111900
     28 C20         1.3810   -2.9020    4.4200 c3        1 QQV      0.045000
     29 HXT         8.4590   -0.7440    5.1150 h4        1 QQV      0.043800
     30 H4          1.0390    1.2820    1.6380 h1        1 QQV      0.127700
     31 H24         3.5420    2.3980   -1.0750 ha        1 QQV      0.153000
     32 H25        -0.3490    0.5140   -0.9380 ha        1 QQV      0.153000
     33 H27         2.5950    4.2560   -2.4380 ha        1 QQV      0.156500
     34 H28         0.1720    4.2490   -3.0530 ha        1 QQV      0.155000
     35 H26        -1.2980    2.3710   -2.2990 ha        1 QQV      0.156500
     36 H71C        3.7150    1.9580    1.3670 hc        1 QQV      0.079200
     37 H72C        2.7630    2.2570    2.8870 hc        1 QQV      0.079200
     38 H61C        0.8070   -0.3960    3.1540 hc        1 QQV      0.086700
     39 H62C        1.7120   -1.4950    2.0410 hc        1 QQV      0.086700
     40 H5          4.5650   -0.1590    2.1550 hc        1 QQV      0.137700
     41 H2          2.6110   -0.0840    4.5650 hc        1 QQV      0.092700
     42 H17         6.7000    0.5030    3.0750 hn        1 QQV      0.483800
     43 H211        7.2610    2.1580    4.7660 hx        1 QQV      0.115700
     44 H212        6.6540    0.9870    6.0250 hx        1 QQV      0.115700
     45 H10         9.7320    1.8950    5.1950 hn        1 QQV      0.412400
     46 H191        3.1970   -4.8100    3.3180 h1        1 QQV      0.072950
     47 H192        4.5300   -4.1810    4.4030 h1        1 QQV      0.072950
     48 H201        0.8690   -3.2190    3.4650 h1        1 QQV      0.072950
     49 H202        1.0650   -1.8510    4.6700 h1        1 QQV      0.072950
     50 H231        3.2490   -4.7450    6.4340 h1        1 QQV      0.069950
     51 H232        3.1480   -6.1950    5.3040 h1        1 QQV      0.069950
     52 H221       -0.2050   -3.9570    5.4940 h1        1 QQV      0.069950
     53 H222        1.1780   -3.3720    6.5590 h1        1 QQV      0.069950
     54 H172        6.1410   -0.5720    4.2150 hn        1 QQV      0.483800
@<TRIPOS>BOND
     1    1    2 2   
     2    2    3 2   
     3    2    4 1   
     4    2   10 1   
     5    4    5 ar  
     6    4    9 ar  
     7    5    6 ar  
     8    5   31 1   
     9    6    7 ar  
    10    6   33 1   
    11    7    8 ar  
    12    7   34 1   
    13    8    9 ar  
    14    8   35 1   
    15    9   32 1   
    16   10   11 1   
    17   10   12 1   
    18   10   30 1   
    19   11   14 1   
    20   11   36 1   
    21   11   37 1   
    22   12   13 1   
    23   12   38 1   
    24   12   39 1   
    25   13   14 1   
    26   13   21 1   
    27   13   41 1   
    28   14   15 1   
    29   14   40 1   
    30   15   16 1   
    31   15   20 2   
    32   16   17 1   
    33   16   42 1   
    34   16   54 1   
    35   17   18 1   
    36   17   43 1   
    37   17   44 1   
    38   18   19 2   
    39   18   29 1   
    40   19   45 1   
    41   21   22 2   
    42   21   23 1   
    43   23   24 1   
    44   23   28 1   
    45   24   25 1   
    46   24   46 1   
    47   24   47 1   
    48   25   26 1   
    49   25   50 1   
    50   25   51 1   
    51   26   27 1   
    52   27   28 1   
    53   27   52 1   
    54   27   53 1   
    55   28   48 1   
    56   28   49 1   
@<TRIPOS>SUBSTRUCTURE
     1 QQV         1 TEMP              0 ****  ****    0 ROOT
