@<TRIPOS>MOLECULE
QQX
   35    38     1     0     0
SMALL
bcc


@<TRIPOS>ATOM
      1 OP3         1.3520   -0.7920   -1.0120 oh        1 QQX     -0.723400
      2 S1P        -0.2270    1.5430   -1.8480 s         1 QQX     -0.459000
      3 O5'         6.8430    0.2580    1.0000 oh        1 QQX     -0.600800
      4 C5'         6.0170    1.0770    0.2020 c3        1 QQX      0.113400
      5 C4'         4.6430    0.4390   -0.0120 c3        1 QQX      0.067100
      6 O4'         4.3040   -0.3820    1.1220 os        1 QQX     -0.391600
      7 C3'         3.5360    1.4940   -0.1830 c3        1 QQX      0.127100
      8 O3'         2.7240    1.2160   -1.2970 os        1 QQX     -0.495200
      9 C2'         2.6400    1.3650    1.0800 c3        1 QQX      0.115100
     10 O2'         1.3580    0.9950    0.6520 os        1 QQX     -0.490200
     11 C1'         3.2740    0.2020    1.9130 c3        1 QQX      0.239800
     12 N9          3.8240    0.6360    3.1900 na        1 QQX     -0.282000
     13 C8          5.1660    0.5600    3.6270 cc        1 QQX      0.522700
     14 N7          5.3400    0.8930    4.9220 nd        1 QQX     -0.592100
     15 C5          4.0590    1.1920    5.3920 ca        1 QQX     -0.129200
     16 C6          3.5350    1.5930    6.6330 ca        1 QQX      0.513200
     17 N6          4.4660    1.7700    7.7630 n4        1 QQX     -0.814300
     18 N1          2.2090    1.8150    6.8180 nb        1 QQX     -0.675000
     19 C2          1.4000    1.6290    5.7360 ca        1 QQX      0.671900
     20 C4          3.0640    1.0270    4.3050 ca        1 QQX      0.450800
     21 N3          1.7400    1.2460    4.4760 nb        1 QQX     -0.613000
     22 P           1.1960    0.7850   -0.9560 p5        1 QQX      1.179200
     23 HP3         0.7250   -1.3040   -1.5280 ho        1 QQX      0.515000
     24 H5'         6.9510   -0.5880    0.5450 ho        1 QQX      0.425000
     25 H5'1        5.9440    2.0410    0.7740 h1        1 QQX      0.069200
     26 H5'2        6.4910    1.2710   -0.7980 h1        1 QQX      0.069200
     27 H4'         4.6660   -0.2780   -0.8800 h1        1 QQX      0.123700
     28 H3'         3.9650    2.5240   -0.3250 h1        1 QQX      0.119700
     29 H1'         2.5160   -0.6170    2.1140 h2        1 QQX      0.140700
     30 H2'         2.5480    2.3190    1.6670 h1        1 QQX      0.118700
     31 H8          5.9740    0.2530    2.9270 h5        1 QQX      0.144800
     32 H61N        4.9030    0.8630    7.9700 hn        1 QQX      0.478800
     33 H62N        5.1950    2.4390    7.4840 hn        1 QQX      0.478800
     34 H2          0.3140    1.8160    5.9140 h5        1 QQX      0.103100
     35 H63         3.9760    2.1170    8.5990 hn        1 QQX      0.478800
@<TRIPOS>BOND
     1    1   22 1   
     2    1   23 1   
     3    2   22 2   
     4    3    4 1   
     5    3   24 1   
     6    4    5 1   
     7    4   25 1   
     8    4   26 1   
     9    5    6 1   
    10    5    7 1   
    11    5   27 1   
    12    6   11 1   
    13    7    8 1   
    14    7    9 1   
    15    7   28 1   
    16    8   22 1   
    17    9   10 1   
    18    9   11 1   
    19    9   30 1   
    20   10   22 1   
    21   11   12 1   
    22   11   29 1   
    23   12   13 1   
    24   12   20 1   
    25   13   14 2   
    26   13   31 1   
    27   14   15 1   
    28   15   16 ar  
    29   15   20 ar  
    30   16   17 1   
    31   16   18 ar  
    32   17   32 1   
    33   17   33 1   
    34   17   35 1   
    35   18   19 ar  
    36   19   21 ar  
    37   19   34 1   
    38   20   21 ar  
@<TRIPOS>SUBSTRUCTURE
     1 QQX         1 TEMP              0 ****  ****    0 ROOT
