@<TRIPOS>MOLECULE
QQX
   34    37     1     0     0
SMALL
bcc


@<TRIPOS>ATOM
      1 OP3         3.4940    1.4670   -1.4290 oh        1 QQX     -0.718400
      2 S1P         4.8530    2.4630    0.9480 s         1 QQX     -0.513000
      3 O5'         1.0060   -3.8400   -1.1460 oh        1 QQX     -0.581800
      4 C5'         1.3990   -3.0510   -0.0470 c3        1 QQX      0.123400
      5 C4'         1.8460   -1.6630   -0.5060 c3        1 QQX      0.068100
      6 O4'         0.7430   -0.9770   -1.1120 os        1 QQX     -0.411600
      7 C3'         2.3560   -0.8020    0.6620 c3        1 QQX      0.117100
      8 O3'         3.6060   -0.2170    0.3700 os        1 QQX     -0.501200
      9 C2'         1.3310    0.3550    0.8090 c3        1 QQX      0.107100
     10 O2'         2.0080    1.5580    0.5340 os        1 QQX     -0.496200
     11 C1'         0.2450    0.0890   -0.2840 c3        1 QQX      0.243800
     12 N9         -1.0440   -0.2260    0.2680 na        1 QQX     -0.293000
     13 C8         -1.3590   -1.1170    1.3320 cc        1 QQX      0.391700
     14 N7         -2.6710   -1.3130    1.4990 nd        1 QQX     -0.522100
     15 C5         -3.2890   -0.5510    0.4940 ca        1 QQX     -0.242200
     16 C6         -4.6640   -0.3370    0.1410 ca        1 QQX      0.770200
     17 N6         -5.6630   -0.9410    0.8520 nh        1 QQX     -0.956500
     18 N1         -4.9500    0.4890   -0.9250 nb        1 QQX     -0.791000
     19 C2         -3.9060    1.0580   -1.5780 ca        1 QQX      0.696900
     20 C4         -2.2800    0.1320   -0.3070 ca        1 QQX      0.482800
     21 N3         -2.5720    0.9500   -1.3580 nb        1 QQX     -0.737000
     22 P           3.5740    1.3870    0.1520 p5        1 QQX      1.203200
     23 HP3         4.0820    2.0720   -1.8880 ho        1 QQX      0.509000
     24 H5'         0.3080   -3.3580   -1.6110 ho        1 QQX      0.419000
     25 H5'1        0.5560   -2.9630    0.6910 h1        1 QQX      0.053200
     26 H5'2        2.2620   -3.6020    0.4150 h1        1 QQX      0.053200
     27 H4'         2.6180   -1.7580   -1.3210 h1        1 QQX      0.119700
     28 H3'         2.4820   -1.4100    1.5990 h1        1 QQX      0.110700
     29 H1'         0.1330    0.9770   -0.9790 h2        1 QQX      0.149700
     30 H2'         0.8920    0.4400    1.8410 h1        1 QQX      0.116700
     31 H8         -0.5730   -1.5600    1.9540 h5        1 QQX      0.065800
     32 H61N       -5.4250   -1.5340    1.6070 hn        1 QQX      0.452800
     33 H62N       -6.6130   -0.8000    0.6130 hn        1 QQX      0.452800
     34 H2         -4.1930    1.7140   -2.4290 h5        1 QQX      0.057100
@<TRIPOS>BOND
     1    1   22 1   
     2    1   23 1   
     3    2   22 2   
     4    3    4 1   
     5    3   24 1   
     6    4    5 1   
     7    4   25 1   
     8    4   26 1   
     9    5    6 1   
    10    5    7 1   
    11    5   27 1   
    12    6   11 1   
    13    7    8 1   
    14    7    9 1   
    15    7   28 1   
    16    8   22 1   
    17    9   10 1   
    18    9   11 1   
    19    9   30 1   
    20   10   22 1   
    21   11   12 1   
    22   11   29 1   
    23   12   13 1   
    24   12   20 1   
    25   13   14 2   
    26   13   31 1   
    27   14   15 1   
    28   15   16 ar  
    29   15   20 ar  
    30   16   17 1   
    31   16   18 ar  
    32   17   32 1   
    33   17   33 1   
    34   18   19 ar  
    35   19   21 ar  
    36   19   34 1   
    37   20   21 ar  
@<TRIPOS>SUBSTRUCTURE
     1 QQX         1 TEMP              0 ****  ****    0 ROOT
