@<TRIPOS>MOLECULE
QQX
   34    37     1     0     0
SMALL
bcc


@<TRIPOS>ATOM
      1 OP3         1.4210   -0.8730   -1.1760 oh        1 QQX     -0.720400
      2 S1P        -0.3690    1.3470   -1.7430 s         1 QQX     -0.515000
      3 O5'         6.9790    0.3210    0.1700 oh        1 QQX     -0.581800
      4 C5'         5.9010    1.2260    0.2670 c3        1 QQX      0.114400
      5 C4'         4.5720    0.5240   -0.0110 c3        1 QQX      0.069100
      6 O4'         4.2980   -0.4220    1.0370 os        1 QQX     -0.414600
      7 C3'         3.3960    1.5130   -0.0690 c3        1 QQX      0.119100
      8 O3'         2.5950    1.2950   -1.2100 os        1 QQX     -0.503200
      9 C2'         2.5200    1.1960    1.1750 c3        1 QQX      0.112100
     10 O2'         1.2850    0.7070    0.7050 os        1 QQX     -0.494200
     11 C1'         3.2880    0.0620    1.9310 c3        1 QQX      0.254800
     12 N9          3.8920    0.5070    3.1650 na        1 QQX     -0.307000
     13 C8          5.2280    0.2820    3.5940 cc        1 QQX      0.415700
     14 N7          5.4520    0.6480    4.8610 nd        1 QQX     -0.533100
     15 C5          4.2180    1.1250    5.3300 ca        1 QQX     -0.235200
     16 C6          3.7950    1.6530    6.5970 ca        1 QQX      0.768200
     17 N6          4.6900    1.7890    7.6220 nv        1 QQX     -0.955500
     18 N1          2.4790    2.0300    6.7500 nb        1 QQX     -0.791000
     19 C2          1.6550    1.8870    5.6800 ca        1 QQX      0.694900
     20 C4          3.2130    1.0320    4.2790 ca        1 QQX      0.461800
     21 N3          1.9120    1.4150    4.4350 nb        1 QQX     -0.742000
     22 P           1.1350    0.6640   -0.9050 p5        1 QQX      1.203200
     23 HP3         0.8070   -1.3590   -1.7300 ho        1 QQX      0.507000
     24 H5'         6.7880   -0.4190    0.7610 ho        1 QQX      0.409000
     25 H5'1        6.1020    2.0020   -0.5190 h1        1 QQX      0.062200
     26 H5'2        5.8840    1.7020    1.2850 h1        1 QQX      0.062200
     27 H4'         4.6470   -0.0950   -0.9490 h1        1 QQX      0.121700
     28 H3'         3.7510    2.5790   -0.1050 h1        1 QQX      0.115700
     29 H1'         2.6060   -0.8190    2.1350 h2        1 QQX      0.126700
     30 H2'         2.3110    2.0880    1.8270 h1        1 QQX      0.136700
     31 H8          5.9670   -0.1520    2.9080 h5        1 QQX      0.078800
     32 H61N        4.3990    2.1190    8.5080 hn        1 QQX      0.452300
     33 H62N        5.6160    1.4650    7.4960 hn        1 QQX      0.452300
     34 H2          0.6040    2.2060    5.8570 h5        1 QQX      0.058100
@<TRIPOS>BOND
     1    1   22 1   
     2    1   23 1   
     3    2   22 2   
     4    3    4 1   
     5    3   24 1   
     6    4    5 1   
     7    4   25 1   
     8    4   26 1   
     9    5    6 1   
    10    5    7 1   
    11    5   27 1   
    12    6   11 1   
    13    7    8 1   
    14    7    9 1   
    15    7   28 1   
    16    8   22 1   
    17    9   10 1   
    18    9   11 1   
    19    9   30 1   
    20   10   22 1   
    21   11   12 1   
    22   11   29 1   
    23   12   13 1   
    24   12   20 1   
    25   13   14 2   
    26   13   31 1   
    27   14   15 1   
    28   15   16 ar  
    29   15   20 ar  
    30   16   17 1   
    31   16   18 ar  
    32   17   32 1   
    33   17   33 1   
    34   18   19 ar  
    35   19   21 ar  
    36   19   34 1   
    37   20   21 ar  
@<TRIPOS>SUBSTRUCTURE
     1 QQX         1 TEMP              0 ****  ****    0 ROOT
