@<TRIPOS>MOLECULE
QQX
   34    37     1     0     0
SMALL
bcc


@<TRIPOS>ATOM
      1 OP3         1.0930   -0.3850   -1.1170 oh        1 QQX     -0.718400
      2 S1P         0.4490    2.0280   -2.6180 s         1 QQX     -0.513000
      3 O5'         6.5590   -0.9560    0.9440 oh        1 QQX     -0.581800
      4 C5'         5.9600    0.2420    0.5080 c3        1 QQX      0.123400
      5 C4'         4.4760    0.0320    0.2080 c3        1 QQX      0.068100
      6 O4'         3.7890   -0.3390    1.4100 os        1 QQX     -0.411600
      7 C3'         3.8100    1.3020   -0.3480 c3        1 QQX      0.117100
      8 O3'         3.0710    1.0340   -1.5190 os        1 QQX     -0.501200
      9 C2'         2.7980    1.7550    0.7400 c3        1 QQX      0.107100
     10 O2'         1.5100    1.6690    0.1800 os        1 QQX     -0.496200
     11 C1'         2.9480    0.7190    1.9020 c3        1 QQX      0.243800
     12 N9          3.4740    1.2980    3.1070 na        1 QQX     -0.293000
     13 C8          4.5760    2.1870    3.2560 cc        1 QQX      0.391700
     14 N7          4.9160    2.4160    4.5290 nd        1 QQX     -0.522100
     15 C5          4.0340    1.6320    5.2920 ca        1 QQX     -0.242200
     16 C6          3.8800    1.4380    6.7060 ca        1 QQX      0.770200
     17 N6          4.6940    2.0920    7.5870 nh        1 QQX     -0.956500
     18 N1          2.8950    0.5820    7.1500 nb        1 QQX     -0.791000
     19 C2          2.1220   -0.0270    6.2160 ca        1 QQX      0.696900
     20 C4          3.1250    0.9040    4.4150 ca        1 QQX      0.482800
     21 N3          2.1510    0.0620    4.8620 nb        1 QQX     -0.737000
     22 P           1.4650    1.1390   -1.3510 p5        1 QQX      1.203200
     23 HP3         0.3630   -0.7600   -1.6130 ho        1 QQX      0.509000
     24 H5'         6.0620   -1.2610    1.7160 ho        1 QQX      0.419000
     25 H5'1        6.0890    1.0470    1.2810 h1        1 QQX      0.053200
     26 H5'2        6.5090    0.5180   -0.4320 h1        1 QQX      0.053200
     27 H4'         4.3450   -0.8440   -0.4890 h1        1 QQX      0.119700
     28 H3'         4.5710    2.0890   -0.6040 h1        1 QQX      0.110700
     29 H1'         1.9570    0.2230    2.1430 h2        1 QQX      0.149700
     30 H2'         2.9500    2.8140    1.0840 h1        1 QQX      0.116700
     31 H8          5.0580    2.6450    2.3850 h5        1 QQX      0.065800
     32 H61N        5.3960    2.6950    7.2380 hn        1 QQX      0.452800
     33 H62N        4.5940    1.9620    8.5630 hn        1 QQX      0.452800
     34 H2          1.3430   -0.7060    6.6280 h5        1 QQX      0.057100
@<TRIPOS>BOND
     1    1   22 1   
     2    1   23 1   
     3    2   22 2   
     4    3    4 1   
     5    3   24 1   
     6    4    5 1   
     7    4   25 1   
     8    4   26 1   
     9    5    6 1   
    10    5    7 1   
    11    5   27 1   
    12    6   11 1   
    13    7    8 1   
    14    7    9 1   
    15    7   28 1   
    16    8   22 1   
    17    9   10 1   
    18    9   11 1   
    19    9   30 1   
    20   10   22 1   
    21   11   12 1   
    22   11   29 1   
    23   12   13 1   
    24   12   20 1   
    25   13   14 2   
    26   13   31 1   
    27   14   15 1   
    28   15   16 ar  
    29   15   20 ar  
    30   16   17 1   
    31   16   18 ar  
    32   17   32 1   
    33   17   33 1   
    34   18   19 ar  
    35   19   21 ar  
    36   19   34 1   
    37   20   21 ar  
@<TRIPOS>SUBSTRUCTURE
     1 QQX         1 TEMP              0 ****  ****    0 ROOT
