@<TRIPOS>MOLECULE
QQY
   34    37     1     0     0
SMALL
bcc


@<TRIPOS>ATOM
      1 OP3         4.4390    1.5620    1.6310 o         1 QQY     -0.688300
      2 S1P         3.9540    1.7640   -1.3190 sh        1 QQY     -0.507200
      3 O5'         1.7510   -3.8660    0.4270 oh        1 QQY     -0.594800
      4 C5'         0.9220   -3.0530   -0.3730 c3        1 QQY      0.110400
      5 C4'         1.5460   -1.6740   -0.6060 c3        1 QQY      0.072100
      6 O4'         0.5620   -0.7870   -1.1450 os        1 QQY     -0.397600
      7 C3'         2.0870   -1.0470    0.6940 c3        1 QQY      0.106100
      8 O3'         3.3940   -0.5520    0.5170 os        1 QQY     -0.501200
      9 C2'         1.1650    0.1690    0.9840 c3        1 QQY      0.105100
     10 O2'         1.9500    1.3320    0.8970 os        1 QQY     -0.495200
     11 C1'         0.1040    0.1640   -0.1660 c3        1 QQY      0.239800
     12 N9         -1.2230   -0.1390    0.2950 na        1 QQY     -0.291000
     13 C8         -1.6320   -1.1450    1.2160 cc        1 QQY      0.391700
     14 N7         -2.9590   -1.2800    1.3110 nd        1 QQY     -0.525100
     15 C5         -3.4900   -0.3520    0.4000 ca        1 QQY     -0.242200
     16 C6         -4.8350   -0.0080    0.0340 ca        1 QQY      0.769200
     17 N6         -5.8950   -0.6390    0.6230 nh        1 QQY     -0.958500
     18 N1         -5.0300    0.9710   -0.9160 nb        1 QQY     -0.792000
     19 C2         -3.9290    1.5580   -1.4490 ca        1 QQY      0.695900
     20 C4         -2.4120    0.3690   -0.2650 ca        1 QQY      0.482800
     21 N3         -2.6130    1.3400   -1.2010 nb        1 QQY     -0.733000
     22 P           3.5280    1.0590    0.6240 p5        1 QQY      1.332500
     23 H1P         4.9910    2.5720   -1.0620 hs        1 QQY      0.346800
     24 H5'         2.5490   -4.0590   -0.0810 ho        1 QQY      0.410000
     25 H5'1        0.7150   -3.5340   -1.3650 h1        1 QQY      0.066700
     26 H5'2       -0.0400   -2.9650    0.2010 h1        1 QQY      0.066700
     27 H4'         2.3540   -1.7360   -1.3870 h1        1 QQY      0.105700
     28 H3'         2.1160   -1.8060    1.5260 h1        1 QQY      0.129700
     29 H1'         0.0780    1.1570   -0.7130 h2        1 QQY      0.152700
     30 H2'         0.6950    0.1440    2.0040 h1        1 QQY      0.115700
     31 H8         -0.8980   -1.7150    1.7980 h5        1 QQY      0.069800
     32 H61N       -5.7230   -1.3450    1.2940 hn        1 QQY      0.451800
     33 H62N       -6.8240   -0.4110    0.3730 hn        1 QQY      0.451800
     34 H2         -4.1420    2.3410   -2.2100 h5        1 QQY      0.057100
@<TRIPOS>BOND
     1    1   22 2   
     2    2   22 1   
     3    2   23 1   
     4    3    4 1   
     5    3   24 1   
     6    4    5 1   
     7    4   25 1   
     8    4   26 1   
     9    5    6 1   
    10    5    7 1   
    11    5   27 1   
    12    6   11 1   
    13    7    8 1   
    14    7    9 1   
    15    7   28 1   
    16    8   22 1   
    17    9   10 1   
    18    9   11 1   
    19    9   30 1   
    20   10   22 1   
    21   11   12 1   
    22   11   29 1   
    23   12   13 1   
    24   12   20 1   
    25   13   14 2   
    26   13   31 1   
    27   14   15 1   
    28   15   16 ar  
    29   15   20 ar  
    30   16   17 1   
    31   16   18 ar  
    32   17   32 1   
    33   17   33 1   
    34   18   19 ar  
    35   19   21 ar  
    36   19   34 1   
    37   20   21 ar  
@<TRIPOS>SUBSTRUCTURE
     1 QQY         1 TEMP              0 ****  ****    0 ROOT
