@<TRIPOS>MOLECULE
QQY
   34    37     1     0     0
SMALL
bcc


@<TRIPOS>ATOM
      1 OP3         0.2170   -0.2760   -1.8550 o         1 QQY     -0.688300
      2 S1P         1.4310   -2.8740   -0.9880 sh        1 QQY     -0.507200
      3 O5'         6.0090    1.4200   -0.5450 oh        1 QQY     -0.594800
      4 C5'         5.8000    0.5630    0.5550 c3        1 QQY      0.110400
      5 C4'         4.5770   -0.3330    0.3430 c3        1 QQY      0.072100
      6 O4'         4.2160   -0.9540    1.5800 os        1 QQY     -0.397600
      7 C3'         3.3530    0.4530   -0.1670 c3        1 QQY      0.106100
      8 O3'         2.7570   -0.1890   -1.2710 os        1 QQY     -0.501200
      9 C2'         2.3260    0.4240    0.9980 c3        1 QQY      0.105100
     10 O2'         1.1990   -0.2910    0.5570 os        1 QQY     -0.495200
     11 C1'         3.0330   -0.3640    2.1500 c3        1 QQY      0.239800
     12 N9          3.3380    0.4580    3.2880 na        1 QQY     -0.291000
     13 C8          3.8900    1.7700    3.3100 cc        1 QQY      0.391700
     14 N7          4.2100    2.1990    4.5350 nd        1 QQY     -0.525100
     15 C5          3.8940    1.1330    5.3930 ca        1 QQY     -0.242200
     16 C6          3.9990    0.9640    6.8150 ca        1 QQY      0.769200
     17 N6          4.4880    1.9730    7.5970 nv        1 QQY     -0.958500
     18 N1          3.5940   -0.2310    7.3690 nb        1 QQY     -0.792000
     19 C2          3.1120   -1.1820    6.5290 ca        1 QQY      0.695900
     20 C4          3.3570    0.0160    4.6260 ca        1 QQY      0.482800
     21 N3          2.9530   -1.1620    5.1820 nb        1 QQY     -0.733000
     22 P           1.2700   -0.7690   -0.9930 p5        1 QQY      1.332500
     23 H1P         0.4170   -3.1970   -1.8030 hs        1 QQY      0.346800
     24 H5'         6.2570    0.8710   -1.3000 ho        1 QQY      0.410000
     25 H5'1        5.6450    1.2490    1.4320 h1        1 QQY      0.066700
     26 H5'2        6.6980   -0.0810    0.7470 h1        1 QQY      0.066700
     27 H4'         4.8280   -1.1800   -0.3550 h1        1 QQY      0.105700
     28 H3'         3.6480    1.4910   -0.4900 h1        1 QQY      0.129700
     29 H1'         2.4060   -1.2440    2.4970 h2        1 QQY      0.152700
     30 H2'         1.9840    1.4450    1.3210 h1        1 QQY      0.115700
     31 H8          4.0000    2.3560    2.3900 h5        1 QQY      0.069800
     32 H61N        4.5680    1.8620    8.5770 hn        1 QQY      0.451800
     33 H62N        4.7810    2.8150    7.1690 hn        1 QQY      0.451800
     34 H2          2.7990   -2.1270    7.0270 h5        1 QQY      0.057100
@<TRIPOS>BOND
     1    1   22 2   
     2    2   22 1   
     3    2   23 1   
     4    3    4 1   
     5    3   24 1   
     6    4    5 1   
     7    4   25 1   
     8    4   26 1   
     9    5    6 1   
    10    5    7 1   
    11    5   27 1   
    12    6   11 1   
    13    7    8 1   
    14    7    9 1   
    15    7   28 1   
    16    8   22 1   
    17    9   10 1   
    18    9   11 1   
    19    9   30 1   
    20   10   22 1   
    21   11   12 1   
    22   11   29 1   
    23   12   13 1   
    24   12   20 1   
    25   13   14 2   
    26   13   31 1   
    27   14   15 1   
    28   15   16 ar  
    29   15   20 ar  
    30   16   17 1   
    31   16   18 ar  
    32   17   32 1   
    33   17   33 1   
    34   18   19 ar  
    35   19   21 ar  
    36   19   34 1   
    37   20   21 ar  
@<TRIPOS>SUBSTRUCTURE
     1 QQY         1 TEMP              0 ****  ****    0 ROOT
