@<TRIPOS>MOLECULE
QQY
   35    38     1     0     0
SMALL
bcc


@<TRIPOS>ATOM
      1 OP3        -0.2760   -0.8770   -0.9940 o         1 QQY     -0.665300
      2 S1P         1.9050   -2.9840   -0.9960 sh        1 QQY     -0.506200
      3 O5'         6.4830    1.2730    0.6540 oh        1 QQY     -0.601800
      4 C5'         5.2550    1.5610    0.0220 c3        1 QQY      0.113400
      5 C4'         4.3720    0.3150   -0.0680 c3        1 QQY      0.064100
      6 O4'         4.6390   -0.5570    1.0470 os        1 QQY     -0.390600
      7 C3'         2.8730    0.6640   -0.0490 c3        1 QQY      0.124100
      8 O3'         2.1820   -0.0050   -1.0720 os        1 QQY     -0.494200
      9 C2'         2.3370    0.1200    1.3060 c3        1 QQY      0.113100
     10 O2'         1.3770   -0.8580    1.0200 os        1 QQY     -0.490200
     11 C1'         3.5730   -0.5540    1.9910 c3        1 QQY      0.235800
     12 N9          4.0010    0.1190    3.2100 na        1 QQY     -0.281000
     13 C8          5.2610    0.7040    3.4760 cc        1 QQY      0.523700
     14 N7          5.4260    1.0870    4.7580 nd        1 QQY     -0.593100
     15 C5          4.2370    0.7310    5.3970 ca        1 QQY     -0.129200
     16 C6          3.7600    0.8340    6.7150 ca        1 QQY      0.512200
     17 N6          4.6370    1.4420    7.7330 n4        1 QQY     -0.814300
     18 N1          2.5290    0.3880    7.0730 nb        1 QQY     -0.676000
     19 C2          1.7700   -0.1710    6.0880 ca        1 QQY      0.670900
     20 C4          3.3060    0.1000    4.4300 ca        1 QQY      0.450800
     21 N3          2.0760   -0.3480    4.7740 nb        1 QQY     -0.612000
     22 P           1.0860   -1.0970   -0.5690 p5        1 QQY      1.326500
     23 H1P         0.8950   -3.5880   -1.6480 hs        1 QQY      0.366800
     24 H5'         6.9330    0.5950    0.1330 ho        1 QQY      0.426000
     25 H5'1        4.7890    2.3540    0.6670 h1        1 QQY      0.068200
     26 H5'2        5.4210    1.9680   -1.0110 h1        1 QQY      0.068200
     27 H4'         4.6410   -0.3000   -0.9740 h1        1 QQY      0.126700
     28 H3'         2.7040    1.7680   -0.1830 h1        1 QQY      0.118700
     29 H1'         3.3590   -1.6400    2.2420 h2        1 QQY      0.143700
     30 H2'         1.8600    0.9070    1.9500 h1        1 QQY      0.117700
     31 H8          6.0130    0.8220    2.6650 h5        1 QQY      0.144800
     32 H61N        4.9320    2.3680    7.3990 hn        1 QQY      0.478467
     33 H62N        5.4660    0.8450    7.8450 hn        1 QQY      0.478467
     34 H2          0.7630   -0.5320    6.4070 h5        1 QQY      0.102100
     35 H63         4.1530    1.5340    8.6350 hn        1 QQY      0.478467
@<TRIPOS>BOND
     1    1   22 2   
     2    2   22 1   
     3    2   23 1   
     4    3    4 1   
     5    3   24 1   
     6    4    5 1   
     7    4   25 1   
     8    4   26 1   
     9    5    6 1   
    10    5    7 1   
    11    5   27 1   
    12    6   11 1   
    13    7    8 1   
    14    7    9 1   
    15    7   28 1   
    16    8   22 1   
    17    9   10 1   
    18    9   11 1   
    19    9   30 1   
    20   10   22 1   
    21   11   12 1   
    22   11   29 1   
    23   12   13 1   
    24   12   20 1   
    25   13   14 2   
    26   13   31 1   
    27   14   15 1   
    28   15   16 ar  
    29   15   20 ar  
    30   16   17 1   
    31   16   18 ar  
    32   17   32 1   
    33   17   33 1   
    34   17   35 1   
    35   18   19 ar  
    36   19   21 ar  
    37   19   34 1   
    38   20   21 ar  
@<TRIPOS>SUBSTRUCTURE
     1 QQY         1 TEMP              0 ****  ****    0 ROOT
