@<TRIPOS>MOLECULE
QQY
   34    37     1     0     0
SMALL
bcc


@<TRIPOS>ATOM
      1 OP3        -0.0240   -1.2400   -1.0360 o         1 QQY     -0.688300
      2 S1P         2.2630   -3.1690   -1.1690 sh        1 QQY     -0.521200
      3 O5'         5.0040    2.4480   -0.6210 oh        1 QQY     -0.586800
      4 C5'         5.3390    1.4430    0.3100 c3        1 QQY      0.108400
      5 C4'         4.5130    0.1750    0.0810 c3        1 QQY      0.071100
      6 O4'         4.7790   -0.7700    1.1280 os        1 QQY     -0.401600
      7 C3'         3.0000    0.4650    0.0860 c3        1 QQY      0.109100
      8 O3'         2.3570   -0.1700   -0.9960 os        1 QQY     -0.503200
      9 C2'         2.4600   -0.1790    1.3930 c3        1 QQY      0.110100
     10 O2'         1.5880   -1.2200    1.0240 os        1 QQY     -0.493200
     11 C1'         3.7210   -0.7820    2.0970 c3        1 QQY      0.249800
     12 N9          4.1280   -0.0530    3.2760 na        1 QQY     -0.305000
     13 C8          5.4510    0.3490    3.6060 cc        1 QQY      0.415700
     14 N7          5.5660    0.8430    4.8430 nd        1 QQY     -0.537100
     15 C5          4.2780    0.7580    5.3950 ca        1 QQY     -0.234200
     16 C6          3.7430    1.1150    6.6790 ca        1 QQY      0.766200
     17 N6          4.5470    1.6850    7.6280 nh        1 QQY     -0.956500
     18 N1          2.4080    0.8870    6.9260 nb        1 QQY     -0.792000
     19 C2          1.6670    0.3420    5.9260 ca        1 QQY      0.692900
     20 C4          3.3540    0.1810    4.4260 ca        1 QQY      0.462800
     21 N3          2.0290   -0.0340    4.6760 nb        1 QQY     -0.742000
     22 P           1.3420   -1.3600   -0.5720 p5        1 QQY      1.338500
     23 H1P         1.2480   -3.7570   -1.8180 hs        1 QQY      0.347800
     24 H5'         5.2570    2.1310   -1.4970 ho        1 QQY      0.409000
     25 H5'1        6.4300    1.1860    0.2550 h1        1 QQY      0.065200
     26 H5'2        5.1140    1.8920    1.3150 h1        1 QQY      0.065200
     27 H4'         4.8270   -0.3400   -0.8690 h1        1 QQY      0.107700
     28 H3'         2.8030    1.5700    0.0050 h1        1 QQY      0.132700
     29 H1'         3.5560   -1.8710    2.3580 h2        1 QQY      0.128700
     30 H2'         1.8930    0.5350    2.0510 h1        1 QQY      0.136700
     31 H8          6.2620    0.2410    2.8730 h5        1 QQY      0.084800
     32 H61N        5.5140    1.7840    7.4400 hn        1 QQY      0.451300
     33 H62N        4.1970    1.8950    8.5290 hn        1 QQY      0.451300
     34 H2          0.5960    0.1790    6.1780 h5        1 QQY      0.056100
@<TRIPOS>BOND
     1    1   22 2   
     2    2   22 1   
     3    2   23 1   
     4    3    4 1   
     5    3   24 1   
     6    4    5 1   
     7    4   25 1   
     8    4   26 1   
     9    5    6 1   
    10    5    7 1   
    11    5   27 1   
    12    6   11 1   
    13    7    8 1   
    14    7    9 1   
    15    7   28 1   
    16    8   22 1   
    17    9   10 1   
    18    9   11 1   
    19    9   30 1   
    20   10   22 1   
    21   11   12 1   
    22   11   29 1   
    23   12   13 1   
    24   12   20 1   
    25   13   14 2   
    26   13   31 1   
    27   14   15 1   
    28   15   16 ar  
    29   15   20 ar  
    30   16   17 1   
    31   16   18 ar  
    32   17   32 1   
    33   17   33 1   
    34   18   19 ar  
    35   19   21 ar  
    36   19   34 1   
    37   20   21 ar  
@<TRIPOS>SUBSTRUCTURE
     1 QQY         1 TEMP              0 ****  ****    0 ROOT
