@<TRIPOS>MOLECULE
QRG
   36    35     1     0     0
SMALL
bcc


@<TRIPOS>ATOM
      1 CAO        -3.4610   -0.4220    1.7510 c         1 QRG      0.655100
      2 OAC        -3.3480   -1.5210    2.3400 o         1 QRG     -0.650100
      3 CAB        -4.4490    0.6100    2.2530 c3        1 QRG     -0.176100
      4 NAL        -2.6760   -0.0460    0.6790 n         1 QRG     -0.522900
      5 CAT        -1.9000   -1.0130   -0.0670 c3        1 QRG      0.042700
      6 CAR        -0.3950   -1.0170    0.3150 c         1 QRG      0.642100
      7 OAF         0.2080   -2.1190    0.3360 o         1 QRG     -0.681100
      8 CAK        -1.9870   -0.8040   -1.5850 c3        1 QRG     -0.210400
      9 CAP        -3.4240   -0.6210   -2.1010 c         1 QRG      0.907600
     10 OAG        -4.0770    0.4030   -1.7280 o         1 QRG     -0.856800
     11 OAD        -3.8870   -1.4760   -2.9070 o         1 QRG     -0.856800
     12 N           0.2540    0.1690    0.5280 n         1 QRG     -0.521900
     13 CA          1.6140    0.2430    1.0100 c3        1 QRG     -0.031300
     14 C           1.8820    1.4990    1.9130 c         1 QRG      0.911600
     15 O           2.9590    1.4850    2.5730 o         1 QRG     -0.841800
     16 CB          2.6660    0.2770   -0.1120 c3        1 QRG     -0.076400
     17 CG          2.7260   -1.0180   -0.8740 c3        1 QRG      0.024700
     18 SD          4.2080   -1.2230   -1.8460 ss        1 QRG     -0.393200
     19 CE          5.4630   -1.4340   -0.6370 c3        1 QRG     -0.024000
     20 OXT         1.0430    2.4410    1.9350 o         1 QRG     -0.841800
     21 HAB        -5.1750    0.8690    1.4450 hc        1 QRG      0.053700
     22 HABA       -5.0010    0.1890    3.1260 hc        1 QRG      0.053700
     23 HABB       -3.9120    1.5360    2.5720 hc        1 QRG      0.053700
     24 HNAL       -3.0400    0.7010    0.1090 hn        1 QRG      0.342500
     25 HAT        -2.2700   -2.0550    0.1830 h1        1 QRG      0.087700
     26 HAK        -1.5260   -1.6960   -2.0780 hc        1 QRG      0.047200
     27 HAKA       -1.4050    0.1060   -1.8770 hc        1 QRG      0.047200
     28 HN         -0.2710    1.0110    0.6420 hn        1 QRG      0.335500
     29 HA          1.8190   -0.6700    1.6450 h1        1 QRG      0.053700
     30 HB          2.4560    1.1280   -0.8100 hc        1 QRG      0.051200
     31 HBA         3.6510    0.4830    0.3880 hc        1 QRG      0.051200
     32 HG          2.6120   -1.8860   -0.1780 h1        1 QRG      0.085200
     33 HGA         1.8970   -1.0780   -1.6230 h1        1 QRG      0.085200
     34 HE          6.4220   -1.5520   -1.1870 h1        1 QRG      0.051367
     35 HEA         5.5320   -0.5550    0.0430 h1        1 QRG      0.051367
     36 HEB         5.2790   -2.3400   -0.0170 h1        1 QRG      0.051367
@<TRIPOS>BOND
     1    1    2 2   
     2    1    3 1   
     3    1    4 1   
     4    3   21 1   
     5    3   22 1   
     6    3   23 1   
     7    4    5 1   
     8    4   24 1   
     9    5    6 1   
    10    5    8 1   
    11    5   25 1   
    12    6    7 2   
    13    6   12 1   
    14    8    9 1   
    15    8   26 1   
    16    8   27 1   
    17    9   10 1   
    18    9   11 1   
    19   12   13 1   
    20   12   28 1   
    21   13   14 1   
    22   13   16 1   
    23   13   29 1   
    24   14   15 1   
    25   14   20 1   
    26   16   17 1   
    27   16   30 1   
    28   16   31 1   
    29   17   18 1   
    30   17   32 1   
    31   17   33 1   
    32   18   19 1   
    33   19   34 1   
    34   19   35 1   
    35   19   36 1   
@<TRIPOS>SUBSTRUCTURE
     1 QRG         1 TEMP              0 ****  ****    0 ROOT
