@<TRIPOS>MOLECULE
QRO
   30    31     1     0     0
SMALL
bcc


@<TRIPOS>ATOM
      1 OAA        -0.0480    0.7480    0.0470 o         1 QRO     -0.792800
      2 CAN         1.0990    0.2420    0.0820 c         1 QRO      0.922800
      3 OAD         1.7080   -0.1680    1.1010 o         1 QRO     -0.792800
      4 CAR         1.8740    0.1250   -1.2680 cc        1 QRO      0.045400
      5 NAL         3.2480    0.2890   -1.1750 ns        1 QRO     -0.435100
      6 CAT         4.0910    0.1510   -2.2840 c         1 QRO      0.791500
      7 OAB         5.3370    0.2680   -2.1790 o         1 QRO     -0.693500
      8 NAM         3.5010   -0.1040   -3.5310 ns        1 QRO     -0.592500
      9 CAU         2.1090   -0.2670   -3.6890 c         1 QRO      0.716700
     10 OAC         1.6940   -0.5130   -4.8400 o         1 QRO     -0.669500
     11 CAS         1.2860   -0.1360   -2.4820 cd        1 QRO     -0.295400
     12 CAK        -0.1790   -0.3040   -2.6450 c3        1 QRO      0.010800
     13 CAJ        -0.8660    1.0340   -2.8840 c3        1 QRO     -0.043100
     14 CAO        -2.3450    0.9130   -2.7730 ca        1 QRO     -0.043300
     15 CAI        -2.9200    0.7590   -1.5060 ca        1 QRO     -0.131000
     16 CAQ        -4.3130    0.6570   -1.3770 ca        1 QRO      0.085900
     17 FAF        -4.8830    0.5110   -0.1570 f         1 QRO     -0.137900
     18 CAP        -5.1350    0.7090   -2.5340 ca        1 QRO      0.059900
     19 FAE        -6.4830    0.6140   -2.4170 f         1 QRO     -0.147900
     20 CAH        -4.5440    0.8610   -3.7970 ca        1 QRO     -0.156000
     21 CAG        -3.1610    0.9610   -3.9080 ca        1 QRO     -0.132000
     22 H2          4.1040   -0.1900   -4.3160 hn        1 QRO      0.331500
     23 H4         -0.3850   -0.9930   -3.5070 hc        1 QRO      0.058700
     24 H5         -0.6030   -0.7630   -1.7090 hc        1 QRO      0.058700
     25 H6         -0.5780    1.4310   -3.8920 hc        1 QRO      0.064700
     26 H7         -0.5030    1.7560   -2.0980 hc        1 QRO      0.064700
     27 H8         -2.2640    0.7190   -0.6120 ha        1 QRO      0.212000
     28 H9         -5.1840    0.8980   -4.6890 ha        1 QRO      0.135000
     29 H10        -2.7030    1.0760   -4.9020 ha        1 QRO      0.137000
     30 H11         3.6580    0.3610   -0.2660 hn        1 QRO      0.367500
@<TRIPOS>BOND
     1    1    2 1   
     2    2    3 1   
     3    2    4 1   
     4    4    5 1   
     5    4   11 2   
     6    5    6 1   
     7    5   30 1   
     8    6    7 2   
     9    6    8 1   
    10    8    9 1   
    11    8   22 1   
    12    9   10 2   
    13    9   11 1   
    14   11   12 1   
    15   12   13 1   
    16   12   23 1   
    17   12   24 1   
    18   13   14 1   
    19   13   25 1   
    20   13   26 1   
    21   14   15 ar  
    22   14   21 ar  
    23   15   16 ar  
    24   15   27 1   
    25   16   17 1   
    26   16   18 ar  
    27   18   19 1   
    28   18   20 ar  
    29   20   21 ar  
    30   20   28 1   
    31   21   29 1   
@<TRIPOS>SUBSTRUCTURE
     1 QRO         1 TEMP              0 ****  ****    0 ROOT
