@<TRIPOS>MOLECULE
QRO
   30    31     1     0     0
SMALL
bcc


@<TRIPOS>ATOM
      1 OAA         0.4350    2.1360   -0.4090 o         1 QRO     -0.792800
      2 CAN         1.6240    2.1480   -0.0090 c         1 QRO      0.922800
      3 OAD         2.2820    3.1540    0.3580 o         1 QRO     -0.792800
      4 CAR         2.3870    0.7870    0.0200 cc        1 QRO      0.045400
      5 NAL         3.7410    0.8650   -0.2660 n         1 QRO     -0.435100
      6 CAT         4.5780   -0.2570   -0.2200 c         1 QRO      0.791500
      7 OAB         5.8100   -0.1660   -0.4480 o         1 QRO     -0.693500
      8 NAM         3.9950   -1.4990    0.0700 n         1 QRO     -0.592500
      9 CAU         2.6220   -1.6420    0.3570 c         1 QRO      0.716700
     10 OAC         2.2150   -2.7910    0.6240 o         1 QRO     -0.669500
     11 CAS         1.8080   -0.4220    0.3170 cd        1 QRO     -0.295400
     12 CAK         0.3620   -0.5690    0.6150 c3        1 QRO      0.010800
     13 CAJ        -0.4460   -0.7790   -0.6590 c3        1 QRO     -0.043100
     14 CAO        -1.9070   -0.6510   -0.4030 ca        1 QRO     -0.043300
     15 CAI        -2.4470    0.6210   -0.1810 ca        1 QRO     -0.131000
     16 CAQ        -3.8230    0.7660    0.0480 ca        1 QRO      0.085900
     17 FAF        -4.3610    1.9910    0.2620 f         1 QRO     -0.137900
     18 CAP        -4.6640   -0.3790    0.0560 ca        1 QRO      0.059900
     19 FAE        -5.9950   -0.2460    0.2750 f         1 QRO     -0.147900
     20 CAH        -4.1060   -1.6480   -0.1660 ca        1 QRO     -0.156000
     21 CAG        -2.7400   -1.7750   -0.3920 ca        1 QRO     -0.132000
     22 H2          4.5930   -2.2940    0.0920 hn        1 QRO      0.331500
     23 H4          0.2070   -1.4380    1.3080 hc        1 QRO      0.058700
     24 H5         -0.0060    0.3660    1.1230 hc        1 QRO      0.058700
     25 H6         -0.1390    0.0120   -1.4000 hc        1 QRO      0.064700
     26 H7         -0.2100   -1.7850   -1.0930 hc        1 QRO      0.064700
     27 H8         -1.7780    1.5050   -0.1890 ha        1 QRO      0.212000
     28 H9         -4.7600   -2.5300   -0.1560 ha        1 QRO      0.135000
     29 H10        -2.3080   -2.7740   -0.5600 ha        1 QRO      0.137000
     30 H11         4.1570    1.7700   -0.3630 hn        1 QRO      0.367500
@<TRIPOS>BOND
     1    1    2 1   
     2    2    3 1   
     3    2    4 1   
     4    4    5 1   
     5    4   11 2   
     6    5    6 1   
     7    5   30 1   
     8    6    7 2   
     9    6    8 1   
    10    8    9 1   
    11    8   22 1   
    12    9   10 2   
    13    9   11 1   
    14   11   12 1   
    15   12   13 1   
    16   12   23 1   
    17   12   24 1   
    18   13   14 1   
    19   13   25 1   
    20   13   26 1   
    21   14   15 ar  
    22   14   21 ar  
    23   15   16 ar  
    24   15   27 1   
    25   16   17 1   
    26   16   18 ar  
    27   18   19 1   
    28   18   20 ar  
    29   20   21 ar  
    30   20   28 1   
    31   21   29 1   
@<TRIPOS>SUBSTRUCTURE
     1 QRO         1 TEMP              0 ****  ****    0 ROOT
