@<TRIPOS>MOLECULE
QRO
   30    31     1     0     0
SMALL
bcc


@<TRIPOS>ATOM
      1 OAA        -0.0440    0.7230    0.0500 o         1 QRO     -0.792800
      2 CAN         1.0990    0.2100    0.0790 c         1 QRO      0.922800
      3 OAD         1.7070   -0.2130    1.0950 o         1 QRO     -0.792800
      4 CAR         1.8730    0.1000   -1.2720 cc        1 QRO      0.045400
      5 NAL         3.2480    0.2540   -1.1780 n         1 QRO     -0.435100
      6 CAT         4.0890    0.1200   -2.2890 c         1 QRO      0.791500
      7 OAB         5.3360    0.2290   -2.1830 o         1 QRO     -0.693500
      8 NAM         3.4970   -0.1180   -3.5380 n         1 QRO     -0.592500
      9 CAU         2.1040   -0.2710   -3.6960 c         1 QRO      0.716700
     10 OAC         1.6870   -0.5040   -4.8490 o         1 QRO     -0.669500
     11 CAS         1.2820   -0.1460   -2.4880 cd        1 QRO     -0.295400
     12 CAK        -0.1840   -0.3030   -2.6510 c3        1 QRO      0.010800
     13 CAJ        -0.8620    1.0420   -2.8770 c3        1 QRO     -0.043100
     14 CAO        -2.3420    0.9290   -2.7670 ca        1 QRO     -0.043300
     15 CAI        -2.9170    0.7680   -1.5010 ca        1 QRO     -0.131000
     16 CAQ        -4.3100    0.6740   -1.3720 ca        1 QRO      0.085900
     17 FAF        -4.8810    0.5200   -0.1540 f         1 QRO     -0.137900
     18 CAP        -5.1330    0.7420   -2.5290 ca        1 QRO      0.059900
     19 FAE        -6.4810    0.6530   -2.4120 f         1 QRO     -0.147900
     20 CAH        -4.5410    0.9010   -3.7910 ca        1 QRO     -0.156000
     21 CAG        -3.1580    0.9930   -3.9010 ca        1 QRO     -0.132000
     22 H2          4.0990   -0.2020   -4.3240 hn        1 QRO      0.331500
     23 H4         -0.3940   -0.9820   -3.5190 hc        1 QRO      0.058700
     24 H5         -0.6110   -0.7680   -1.7190 hc        1 QRO      0.058700
     25 H6         -0.5720    1.4460   -3.8820 hc        1 QRO      0.064700
     26 H7         -0.4940    1.7540   -2.0850 hc        1 QRO      0.064700
     27 H8         -2.2610    0.7160   -0.6080 ha        1 QRO      0.212000
     28 H9         -5.1820    0.9500   -4.6820 ha        1 QRO      0.135000
     29 H10        -2.7000    1.1140   -4.8950 ha        1 QRO      0.137000
     30 H11         3.6590    0.3150   -0.2690 hn        1 QRO      0.367500
@<TRIPOS>BOND
     1    1    2 1   
     2    2    3 1   
     3    2    4 1   
     4    4    5 1   
     5    4   11 2   
     6    5    6 1   
     7    5   30 1   
     8    6    7 2   
     9    6    8 1   
    10    8    9 1   
    11    8   22 1   
    12    9   10 2   
    13    9   11 1   
    14   11   12 1   
    15   12   13 1   
    16   12   23 1   
    17   12   24 1   
    18   13   14 1   
    19   13   25 1   
    20   13   26 1   
    21   14   15 ar  
    22   14   21 ar  
    23   15   16 ar  
    24   15   27 1   
    25   16   17 1   
    26   16   18 ar  
    27   18   19 1   
    28   18   20 ar  
    29   20   21 ar  
    30   20   28 1   
    31   21   29 1   
@<TRIPOS>SUBSTRUCTURE
     1 QRO         1 TEMP              0 ****  ****    0 ROOT
