@<TRIPOS>MOLECULE
QRP
   38    41     1     0     0
SMALL
bcc


@<TRIPOS>ATOM
      1 C          -0.0040   -0.0220    0.0710 c         1 QRP      0.673500
      2 N           2.0580    0.1940    1.4410 n         1 QRP     -0.568900
      3 O          -0.6040   -0.7010   -0.7810 o         1 QRP     -0.620500
      4 CA          1.5380    0.0320    0.1080 c3        1 QRP      0.047700
      5 CB          2.0900   -1.2240   -0.5980 c3        1 QRP     -0.012200
      6 CG          3.5480   -1.1720   -0.7520 cc        1 QRP     -0.160400
      7 OAA         1.8240    0.9010    3.5930 o         1 QRP     -0.636500
      8 CAH        -2.3120    0.7810    2.7560 c3        1 QRP     -0.098400
      9 CAI        -0.9910    1.3050    3.3070 c3        1 QRP     -0.082400
     10 CAJ        -2.0990    0.5530    1.2510 c3        1 QRP      0.076000
     11 CAN         1.3460    0.8010    2.4470 c         1 QRP      0.684500
     12 CAT        -0.0250    1.3950    2.1050 c3        1 QRP      0.019700
     13 NAU        -0.6940    0.7990    0.9530 n         1 QRP     -0.442800
     14 CD1         4.2490   -0.6580   -1.8450 cd        1 QRP     -0.090100
     15 CD2         4.5340   -1.6670    0.1880 ca        1 QRP     -0.094800
     16 NE1         5.6220   -0.7920   -1.6420 na        1 QRP     -0.189400
     17 CE2         5.8280   -1.4100   -0.4060 ca        1 QRP     -0.046200
     18 CE3         4.4650   -2.2920    1.4340 ca        1 QRP     -0.095000
     19 CH2         6.8990   -2.3840    1.4930 ca        1 QRP     -0.111000
     20 CZ2         7.0130   -1.7710    0.2550 ca        1 QRP     -0.141000
     21 CZ3         5.6440   -2.6430    2.0750 ca        1 QRP     -0.148000
     22 HN          2.9580   -0.1930    1.6330 hn        1 QRP      0.344500
     23 HA          1.8330    0.9370   -0.5100 h1        1 QRP      0.069700
     24 HB          1.7970   -2.1400   -0.0180 hc        1 QRP      0.075700
     25 HBA         1.5890   -1.2880   -1.6020 hc        1 QRP      0.075700
     26 HAH        -2.6000   -0.1760    3.2560 hc        1 QRP      0.055700
     27 HAHA       -3.1370    1.5160    2.9210 hc        1 QRP      0.055700
     28 HAI        -0.5750    0.6250    4.0920 hc        1 QRP      0.070200
     29 HAIA       -1.1140    2.3170    3.7640 hc        1 QRP      0.070200
     30 HAJ        -2.3900   -0.4890    0.9430 h1        1 QRP      0.063700
     31 HAJA       -2.7140    1.2780    0.6480 h1        1 QRP      0.063700
     32 HAT         0.1670    2.4840    1.8580 h1        1 QRP      0.084700
     33 HD1         3.8620   -0.2060   -2.7610 h4        1 QRP      0.169000
     34 HE3         3.4890   -2.5060    1.8920 ha        1 QRP      0.137000
     35 HH2         7.8090   -2.6780    2.0360 ha        1 QRP      0.132000
     36 HZ2         7.9950   -1.5750   -0.1940 ha        1 QRP      0.133000
     37 HZ3         5.6050   -3.1340    3.0590 ha        1 QRP      0.134000
     38 HNE1        6.3300   -0.5240   -2.2720 hn        1 QRP      0.300700
@<TRIPOS>BOND
     1    1    3 2   
     2    1    4 1   
     3    1   13 1   
     4    2    4 1   
     5    2   11 1   
     6    2   22 1   
     7    4    5 1   
     8    4   23 1   
     9    5    6 1   
    10    5   24 1   
    11    5   25 1   
    12    6   14 2   
    13    6   15 1   
    14    7   11 2   
    15    8    9 1   
    16    8   10 1   
    17    8   26 1   
    18    8   27 1   
    19    9   12 1   
    20    9   28 1   
    21    9   29 1   
    22   10   13 1   
    23   10   30 1   
    24   10   31 1   
    25   11   12 1   
    26   12   13 1   
    27   12   32 1   
    28   14   16 1   
    29   14   33 1   
    30   15   17 ar  
    31   15   18 ar  
    32   16   17 1   
    33   16   38 1   
    34   17   20 ar  
    35   18   21 ar  
    36   18   34 1   
    37   19   20 ar  
    38   19   21 ar  
    39   19   35 1   
    40   20   36 1   
    41   21   37 1   
@<TRIPOS>SUBSTRUCTURE
     1 QRP         1 TEMP              0 ****  ****    0 ROOT
