@<TRIPOS>MOLECULE
QRP
   38    41     1     0     0
SMALL
bcc


@<TRIPOS>ATOM
      1 C          -0.0060   -0.0210    0.0740 c         1 QRP      0.673500
      2 N           2.0570    0.1950    1.4440 ns        1 QRP     -0.568900
      3 O          -0.6060   -0.6990   -0.7790 o         1 QRP     -0.620500
      4 CA          1.5360    0.0340    0.1100 c3        1 QRP      0.047700
      5 CB          2.0890   -1.2210   -0.5960 c3        1 QRP     -0.012200
      6 CG          3.5460   -1.1680   -0.7510 cc        1 QRP     -0.160400
      7 OAA         1.8230    0.9010    3.5960 o         1 QRP     -0.636500
      8 CAH        -2.3140    0.7790    2.7600 c3        1 QRP     -0.098400
      9 CAI        -0.9930    1.3040    3.3110 c3        1 QRP     -0.082400
     10 CAJ        -2.1010    0.5520    1.2550 c3        1 QRP      0.076000
     11 CAN         1.3440    0.8020    2.4500 c         1 QRP      0.684500
     12 CAT        -0.0270    1.3950    2.1090 c3        1 QRP      0.019700
     13 NAU        -0.6970    0.7990    0.9570 n         1 QRP     -0.442800
     14 CD1         4.2470   -0.6520   -1.8440 cd        1 QRP     -0.090100
     15 CD2         4.5330   -1.6620    0.1880 ca        1 QRP     -0.094800
     16 NE1         5.6210   -0.7850   -1.6410 na        1 QRP     -0.189400
     17 CE2         5.8270   -1.4050   -0.4060 ca        1 QRP     -0.046200
     18 CE3         4.4650   -2.2890    1.4340 ca        1 QRP     -0.095000
     19 CH2         6.8990   -2.3800    1.4920 ca        1 QRP     -0.111000
     20 CZ2         7.0120   -1.7660    0.2550 ca        1 QRP     -0.141000
     21 CZ3         5.6440   -2.6400    2.0740 ca        1 QRP     -0.148000
     22 HN          2.9560   -0.1910    1.6350 hn        1 QRP      0.344500
     23 HA          1.8300    0.9400   -0.5070 h1        1 QRP      0.069700
     24 HB          1.7960   -2.1380   -0.0170 hc        1 QRP      0.075700
     25 HBA         1.5870   -1.2840   -1.6010 hc        1 QRP      0.075700
     26 HAH        -2.6010   -0.1780    3.2600 hc        1 QRP      0.055700
     27 HAHA       -3.1390    1.5140    2.9260 hc        1 QRP      0.055700
     28 HAI        -0.5760    0.6240    4.0950 hc        1 QRP      0.070200
     29 HAIA       -1.1160    2.3150    3.7690 hc        1 QRP      0.070200
     30 HAJ        -2.3910   -0.4900    0.9470 h1        1 QRP      0.063700
     31 HAJA       -2.7160    1.2770    0.6530 h1        1 QRP      0.063700
     32 HAT         0.1640    2.4840    1.8620 h1        1 QRP      0.084700
     33 HD1         3.8600   -0.1990   -2.7590 h4        1 QRP      0.169000
     34 HE3         3.4890   -2.5040    1.8920 ha        1 QRP      0.137000
     35 HH2         7.8090   -2.6740    2.0350 ha        1 QRP      0.132000
     36 HZ2         7.9940   -1.5680   -0.1950 ha        1 QRP      0.133000
     37 HZ3         5.6060   -3.1320    3.0570 ha        1 QRP      0.134000
     38 HNE1        6.3280   -0.5170   -2.2710 hn        1 QRP      0.300700
@<TRIPOS>BOND
     1    1    3 2   
     2    1    4 1   
     3    1   13 1   
     4    2    4 1   
     5    2   11 1   
     6    2   22 1   
     7    4    5 1   
     8    4   23 1   
     9    5    6 1   
    10    5   24 1   
    11    5   25 1   
    12    6   14 2   
    13    6   15 1   
    14    7   11 2   
    15    8    9 1   
    16    8   10 1   
    17    8   26 1   
    18    8   27 1   
    19    9   12 1   
    20    9   28 1   
    21    9   29 1   
    22   10   13 1   
    23   10   30 1   
    24   10   31 1   
    25   11   12 1   
    26   12   13 1   
    27   12   32 1   
    28   14   16 1   
    29   14   33 1   
    30   15   17 ar  
    31   15   18 ar  
    32   16   17 1   
    33   16   38 1   
    34   17   20 ar  
    35   18   21 ar  
    36   18   34 1   
    37   19   20 ar  
    38   19   21 ar  
    39   19   35 1   
    40   20   36 1   
    41   21   37 1   
@<TRIPOS>SUBSTRUCTURE
     1 QRP         1 TEMP              0 ****  ****    0 ROOT
