@<TRIPOS>MOLECULE
QRP
   38    35     1     0     0
SMALL
bcc


@<TRIPOS>ATOM
      1 C          -2.1960    0.0860    0.2710 c1        1 QRP      0.523500
      2 N          -0.5040    0.2790    1.2930 n         1 QRP     -0.514500
      3 O          -2.8350   -0.3870   -0.6580 o         1 QRP     -0.577500
      4 CA         -0.9390    0.1680    0.1940 c2        1 QRP      0.212500
      5 CB         -0.2160   -1.2310   -0.6870 c3        1 QRP     -0.100500
      6 CG          1.1620   -0.8340   -1.2370 ce        1 QRP     -0.202000
      7 OAA        -0.6080    1.8260    2.9900 o         1 QRP     -0.594100
      8 CAH        -3.0480    3.0940    1.7460 c3        1 QRP     -0.099400
      9 CAI        -2.8850    2.2770    2.6160 c3        1 QRP     -0.081400
     10 CAJ        -3.1630    2.4530    0.7430 c3        1 QRP      0.017300
     11 CAN        -1.1640    1.3170    2.0420 c         1 QRP      0.643100
     12 CAT        -2.3400    1.2370    2.0220 c3        1 QRP     -0.039000
     13 NAU        -2.7760    1.1500    1.0910 n3        1 QRP     -0.258400
     14 CD1         1.4740    0.2100   -2.0890 c1        1 QRP      0.216500
     15 CD2         2.1990   -1.7480   -1.2850 cg        1 QRP     -0.111300
     16 NE1         2.6920   -0.0570   -2.6580 ne        1 QRP     -0.484400
     17 CE2         3.1430   -1.2700   -2.1600 cg        1 QRP      0.049000
     18 CE3         2.4050   -2.9750   -0.6290 c1        1 QRP     -0.027500
     19 CH2         4.5180   -3.2190   -1.7540 c1        1 QRP     -0.073500
     20 CZ2         4.3150   -2.0090   -2.4010 c1        1 QRP     -0.085500
     21 CZ3         3.5630   -3.7030   -0.8680 c1        1 QRP     -0.073500
     22 HN          0.3790    0.0800    1.4610 hn        1 QRP      0.333500
     23 HA         -0.6680    0.9130   -0.3690 h4        1 QRP      0.001800
     24 HB         -0.1170   -1.9900   -0.0710 hc        1 QRP      0.067200
     25 HBA        -0.8040   -1.4880   -1.4310 hc        1 QRP      0.067200
     26 HAH        -3.8680    3.6180    1.9160 hc        1 QRP      0.056700
     27 HAHA       -2.2670    3.6890    1.6840 hc        1 QRP      0.056700
     28 HAI        -3.7800    1.9980    2.9150 hc        1 QRP      0.069700
     29 HAIA       -2.2090    2.6420    3.2230 hc        1 QRP      0.069700
     30 HAJ        -2.5740    2.8080    0.0420 h1        1 QRP      0.065200
     31 HAJA       -4.1040    2.4610    0.4380 h1        1 QRP      0.065200
     32 HAT        -2.5880    0.4360    2.5390 h1        1 QRP      0.084700
     33 HD1         0.9010    0.9700   -2.2960 DU        1 QRP      0.211000
     34 HE3         1.7350   -3.3150   -0.0060 ha        1 QRP      0.076500
     35 HH2         5.3360   -3.7340   -1.9230 ha        1 QRP      0.074500
     36 HZ2         4.9910   -1.6670   -3.0280 ha        1 QRP      0.075500
     37 HZ3         3.7060   -4.5560   -0.4120 ha        1 QRP      0.074500
     38 HNE1        3.1330    0.4750   -3.2630 DU        1 QRP      0.211000
@<TRIPOS>BOND
     1    1    3 2   
     2    1   13 2   
     3    2    4 2   
     4    2   11 1   
     5    2   22 1   
     6    4    5 1   
     7    4   23 1   
     8    5    6 1   
     9    5   24 1   
    10    5   25 1   
    11    6   14 2   
    12    6   15 1   
    13    7   11 2   
    14    8    9 1   
    15    8   10 1   
    16    8   26 1   
    17    8   27 1   
    18    9   12 1   
    19    9   28 1   
    20    9   29 1   
    21   10   13 1   
    22   10   30 1   
    23   10   31 1   
    24   11   12 1   
    25   12   13 1   
    26   12   32 1   
    27   14   16 2   
    28   15   18 3   
    29   16   17 1   
    30   17   20 3   
    31   18   34 1   
    32   19   21 3   
    33   19   35 1   
    34   20   36 1   
    35   21   37 1   
@<TRIPOS>SUBSTRUCTURE
     1 QRP         1 TEMP              0 ****  ****    0 ROOT
