@<TRIPOS>MOLECULE
QRP
   38    41     1     0     0
SMALL
bcc


@<TRIPOS>ATOM
      1 C          -0.0060   -0.0210    0.0750 c         1 QRP      0.673500
      2 N           2.0570    0.1960    1.4440 n         1 QRP     -0.568900
      3 O          -0.6070   -0.6990   -0.7770 o         1 QRP     -0.620500
      4 CA          1.5360    0.0340    0.1100 c3        1 QRP      0.047700
      5 CB          2.0880   -1.2220   -0.5960 c3        1 QRP     -0.012200
      6 CG          3.5450   -1.1700   -0.7510 cc        1 QRP     -0.160400
      7 OAA         1.8250    0.9030    3.5950 o         1 QRP     -0.636500
      8 CAH        -2.3120    0.7820    2.7610 c3        1 QRP     -0.098400
      9 CAI        -0.9910    1.3060    3.3120 c3        1 QRP     -0.082400
     10 CAJ        -2.1010    0.5550    1.2560 c3        1 QRP      0.076000
     11 CAN         1.3450    0.8030    2.4490 c         1 QRP      0.684500
     12 CAT        -0.0260    1.3970    2.1080 c3        1 QRP      0.019700
     13 NAU        -0.6960    0.8000    0.9580 n         1 QRP     -0.442800
     14 CD1         4.2460   -0.6560   -1.8450 cd        1 QRP     -0.090100
     15 CD2         4.5320   -1.6640    0.1880 ca        1 QRP     -0.094800
     16 NE1         5.6190   -0.7890   -1.6430 na        1 QRP     -0.189400
     17 CE2         5.8260   -1.4080   -0.4060 ca        1 QRP     -0.046200
     18 CE3         4.4650   -2.2890    1.4350 ca        1 QRP     -0.095000
     19 CH2         6.8980   -2.3810    1.4910 ca        1 QRP     -0.111000
     20 CZ2         7.0110   -1.7690    0.2540 ca        1 QRP     -0.141000
     21 CZ3         5.6440   -2.6400    2.0740 ca        1 QRP     -0.148000
     22 HN          2.9570   -0.1900    1.6340 hn        1 QRP      0.344500
     23 HA          1.8300    0.9400   -0.5080 h1        1 QRP      0.069700
     24 HB          1.5860   -1.2860   -1.6000 hc        1 QRP      0.075700
     25 HBA         1.7950   -2.1380   -0.0150 hc        1 QRP      0.075700
     26 HAH        -2.6000   -0.1750    3.2620 hc        1 QRP      0.055700
     27 HAHA       -3.1370    1.5170    2.9280 hc        1 QRP      0.055700
     28 HAI        -0.5740    0.6260    4.0960 hc        1 QRP      0.070200
     29 HAIA       -1.1130    2.3180    3.7690 hc        1 QRP      0.070200
     30 HAJ        -2.7160    1.2790    0.6540 h1        1 QRP      0.063700
     31 HAJA       -2.3910   -0.4870    0.9490 h1        1 QRP      0.063700
     32 HAT         0.1660    2.4860    1.8610 h1        1 QRP      0.084700
     33 HD1         3.8580   -0.2030   -2.7600 h4        1 QRP      0.169000
     34 HE3         3.4880   -2.5030    1.8930 ha        1 QRP      0.137000
     35 HH2         7.8090   -2.6760    2.0340 ha        1 QRP      0.132000
     36 HZ2         7.9930   -1.5720   -0.1970 ha        1 QRP      0.133000
     37 HZ3         5.6050   -3.1310    3.0580 ha        1 QRP      0.134000
     38 HNE1        6.3260   -0.5220   -2.2730 hn        1 QRP      0.300700
@<TRIPOS>BOND
     1    1    3 2   
     2    1    4 1   
     3    1   13 1   
     4    2    4 1   
     5    2   11 1   
     6    2   22 1   
     7    4    5 1   
     8    4   23 1   
     9    5    6 1   
    10    5   24 1   
    11    5   25 1   
    12    6   14 2   
    13    6   15 1   
    14    7   11 2   
    15    8    9 1   
    16    8   10 1   
    17    8   26 1   
    18    8   27 1   
    19    9   12 1   
    20    9   28 1   
    21    9   29 1   
    22   10   13 1   
    23   10   30 1   
    24   10   31 1   
    25   11   12 1   
    26   12   13 1   
    27   12   32 1   
    28   14   16 1   
    29   14   33 1   
    30   15   17 ar  
    31   15   18 ar  
    32   16   17 1   
    33   16   38 1   
    34   17   20 ar  
    35   18   21 ar  
    36   18   34 1   
    37   19   20 ar  
    38   19   21 ar  
    39   19   35 1   
    40   20   36 1   
    41   21   37 1   
@<TRIPOS>SUBSTRUCTURE
     1 QRP         1 TEMP              0 ****  ****    0 ROOT
