@<TRIPOS>MOLECULE
QRP
   38    41     1     0     0
SMALL
bcc


@<TRIPOS>ATOM
      1 C           2.0590   -1.3100   -0.2180 c         1 QRP      0.673500
      2 N           0.5580    0.5460    0.4740 n         1 QRP     -0.568900
      3 O           2.1890   -2.3070   -0.9500 o         1 QRP     -0.620500
      4 CA          0.6730   -0.8810    0.3070 c3        1 QRP      0.047700
      5 CB         -0.4080   -1.4590   -0.6290 c3        1 QRP     -0.012200
      6 CG         -1.7610   -1.2360   -0.1110 cc        1 QRP     -0.160400
      7 OAA         1.5020    2.5870    0.8300 o         1 QRP     -0.636500
      8 CAH         5.0580    0.7210   -0.4730 c3        1 QRP     -0.098400
      9 CAI         4.1470    1.6060    0.3700 c3        1 QRP     -0.082400
     10 CAJ         4.4400   -0.6860   -0.4550 c3        1 QRP      0.076000
     11 CAN         1.6420    1.3540    0.7150 c         1 QRP      0.684500
     12 CAT         3.0140    0.6920    0.8890 c3        1 QRP      0.019700
     13 NAU         3.1650   -0.6090    0.2450 n         1 QRP     -0.442800
     14 CD1        -2.4880   -2.0990    0.7140 cd        1 QRP     -0.090100
     15 CD2        -2.6100   -0.0910   -0.3760 ca        1 QRP     -0.094800
     16 NE1        -3.7430   -1.5560    0.9910 na        1 QRP     -0.189400
     17 CE2        -3.8480   -0.3280    0.3340 ca        1 QRP     -0.046200
     18 CE3        -2.4640    1.0780   -1.1250 ca        1 QRP     -0.095000
     19 CH2        -4.7090    1.7510   -0.4650 ca        1 QRP     -0.111000
     20 CZ2        -4.8990    0.6020    0.2870 ca        1 QRP     -0.141000
     21 CZ3        -3.5110    1.9860   -1.1630 ca        1 QRP     -0.148000
     22 HN         -0.3480    0.9480    0.3660 hn        1 QRP      0.344500
     23 HA          0.5570   -1.3760    1.3220 h1        1 QRP      0.069700
     24 HB         -0.3060   -1.0010   -1.6490 hc        1 QRP      0.075700
     25 HBA        -0.2020   -2.5600   -0.7340 hc        1 QRP      0.075700
     26 HAH         5.1230    1.1030   -1.5210 hc        1 QRP      0.055700
     27 HAHA        6.0920    0.6930   -0.0530 hc        1 QRP      0.055700
     28 HAI         4.6970    2.0470    1.2370 hc        1 QRP      0.070200
     29 HAIA        3.7240    2.4500   -0.2300 hc        1 QRP      0.070200
     30 HAJ         4.2930   -1.0890   -1.4950 h1        1 QRP      0.063700
     31 HAJA        5.1010   -1.4040    0.1050 h1        1 QRP      0.063700
     32 HAT         3.1380    0.5350    2.0030 h1        1 QRP      0.084700
     33 HD1        -2.1970   -3.0690    1.1230 h4        1 QRP      0.169000
     34 HE3        -1.5340    1.2650   -1.6810 ha        1 QRP      0.137000
     35 HH2        -5.5140    2.4990   -0.5200 ha        1 QRP      0.132000
     36 HZ2        -5.8380    0.4240    0.8270 ha        1 QRP      0.133000
     37 HZ3        -3.4080    2.9130   -1.7480 ha        1 QRP      0.134000
     38 HNE1       -4.4490   -1.9770    1.5330 hn        1 QRP      0.300700
@<TRIPOS>BOND
     1    1    3 2   
     2    1    4 1   
     3    1   13 1   
     4    2    4 1   
     5    2   11 1   
     6    2   22 1   
     7    4    5 1   
     8    4   23 1   
     9    5    6 1   
    10    5   24 1   
    11    5   25 1   
    12    6   14 2   
    13    6   15 1   
    14    7   11 2   
    15    8    9 1   
    16    8   10 1   
    17    8   26 1   
    18    8   27 1   
    19    9   12 1   
    20    9   28 1   
    21    9   29 1   
    22   10   13 1   
    23   10   30 1   
    24   10   31 1   
    25   11   12 1   
    26   12   13 1   
    27   12   32 1   
    28   14   16 1   
    29   14   33 1   
    30   15   17 ar  
    31   15   18 ar  
    32   16   17 1   
    33   16   38 1   
    34   17   20 ar  
    35   18   21 ar  
    36   18   34 1   
    37   19   20 ar  
    38   19   21 ar  
    39   19   35 1   
    40   20   36 1   
    41   21   37 1   
@<TRIPOS>SUBSTRUCTURE
     1 QRP         1 TEMP              0 ****  ****    0 ROOT
