@<TRIPOS>MOLECULE
QRW
   56    59     1     0     0
SMALL
bcc


@<TRIPOS>ATOM
      1 C1         -1.0470   -2.1350   -2.7920 ca        1 QRW     -0.099500
      2 C2         -0.3050   -3.3160   -2.6560 ca        1 QRW     -0.223800
      3 C3          1.0690   -3.2770   -2.9620 ca        1 QRW      0.399700
      4 N4          1.7090   -2.1680   -3.3800 nb        1 QRW     -0.640000
      5 C5          0.9790   -1.0440   -3.5080 ca        1 QRW      0.399700
      6 C6         -0.3980   -0.9730   -3.2290 ca        1 QRW     -0.223800
      7 C7         -2.4760   -2.1440   -2.5030 cc        1 QRW      0.428000
      8 N8         -3.3750   -3.1270   -2.8460 nd        1 QRW     -0.348000
      9 N9         -4.5690   -2.7910   -2.4220 nd        1 QRW     -0.392000
     10 C10        -4.5080   -1.5780   -1.7810 cc        1 QRW      0.308800
     11 N11        -3.1780   -1.1320   -1.8130 na        1 QRW     -0.296700
     12 C12        -2.6580    0.0660   -1.2390 c3        1 QRW      0.009600
     13 C13        -5.6600   -0.8310   -1.1660 c3        1 QRW      0.157500
     14 N14        -6.8640   -1.6080   -0.9760 nh        1 QRW     -0.685600
     15 C15        -7.4950   -2.0640   -2.1620 ca        1 QRW      0.120600
     16 C16        -8.1050   -1.1460   -3.0440 ca        1 QRW     -0.074000
     17 C17        -8.7530   -1.5930   -4.1940 ca        1 QRW     -0.107000
     18 C18        -8.7910   -2.9470   -4.5130 ca        1 QRW     -0.110000
     19 C19        -8.1930   -3.8680   -3.6430 ca        1 QRW     -0.181600
     20 C20        -7.5720   -3.4420   -2.4630 ca        1 QRW     -0.068000
     21 C21        -8.1730   -5.3060   -3.9100 c         1 QRW      0.582700
     22 O22        -8.2900   -6.2440   -3.1350 o         1 QRW     -0.422100
     23 N23        -7.9240   -5.7200   -5.3520 n4        1 QRW     -0.685800
     24 C24        -6.5640   -5.2950   -5.8170 c3        1 QRW      0.160100
     25 C25        -6.2060   -5.9240   -7.1250 ca        1 QRW     -0.129300
     26 C26        -6.5690   -5.3550   -8.3570 ca        1 QRW     -0.147300
     27 C27        -6.1620   -5.9520   -9.5510 ca        1 QRW     -0.074000
     28 C28        -5.3950   -7.1210   -9.5250 ca        1 QRW     -0.088000
     29 C29        -5.0340   -7.6900   -8.3070 ca        1 QRW     -0.090000
     30 C30        -5.4390   -7.0940   -7.1110 ca        1 QRW     -0.101000
     31 C31        -7.3910   -4.0690   -8.4300 c3        1 QRW      0.685200
     32 F32        -7.7970   -3.7050   -9.6840 f         1 QRW     -0.232633
     33 F33        -8.5650   -4.1240   -7.7040 f         1 QRW     -0.232633
     34 F34        -6.7580   -2.9590   -7.9300 f         1 QRW     -0.232633
     35 H2         -0.7770   -4.2510   -2.3230 ha        1 QRW      0.153000
     36 H3          1.6920   -4.1850   -2.8670 h4        1 QRW      0.035600
     37 H5          1.5300   -0.1500   -3.8570 h4        1 QRW      0.035600
     38 H6         -0.9430   -0.0300   -3.3700 ha        1 QRW      0.153000
     39 H12        -3.1750    0.2740   -0.2640 h1        1 QRW      0.071367
     40 H12A       -1.5550   -0.0510   -1.0580 h1        1 QRW      0.071367
     41 H12B       -2.8260    0.9310   -1.9370 h1        1 QRW      0.071367
     42 H13        -5.3500   -0.4470   -0.1490 h1        1 QRW      0.082700
     43 H13A       -5.8970    0.0540   -1.8260 h1        1 QRW      0.082700
     44 HN14       -6.7110   -2.3650   -0.3320 hn        1 QRW      0.399800
     45 H16        -8.0760   -0.0650   -2.8230 ha        1 QRW      0.165000
     46 H17        -9.2380   -0.8620   -4.8620 ha        1 QRW      0.164000
     47 H18        -9.3040   -3.2690   -5.4330 ha        1 QRW      0.140000
     48 H20        -7.1180   -4.1870   -1.7870 ha        1 QRW      0.168000
     49 HN23       -8.0060   -6.7420   -5.4280 hn        1 QRW      0.460300
     50 H24        -6.5660   -4.1660   -5.8940 hx        1 QRW      0.126700
     51 H24A       -5.8170   -5.5920   -5.0210 hx        1 QRW      0.126700
     52 H27        -6.4440   -5.5000  -10.5190 ha        1 QRW      0.176000
     53 H28        -5.0750   -7.5840  -10.4740 ha        1 QRW      0.170000
     54 H29        -4.4240   -8.6080   -8.2820 ha        1 QRW      0.167000
     55 H30        -5.1340   -7.5420   -6.1510 ha        1 QRW      0.153000
     56 H232       -8.6360   -5.2900   -5.9590 hn        1 QRW      0.460300
@<TRIPOS>BOND
     1    1    2 ar  
     2    1    6 ar  
     3    1    7 1   
     4    2    3 ar  
     5    2   35 1   
     6    3    4 ar  
     7    3   36 1   
     8    4    5 ar  
     9    5    6 ar  
    10    5   37 1   
    11    6   38 1   
    12    7    8 2   
    13    7   11 1   
    14    8    9 1   
    15    9   10 2   
    16   10   11 1   
    17   10   13 1   
    18   11   12 1   
    19   12   39 1   
    20   12   40 1   
    21   12   41 1   
    22   13   14 1   
    23   13   42 1   
    24   13   43 1   
    25   14   15 1   
    26   14   44 1   
    27   15   16 ar  
    28   15   20 ar  
    29   16   17 ar  
    30   16   45 1   
    31   17   18 ar  
    32   17   46 1   
    33   18   19 ar  
    34   18   47 1   
    35   19   20 ar  
    36   19   21 1   
    37   20   48 1   
    38   21   22 2   
    39   21   23 1   
    40   23   24 1   
    41   23   49 1   
    42   23   56 1   
    43   24   25 1   
    44   24   50 1   
    45   24   51 1   
    46   25   26 ar  
    47   25   30 ar  
    48   26   27 ar  
    49   26   31 1   
    50   27   28 ar  
    51   27   52 1   
    52   28   29 ar  
    53   28   53 1   
    54   29   30 ar  
    55   29   54 1   
    56   30   55 1   
    57   31   32 1   
    58   31   33 1   
    59   31   34 1   
@<TRIPOS>SUBSTRUCTURE
     1 QRW         1 TEMP              0 ****  ****    0 ROOT
