@<TRIPOS>MOLECULE
QRW
   57    60     1     0     0
SMALL
bcc


@<TRIPOS>ATOM
      1 C1         -0.0630    0.1170    0.3190 ca        1 QRW     -0.135500
      2 C2          1.1160   -0.4650    0.8030 ca        1 QRW     -0.215300
      3 C3          1.6900    0.0760    1.9710 ca        1 QRW      0.410200
      4 N4          1.1700    1.1200    2.6410 nb        1 QRW     -0.618000
      5 C5          0.0430    1.6750    2.1540 ca        1 QRW      0.410200
      6 C6         -0.6130    1.2140    0.9990 ca        1 QRW     -0.215300
      7 C7         -0.6700   -0.4030   -0.9010 cc        1 QRW      0.494000
      8 N8          0.0090   -0.8310   -2.0340 nd        1 QRW     -0.298000
      9 N9         -0.8460   -1.2150   -2.9290 nd        1 QRW     -0.337000
     10 C10        -2.1290   -1.0760   -2.4360 cc        1 QRW      0.190800
     11 N11        -2.0470   -0.5650   -1.1290 na        1 QRW     -0.264700
     12 C12        -3.1320   -0.2530   -0.2540 c3        1 QRW      0.000600
     13 C13        -3.3720   -1.3830   -3.1910 c3        1 QRW      0.138500
     14 N14        -3.0850   -2.4410   -4.2280 n4        1 QRW     -0.635400
     15 C15        -4.2640   -2.7840   -5.0250 ca        1 QRW     -0.044400
     16 C16        -4.7340   -1.8780   -5.9980 ca        1 QRW     -0.042000
     17 C17        -5.8300   -2.2300   -6.7820 ca        1 QRW     -0.094000
     18 C18        -6.4630   -3.4640   -6.6180 ca        1 QRW     -0.040000
     19 C19        -6.0000   -4.3620   -5.6490 ca        1 QRW     -0.167600
     20 C20        -4.8950   -4.0240   -4.8450 ca        1 QRW     -0.034000
     21 C21        -6.5810   -5.6950   -5.4080 c         1 QRW      0.558700
     22 O22        -6.1010   -6.5590   -4.6830 o         1 QRW     -0.408100
     23 N23        -7.8770   -6.0630   -6.0690 n4        1 QRW     -0.681800
     24 C24        -7.6520   -6.6990   -7.4190 c3        1 QRW      0.168100
     25 C25        -8.9220   -7.2180   -8.0050 ca        1 QRW     -0.153300
     26 C26        -9.8380   -6.3900   -8.6830 ca        1 QRW     -0.150300
     27 C27       -10.9660   -6.9410   -9.2880 ca        1 QRW     -0.064000
     28 C28       -11.1980   -8.3200   -9.2180 ca        1 QRW     -0.070000
     29 C29       -10.3020   -9.1430   -8.5410 ca        1 QRW     -0.084000
     30 C30        -9.1680   -8.5930   -7.9350 ca        1 QRW     -0.088000
     31 C31        -9.6300   -4.8820   -8.7790 c3        1 QRW      0.684200
     32 F32       -10.5730   -4.1900   -9.4790 f         1 QRW     -0.235633
     33 F33        -9.5970   -4.2560   -7.5420 f         1 QRW     -0.235633
     34 F34        -8.4280   -4.4940   -9.3250 f         1 QRW     -0.235633
     35 H2          1.5940   -1.3120    0.2900 ha        1 QRW      0.155000
     36 H3          2.6230   -0.3510    2.3890 h4        1 QRW      0.048600
     37 H5         -0.3510    2.5410    2.7200 h4        1 QRW      0.048600
     38 H6         -1.5130    1.7280    0.6360 ha        1 QRW      0.155000
     39 H12        -3.9390   -1.0260   -0.3550 h1        1 QRW      0.080700
     40 H12A       -3.5510    0.7610   -0.5010 h1        1 QRW      0.080700
     41 H12B       -2.7600   -0.2450    0.8100 h1        1 QRW      0.080700
     42 H13        -4.1850   -1.7630   -2.5080 hx        1 QRW      0.111700
     43 H13A       -3.7390   -0.4650   -3.7370 hx        1 QRW      0.111700
     44 HN14       -2.7160   -3.2800   -3.7570 hn        1 QRW      0.482800
     45 H16        -4.2440   -0.8990   -6.1570 ha        1 QRW      0.189000
     46 H17        -6.1990   -1.5240   -7.5510 ha        1 QRW      0.203000
     47 H18        -7.3170   -3.6990   -7.2810 ha        1 QRW      0.176000
     48 H20        -4.5380   -4.7530   -4.0910 ha        1 QRW      0.188000
     49 HN23       -8.3700   -6.7450   -5.4710 hn        1 QRW      0.476300
     50 H24        -7.1870   -5.9190   -8.0900 hx        1 QRW      0.120200
     51 H24A       -6.9130   -7.5420   -7.2720 hx        1 QRW      0.120200
     52 H27       -11.6800   -6.2930   -9.8280 ha        1 QRW      0.186000
     53 H28       -12.0920   -8.7490   -9.7050 ha        1 QRW      0.184000
     54 H29       -10.4790  -10.2310   -8.4850 ha        1 QRW      0.180000
     55 H30        -8.4590   -9.2590   -7.4170 ha        1 QRW      0.156000
     56 H142       -2.3450   -2.0920   -4.8640 hn        1 QRW      0.482800
     57 H232       -8.4820   -5.2330   -6.1760 hn        1 QRW      0.476300
@<TRIPOS>BOND
     1    1    2 ar  
     2    1    6 ar  
     3    1    7 1   
     4    2    3 ar  
     5    2   35 1   
     6    3    4 ar  
     7    3   36 1   
     8    4    5 ar  
     9    5    6 ar  
    10    5   37 1   
    11    6   38 1   
    12    7    8 2   
    13    7   11 1   
    14    8    9 1   
    15    9   10 2   
    16   10   11 1   
    17   10   13 1   
    18   11   12 1   
    19   12   39 1   
    20   12   40 1   
    21   12   41 1   
    22   13   14 1   
    23   13   42 1   
    24   13   43 1   
    25   14   15 1   
    26   14   44 1   
    27   14   56 1   
    28   15   16 ar  
    29   15   20 ar  
    30   16   17 ar  
    31   16   45 1   
    32   17   18 ar  
    33   17   46 1   
    34   18   19 ar  
    35   18   47 1   
    36   19   20 ar  
    37   19   21 1   
    38   20   48 1   
    39   21   22 2   
    40   21   23 1   
    41   23   24 1   
    42   23   49 1   
    43   23   57 1   
    44   24   25 1   
    45   24   50 1   
    46   24   51 1   
    47   25   26 ar  
    48   25   30 ar  
    49   26   27 ar  
    50   26   31 1   
    51   27   28 ar  
    52   27   52 1   
    53   28   29 ar  
    54   28   53 1   
    55   29   30 ar  
    56   29   54 1   
    57   30   55 1   
    58   31   32 1   
    59   31   33 1   
    60   31   34 1   
@<TRIPOS>SUBSTRUCTURE
     1 QRW         1 TEMP              0 ****  ****    0 ROOT
