@<TRIPOS>MOLECULE
QRW
   55    58     1     0     0
SMALL
bcc


@<TRIPOS>ATOM
      1 C1         -7.6340    0.5490   -0.3840 ca        1 QRW     -0.082500
      2 C2         -8.2480    0.6150   -1.6440 ca        1 QRW     -0.223300
      3 C3         -9.3960    1.4150   -1.7840 ca        1 QRW      0.392700
      4 N4         -9.9430    2.1230   -0.7770 nb        1 QRW     -0.653000
      5 C5         -9.3450    2.0410    0.4270 ca        1 QRW      0.392700
      6 C6         -8.1960    1.2710    0.6780 ca        1 QRW     -0.223300
      7 C7         -6.4530   -0.2850   -0.2030 cc        1 QRW      0.402000
      8 N8         -6.2210   -1.5070   -0.7970 nd        1 QRW     -0.331000
      9 N9         -5.0600   -1.9680   -0.4090 nd        1 QRW     -0.333000
     10 C10        -4.4780   -1.0750    0.4560 cc        1 QRW      0.329800
     11 N11        -5.3430    0.0220    0.6080 na        1 QRW     -0.294700
     12 C12        -5.1230    1.1880    1.3980 c3        1 QRW      0.009600
     13 C13        -3.1520   -1.2230    1.1390 c3        1 QRW      0.163500
     14 N14        -2.1460   -0.3630    0.5500 nh        1 QRW     -0.729600
     15 C15        -0.8060   -0.5900    0.9170 ca        1 QRW      0.128600
     16 C16        -0.4530   -1.2020    2.1400 ca        1 QRW     -0.164000
     17 C17         0.8830   -1.3040    2.5150 ca        1 QRW     -0.102000
     18 C18         1.8980   -0.8240    1.6910 ca        1 QRW     -0.141000
     19 C19         1.5630   -0.2310    0.4700 ca        1 QRW     -0.104600
     20 C20         0.2310   -0.1090    0.0810 ca        1 QRW     -0.130000
     21 C21         2.6070    0.3110   -0.4490 c         1 QRW      0.668700
     22 O22         2.4310    1.3690   -1.0880 o         1 QRW     -0.609100
     23 N23         3.7580   -0.4400   -0.6170 n         1 QRW     -0.555900
     24 C24         4.8610    0.0350   -1.4030 c3        1 QRW      0.122300
     25 C25         5.8570    0.8730   -0.6420 ca        1 QRW     -0.071300
     26 C26         6.9830    0.3250   -0.0150 ca        1 QRW     -0.160300
     27 C27         7.8960    1.1530    0.6450 ca        1 QRW     -0.091000
     28 C28         7.6830    2.5290    0.6920 ca        1 QRW     -0.130000
     29 C29         6.5540    3.0800    0.0860 ca        1 QRW     -0.102000
     30 C30         5.6450    2.2550   -0.5750 ca        1 QRW     -0.116000
     31 C31         7.2440   -1.1780   -0.0330 c3        1 QRW      0.687200
     32 F32         8.2710   -1.5980    0.7770 f         1 QRW     -0.239967
     33 F33         6.1780   -1.9490    0.3740 f         1 QRW     -0.239967
     34 F34         7.5690   -1.6890   -1.2670 f         1 QRW     -0.239967
     35 H2         -7.8500    0.0510   -2.4990 ha        1 QRW      0.155000
     36 H3         -9.9090    1.4930   -2.7600 h4        1 QRW      0.028100
     37 H5         -9.8180    2.6240    1.2390 h4        1 QRW      0.028100
     38 H6         -7.7700    1.2290    1.6880 ha        1 QRW      0.155000
     39 H12        -5.4950    1.0170    2.4460 h1        1 QRW      0.069367
     40 H12A       -4.0250    1.4240    1.4340 h1        1 QRW      0.069367
     41 H12B       -5.6760    2.0580    0.9500 h1        1 QRW      0.069367
     42 H13        -3.2660   -0.9270    2.2240 h1        1 QRW      0.067200
     43 H13A       -2.8560   -2.3140    1.1070 h1        1 QRW      0.067200
     44 HN14       -2.2600   -0.2470   -0.4390 hn        1 QRW      0.406800
     45 H16        -1.2280   -1.5980    2.8130 ha        1 QRW      0.136000
     46 H17         1.1390   -1.7740    3.4780 ha        1 QRW      0.138000
     47 H18         2.9460   -0.9030    2.0160 ha        1 QRW      0.138000
     48 H20         0.0010    0.3840   -0.8780 ha        1 QRW      0.157000
     49 HN23        3.9370   -1.1970    0.0020 hn        1 QRW      0.321500
     50 H24         5.3870   -0.8650   -1.8380 h1        1 QRW      0.079200
     51 H24A        4.4520    0.6540   -2.2560 h1        1 QRW      0.079200
     52 H27         8.7840    0.7160    1.1300 ha        1 QRW      0.152000
     53 H28         8.4050    3.1770    1.2100 ha        1 QRW      0.143000
     54 H29         6.3780    4.1660    0.1290 ha        1 QRW      0.143000
     55 H30         4.7410    2.6800   -1.0440 ha        1 QRW      0.166000
@<TRIPOS>BOND
     1    1    2 ar  
     2    1    6 ar  
     3    1    7 1   
     4    2    3 ar  
     5    2   35 1   
     6    3    4 ar  
     7    3   36 1   
     8    4    5 ar  
     9    5    6 ar  
    10    5   37 1   
    11    6   38 1   
    12    7    8 2   
    13    7   11 1   
    14    8    9 1   
    15    9   10 2   
    16   10   11 1   
    17   10   13 1   
    18   11   12 1   
    19   12   39 1   
    20   12   40 1   
    21   12   41 1   
    22   13   14 1   
    23   13   42 1   
    24   13   43 1   
    25   14   15 1   
    26   14   44 1   
    27   15   16 ar  
    28   15   20 ar  
    29   16   17 ar  
    30   16   45 1   
    31   17   18 ar  
    32   17   46 1   
    33   18   19 ar  
    34   18   47 1   
    35   19   20 ar  
    36   19   21 1   
    37   20   48 1   
    38   21   22 2   
    39   21   23 1   
    40   23   24 1   
    41   23   49 1   
    42   24   25 1   
    43   24   50 1   
    44   24   51 1   
    45   25   26 ar  
    46   25   30 ar  
    47   26   27 ar  
    48   26   31 1   
    49   27   28 ar  
    50   27   52 1   
    51   28   29 ar  
    52   28   53 1   
    53   29   30 ar  
    54   29   54 1   
    55   30   55 1   
    56   31   32 1   
    57   31   33 1   
    58   31   34 1   
@<TRIPOS>SUBSTRUCTURE
     1 QRW         1 TEMP              0 ****  ****    0 ROOT
