@<TRIPOS>MOLECULE
QRW
   56    59     1     0     0
SMALL
bcc


@<TRIPOS>ATOM
      1 C1         -1.0390   -2.1520   -2.7840 ca        1 QRW     -0.099500
      2 C2         -0.2980   -3.3350   -2.6590 ca        1 QRW     -0.223800
      3 C3          1.0750   -3.2940   -2.9660 ca        1 QRW      0.399700
      4 N4          1.7160   -2.1830   -3.3760 nb        1 QRW     -0.640000
      5 C5          0.9880   -1.0560   -3.4940 ca        1 QRW      0.399700
      6 C6         -0.3890   -0.9860   -3.2120 ca        1 QRW     -0.223800
      7 C7         -2.4680   -2.1610   -2.4940 cc        1 QRW      0.428000
      8 N8         -3.3680   -3.1410   -2.8440 nd        1 QRW     -0.348000
      9 N9         -4.5610   -2.8070   -2.4160 nd        1 QRW     -0.392000
     10 C10        -4.4980   -1.5990   -1.7660 cc        1 QRW      0.308800
     11 N11        -3.1670   -1.1550   -1.7960 na        1 QRW     -0.296700
     12 C12        -2.6460    0.0380   -1.2130 c3        1 QRW      0.009600
     13 C13        -5.6480   -0.8560   -1.1430 c3        1 QRW      0.157500
     14 N14        -6.8530   -1.6320   -0.9590 nu        1 QRW     -0.685600
     15 C15        -7.4860   -2.0780   -2.1490 ca        1 QRW      0.120600
     16 C16        -8.0950   -1.1510   -3.0220 ca        1 QRW     -0.074000
     17 C17        -8.7450   -1.5880   -4.1760 ca        1 QRW     -0.107000
     18 C18        -8.7870   -2.9390   -4.5060 ca        1 QRW     -0.111000
     19 C19        -8.1900   -3.8680   -3.6430 ca        1 QRW     -0.181600
     20 C20        -7.5660   -3.4530   -2.4610 ca        1 QRW     -0.068000
     21 C21        -8.1730   -5.3040   -3.9210 c         1 QRW      0.582700
     22 O22        -8.2900   -6.2470   -3.1530 o         1 QRW     -0.422100
     23 N23        -7.9310   -5.7080   -5.3670 ny        1 QRW     -0.685800
     24 C24        -6.5720   -5.2830   -5.8340 c3        1 QRW      0.160100
     25 C25        -6.2190   -5.9030   -7.1470 ca        1 QRW     -0.129300
     26 C26        -6.5850   -5.3250   -8.3740 ca        1 QRW     -0.147300
     27 C27        -6.1840   -5.9140   -9.5740 ca        1 QRW     -0.074000
     28 C28        -5.4200   -7.0840   -9.5590 ca        1 QRW     -0.088000
     29 C29        -5.0560   -7.6630   -8.3460 ca        1 QRW     -0.090000
     30 C30        -5.4550   -7.0740   -7.1440 ca        1 QRW     -0.101000
     31 C31        -7.4050   -4.0360   -8.4350 c3        1 QRW      0.685200
     32 F32        -7.8150   -3.6620   -9.6850 f         1 QRW     -0.232633
     33 F33        -8.5770   -4.0930   -7.7050 f         1 QRW     -0.232633
     34 F34        -6.7680   -2.9310   -7.9290 f         1 QRW     -0.232633
     35 H2         -0.7700   -4.2710   -2.3330 ha        1 QRW      0.153000
     36 H3          1.6980   -4.2040   -2.8790 h4        1 QRW      0.035600
     37 H5          1.5390   -0.1610   -3.8360 h4        1 QRW      0.035600
     38 H6         -0.9320   -0.0420   -3.3450 ha        1 QRW      0.153000
     39 H12        -3.1610    0.2400   -0.2350 h1        1 QRW      0.071367
     40 H12A       -2.8140    0.9100   -1.9040 h1        1 QRW      0.071367
     41 H12B       -1.5430   -0.0800   -1.0330 h1        1 QRW      0.071367
     42 H13        -5.8850    0.0350   -1.7960 h1        1 QRW      0.082700
     43 H13A       -5.3380   -0.4800   -0.1240 h1        1 QRW      0.082700
     44 HN14       -6.7010   -2.3950   -0.3220 hn        1 QRW      0.399800
     45 H16        -8.0640   -0.0720   -2.7930 ha        1 QRW      0.165000
     46 H17        -9.2290   -0.8500   -4.8380 ha        1 QRW      0.164000
     47 H18        -9.3020   -3.2520   -5.4270 ha        1 QRW      0.140000
     48 H20        -7.1130   -4.2050   -1.7910 ha        1 QRW      0.168000
     49 HN23       -8.0150   -6.7290   -5.4500 hn        1 QRW      0.460300
     50 H24        -5.8230   -5.5870   -5.0430 hx        1 QRW      0.126700
     51 H24A       -6.5710   -4.1540   -5.9030 hx        1 QRW      0.126700
     52 H27        -6.4680   -5.4540  -10.5370 ha        1 QRW      0.176000
     53 H28        -5.1040   -7.5410  -10.5120 ha        1 QRW      0.170000
     54 H29        -4.4470   -8.5820   -8.3300 ha        1 QRW      0.167000
     55 H30        -5.1480   -7.5300   -6.1890 ha        1 QRW      0.153000
     56 H232       -8.6440   -5.2720   -5.9690 hn        1 QRW      0.460300
@<TRIPOS>BOND
     1    1    2 ar  
     2    1    6 ar  
     3    1    7 1   
     4    2    3 ar  
     5    2   35 1   
     6    3    4 ar  
     7    3   36 1   
     8    4    5 ar  
     9    5    6 ar  
    10    5   37 1   
    11    6   38 1   
    12    7    8 2   
    13    7   11 1   
    14    8    9 1   
    15    9   10 2   
    16   10   11 1   
    17   10   13 1   
    18   11   12 1   
    19   12   39 1   
    20   12   40 1   
    21   12   41 1   
    22   13   14 1   
    23   13   42 1   
    24   13   43 1   
    25   14   15 1   
    26   14   44 1   
    27   15   16 ar  
    28   15   20 ar  
    29   16   17 ar  
    30   16   45 1   
    31   17   18 ar  
    32   17   46 1   
    33   18   19 ar  
    34   18   47 1   
    35   19   20 ar  
    36   19   21 1   
    37   20   48 1   
    38   21   22 2   
    39   21   23 1   
    40   23   24 1   
    41   23   49 1   
    42   23   56 1   
    43   24   25 1   
    44   24   50 1   
    45   24   51 1   
    46   25   26 ar  
    47   25   30 ar  
    48   26   27 ar  
    49   26   31 1   
    50   27   28 ar  
    51   27   52 1   
    52   28   29 ar  
    53   28   53 1   
    54   29   30 ar  
    55   29   54 1   
    56   30   55 1   
    57   31   32 1   
    58   31   33 1   
    59   31   34 1   
@<TRIPOS>SUBSTRUCTURE
     1 QRW         1 TEMP              0 ****  ****    0 ROOT
