@<TRIPOS>MOLECULE
QRW
   55    48     1     0     0
SMALL
bcc


@<TRIPOS>ATOM
      1 C1          7.0780    1.8000    1.7500 c1        1 QRW      0.027000
      2 C2          7.7880    2.8310    2.3050 c1        1 QRW     -0.111250
      3 C3          9.1730    2.8350    2.2370 c1        1 QRW     -0.111250
      4 N4          9.8270    1.8140    1.6190 n1        1 QRW     -0.128000
      5 C5          9.1230    0.7880    1.0670 c1        1 QRW     -0.072000
      6 C6          7.7330    0.7820    1.1340 c1        1 QRW     -0.178000
      7 C7          5.6600    1.7640    1.8750 c1        1 QRW     -0.095000
      8 N8          4.9700    1.2630    2.9160 n2        1 QRW     -0.073500
      9 N9          3.6460    1.3770    2.6370 n2        1 QRW     -0.073500
     10 C10         3.5240    1.9480    1.4230 c1        1 QRW     -0.095000
     11 N11         4.7700    2.1890    0.9470 n2        1 QRW     -0.150000
     12 C12         5.1050    2.8600   -0.3490 c2        1 QRW     -0.082000
     13 C13         2.2100    2.2850    0.7190 c2        1 QRW      0.026000
     14 N14         1.1150    1.6240    1.4020 n3        1 QRW     -0.255000
     15 C15        -0.1460    1.4380    0.7260 c2        1 QRW      0.034000
     16 C16        -0.8760    2.5390    0.3150 c2        1 QRW     -0.144000
     17 C17        -2.1390    2.3680   -0.2510 c1        1 QRW     -0.114000
     18 C18        -2.6660    1.0910   -0.4030 c1        1 QRW     -0.132000
     19 C19        -1.9320   -0.0190    0.0090 c1        1 QRW     -0.090000
     20 C20        -0.6750    0.1520    0.5730 c1        1 QRW     -0.117000
     21 C21        -2.5660   -1.4300   -0.0580 c2        1 QRW      0.344000
     22 O22        -1.9260   -2.4070    0.3030 o         1 QRW     -0.369000
     23 N23        -3.9460   -1.5790   -0.4500 n         1 QRW     -0.367000
     24 C24        -4.5860   -2.8850   -0.3880 c3        1 QRW      0.000000
     25 C25        -5.9190   -2.8440   -1.1630 c2        1 QRW     -0.063000
     26 C26        -6.2420   -3.8760   -2.0560 c2        1 QRW     -0.153000
     27 C27        -7.4680   -3.8680   -2.7140 c1        1 QRW     -0.091000
     28 C28        -8.3720   -2.8410   -2.4880 c1        1 QRW     -0.111250
     29 C29        -8.0510   -1.8110   -1.5970 c1        1 QRW     -0.111250
     30 C30        -6.8210   -1.8170   -0.9360 c1        1 QRW     -0.115000
     31 C31        -5.2260   -4.9880   -2.3470 c3        1 QRW      0.466000
     32 F32        -5.7660   -5.8710   -3.2120 f         1 QRW     -0.168667
     33 F33        -4.1260   -4.4590   -2.8830 f         1 QRW     -0.168667
     34 F34        -4.9100   -5.6160   -1.2090 f         1 QRW     -0.168667
     35 H2          7.3320    3.5440    2.7360 ha        1 QRW      0.154500
     36 H3          9.6880    3.5840    2.6390 ha        1 QRW      0.154500
     37 H5          9.5900    0.0620    0.6270 ha        1 QRW      0.163000
     38 H6          7.2310    0.0500    0.7400 ha        1 QRW      0.143000
     39 H12         4.2810    3.0370   -0.8500 ha        1 QRW      0.102333
     40 H12A        5.5680    3.7080   -0.1680 ha        1 QRW      0.102333
     41 H12B        5.6980    2.2660   -0.8850 ha        1 QRW      0.102333
     42 H13         2.0690    3.2530    0.7360 h4        1 QRW      0.110000
     43 H13A        2.2470    1.9800   -0.1980 h4        1 QRW      0.110000
     44 HN14        1.2390    1.2820    2.2210 hn        1 QRW      0.205000
     45 H16        -0.4990    3.4540    0.4240 ha        1 QRW      0.132000
     46 H17        -2.6520    3.1440   -0.5390 ha        1 QRW      0.135000
     47 H18        -3.5800    0.9680   -0.8130 ha        1 QRW      0.137000
     48 H20        -0.1590   -0.6260    0.8620 ha        1 QRW      0.161000
     49 HN23       -4.4240   -0.8510   -0.7140 hn        1 QRW      0.234000
     50 H24        -4.7640   -3.1250    0.5690 h1        1 QRW      0.118500
     51 H24A       -4.0030   -3.5500   -0.7850 h1        1 QRW      0.118500
     52 H27        -7.6950   -4.5960   -3.3440 ha        1 QRW      0.152000
     53 H28        -9.2480   -2.8360   -2.9590 ha        1 QRW      0.154500
     54 H29        -8.6850   -1.0900   -1.4390 ha        1 QRW      0.154500
     55 H30        -6.5970   -1.0970   -0.3130 ha        1 QRW      0.167000
@<TRIPOS>BOND
     1    1    6 1   
     2    2    3 1   
     3    2   35 1   
     4    3   36 1   
     5    4    5 1   
     6    5   37 1   
     7    6   38 1   
     8    7    8 1   
     9    7   11 1   
    10    8    9 1   
    11    9   10 1   
    12   10   11 1   
    13   12   39 1   
    14   12   40 1   
    15   12   41 1   
    16   13   14 1   
    17   13   42 1   
    18   13   43 1   
    19   14   15 1   
    20   14   44 1   
    21   15   16 1   
    22   15   20 1   
    23   16   17 1   
    24   16   45 1   
    25   17   46 1   
    26   18   19 1   
    27   18   47 1   
    28   19   21 1   
    29   20   48 1   
    30   21   22 1   
    31   21   23 1   
    32   23   24 1   
    33   23   49 1   
    34   24   25 1   
    35   24   50 1   
    36   24   51 1   
    37   25   26 1   
    38   25   30 1   
    39   26   27 1   
    40   26   31 1   
    41   27   52 1   
    42   28   29 1   
    43   28   53 1   
    44   29   54 1   
    45   30   55 1   
    46   31   32 1   
    47   31   33 1   
    48   31   34 1   
@<TRIPOS>SUBSTRUCTURE
     1 QRW         1 TEMP              0 ****  ****    0 ROOT
