@<TRIPOS>MOLECULE
QRX
   58    61     1     0     0
SMALL
bcc


@<TRIPOS>ATOM
      1 C1         -2.0880   -1.9120   -3.1920 ca        1 QRX      0.397300
      2 C2         -1.5740   -3.1320   -3.6790 ca        1 QRX     -0.321600
      3 C3         -0.3350   -3.0770   -4.3560 ca        1 QRX      0.430200
      4 N4          0.3380   -1.9270   -4.5390 nb        1 QRX     -0.668000
      5 C5         -0.2460   -0.8070   -4.0250 ca        1 QRX      0.637900
      6 N6         -1.4250   -0.7340   -3.3580 nb        1 QRX     -0.698000
      7 C7         -3.3890   -1.9140   -2.5110 cc        1 QRX      0.318500
      8 N8         -4.4490   -2.7340   -2.8290 nd        1 QRX     -0.357000
      9 N9         -5.4540   -2.4680   -2.0320 nd        1 QRX     -0.404000
     10 C10        -5.0970   -1.4670   -1.1600 cc        1 QRX      0.315800
     11 N11        -3.7740   -1.0910   -1.4360 na        1 QRX     -0.270700
     12 C12        -3.0190   -0.0770   -0.7470 c3        1 QRX      0.033300
     13 C13        -3.2430    1.3460   -1.2600 c3        1 QRX     -0.095400
     14 C14        -2.4450    2.3160   -0.4280 c3        1 QRX     -0.098100
     15 C15        -5.9660   -0.8570   -0.0930 c3        1 QRX      0.155500
     16 N16        -7.1890   -1.5720    0.1930 nu        1 QRX     -0.685600
     17 C17        -8.1190   -1.6470   -0.8770 ca        1 QRX      0.124600
     18 C18        -8.4070   -2.8770   -1.5060 ca        1 QRX     -0.082000
     19 C19        -9.3030   -2.9150   -2.5760 ca        1 QRX     -0.182600
     20 C20        -9.9720   -1.7630   -3.0060 ca        1 QRX     -0.112000
     21 C21        -9.7270   -0.5600   -2.3490 ca        1 QRX     -0.104000
     22 C22        -8.8030   -0.4890   -1.3080 ca        1 QRX     -0.080000
     23 C23        -9.5020   -4.1980   -3.2590 c         1 QRX      0.584700
     24 N24        -9.0430   -4.1970   -4.7120 ny        1 QRX     -0.686800
     25 O25        -9.9470   -5.2580   -2.8530 o         1 QRX     -0.401100
     26 C26        -7.5600   -4.4170   -4.8010 c3        1 QRX      0.174100
     27 C27        -7.0960   -4.4540   -6.2150 ca        1 QRX     -0.251300
     28 C28        -7.1710   -3.2980   -7.0270 ca        1 QRX      0.175900
     29 C29        -6.6490   -3.2920   -8.3280 ca        1 QRX     -0.163000
     30 C30        -6.0500   -4.4480   -8.8290 ca        1 QRX     -0.041000
     31 C31        -5.9730   -5.6050   -8.0610 ca        1 QRX     -0.163000
     32 C32        -6.4970   -5.6120   -6.7550 ca        1 QRX      0.175900
     33 F33        -6.4230   -6.7380   -6.0110 f         1 QRX     -0.129900
     34 F34        -7.7730   -2.1890   -6.5320 f         1 QRX     -0.129900
     35 H2         -2.1070   -4.0800   -3.5420 ha        1 QRX      0.172000
     36 H3          0.1320   -3.9930   -4.7630 h4        1 QRX      0.043100
     37 H5          0.3010    0.1490   -4.1680 h5        1 QRX      0.068100
     38 H12        -1.9230   -0.3310   -0.8250 h1        1 QRX      0.076700
     39 H12A       -3.3090   -0.1240    0.3440 h1        1 QRX      0.076700
     40 H13        -4.3330    1.6060   -1.2050 hc        1 QRX      0.058700
     41 H13A       -2.9310    1.4190   -2.3350 hc        1 QRX      0.058700
     42 H14        -2.7540    2.2740    0.6440 hc        1 QRX      0.046033
     43 H14A       -2.6050    3.3570   -0.8000 hc        1 QRX      0.046033
     44 H14B       -1.3530    2.0860   -0.4890 hc        1 QRX      0.046033
     45 H15        -5.3820   -0.8010    0.8730 h1        1 QRX      0.085700
     46 H15A       -6.2250    0.1940   -0.4150 h1        1 QRX      0.085700
     47 HN16       -6.9990   -2.4830    0.5720 hn        1 QRX      0.398800
     48 H18        -7.9060   -3.8030   -1.1760 ha        1 QRX      0.162000
     49 H20       -10.7010   -1.8020   -3.8290 ha        1 QRX      0.140000
     50 H21       -10.2660    0.3500   -2.6600 ha        1 QRX      0.163000
     51 H22        -8.6120    0.4800   -0.8170 ha        1 QRX      0.165000
     52 HN24       -9.2680   -3.2900   -5.1380 hn        1 QRX      0.457300
     53 H26        -7.0510   -3.5700   -4.2460 hx        1 QRX      0.134200
     54 H26A       -7.3240   -5.3880   -4.2750 hx        1 QRX      0.134200
     55 H29        -6.7120   -2.3780   -8.9380 ha        1 QRX      0.178000
     56 H30        -5.6330   -4.4440   -9.8510 ha        1 QRX      0.171000
     57 H31        -5.5030   -6.5190   -8.4590 ha        1 QRX      0.178000
     58 H242       -9.5240   -4.9400   -5.2300 hn        1 QRX      0.457300
@<TRIPOS>BOND
     1    1    2 ar  
     2    1    6 ar  
     3    1    7 1   
     4    2    3 ar  
     5    2   35 1   
     6    3    4 ar  
     7    3   36 1   
     8    4    5 ar  
     9    5    6 ar  
    10    5   37 1   
    11    7    8 2   
    12    7   11 1   
    13    8    9 1   
    14    9   10 2   
    15   10   11 1   
    16   10   15 1   
    17   11   12 1   
    18   12   13 1   
    19   12   38 1   
    20   12   39 1   
    21   13   14 1   
    22   13   40 1   
    23   13   41 1   
    24   14   42 1   
    25   14   43 1   
    26   14   44 1   
    27   15   16 1   
    28   15   45 1   
    29   15   46 1   
    30   16   17 1   
    31   16   47 1   
    32   17   18 ar  
    33   17   22 ar  
    34   18   19 ar  
    35   18   48 1   
    36   19   20 ar  
    37   19   23 1   
    38   20   21 ar  
    39   20   49 1   
    40   21   22 ar  
    41   21   50 1   
    42   22   51 1   
    43   23   24 1   
    44   23   25 2   
    45   24   26 1   
    46   24   52 1   
    47   24   58 1   
    48   26   27 1   
    49   26   53 1   
    50   26   54 1   
    51   27   28 ar  
    52   27   32 ar  
    53   28   29 ar  
    54   28   34 1   
    55   29   30 ar  
    56   29   55 1   
    57   30   31 ar  
    58   30   56 1   
    59   31   32 ar  
    60   31   57 1   
    61   32   33 1   
@<TRIPOS>SUBSTRUCTURE
     1 QRX         1 TEMP              0 ****  ****    0 ROOT
