@<TRIPOS>MOLECULE
QRX
   58    61     1     0     0
SMALL
bcc


@<TRIPOS>ATOM
      1 C1         -2.0880   -1.8930   -3.1950 ca        1 QRX      0.397300
      2 C2         -1.5670   -3.1080   -3.6870 ca        1 QRX     -0.321600
      3 C3         -0.3300   -3.0420   -4.3650 ca        1 QRX      0.430200
      4 N4          0.3360   -1.8870   -4.5450 nb        1 QRX     -0.668000
      5 C5         -0.2550   -0.7730   -4.0260 ca        1 QRX      0.637900
      6 N6         -1.4340   -0.7100   -3.3580 nb        1 QRX     -0.698000
      7 C7         -3.3890   -1.9060   -2.5120 cc        1 QRX      0.318500
      8 N8         -4.4440   -2.7320   -2.8310 nd        1 QRX     -0.357000
      9 N9         -5.4490   -2.4750   -2.0330 nd        1 QRX     -0.404000
     10 C10        -5.0970   -1.4750   -1.1570 cc        1 QRX      0.315800
     11 N11        -3.7770   -1.0900   -1.4330 na        1 QRX     -0.270700
     12 C12        -3.0270   -0.0740   -0.7410 c3        1 QRX      0.033300
     13 C13        -3.2620    1.3500   -1.2490 c3        1 QRX     -0.095400
     14 C14        -2.4680    2.3220   -0.4140 c3        1 QRX     -0.098100
     15 C15        -5.9690   -0.8750   -0.0860 c3        1 QRX      0.155500
     16 N16        -7.1870   -1.5990    0.1990 nh        1 QRX     -0.685600
     17 C17        -8.1170   -1.6740   -0.8710 ca        1 QRX      0.124600
     18 C18        -8.3990   -2.9040   -1.5050 ca        1 QRX     -0.082000
     19 C19        -9.2960   -2.9420   -2.5750 ca        1 QRX     -0.182600
     20 C20        -9.9730   -1.7910   -2.9980 ca        1 QRX     -0.112000
     21 C21        -9.7340   -0.5900   -2.3360 ca        1 QRX     -0.104000
     22 C22        -8.8090   -0.5190   -1.2960 ca        1 QRX     -0.080000
     23 C23        -9.4880   -4.2220   -3.2640 c         1 QRX      0.584700
     24 N24        -9.0320   -4.2120   -4.7170 n4        1 QRX     -0.686800
     25 O25        -9.9260   -5.2870   -2.8620 o         1 QRX     -0.401100
     26 C26        -7.5480   -4.4220   -4.8100 c3        1 QRX      0.174100
     27 C27        -7.0860   -4.4480   -6.2250 ca        1 QRX     -0.251300
     28 C28        -7.1690   -3.2880   -7.0300 ca        1 QRX      0.175900
     29 C29        -6.6490   -3.2720   -8.3320 ca        1 QRX     -0.163000
     30 C30        -6.0450   -4.4210   -8.8410 ca        1 QRX     -0.041000
     31 C31        -5.9600   -5.5820   -8.0800 ca        1 QRX     -0.163000
     32 C32        -6.4820   -5.6000   -6.7720 ca        1 QRX      0.175900
     33 F33        -6.4010   -6.7300   -6.0360 f         1 QRX     -0.129900
     34 F34        -7.7760   -2.1850   -6.5270 f         1 QRX     -0.129900
     35 H2         -2.0940   -4.0600   -3.5520 ha        1 QRX      0.172000
     36 H3          0.1430   -3.9540   -4.7760 h4        1 QRX      0.043100
     37 H5          0.2850    0.1880   -4.1660 h5        1 QRX      0.068100
     38 H12        -1.9300   -0.3210   -0.8220 h1        1 QRX      0.076700
     39 H12A       -3.3160   -0.1270    0.3500 h1        1 QRX      0.076700
     40 H13        -4.3540    1.6020   -1.1910 hc        1 QRX      0.058700
     41 H13A       -2.9520    1.4290   -2.3240 hc        1 QRX      0.058700
     42 H14        -2.6360    3.3630   -0.7820 hc        1 QRX      0.046033
     43 H14A       -1.3750    2.0990   -0.4770 hc        1 QRX      0.046033
     44 H14B       -2.7760    2.2730    0.6590 hc        1 QRX      0.046033
     45 H15        -6.2350    0.1760   -0.4030 h1        1 QRX      0.085700
     46 H15A       -5.3840   -0.8210    0.8790 h1        1 QRX      0.085700
     47 HN16       -6.9910   -2.5110    0.5730 hn        1 QRX      0.398800
     48 H18        -7.8920   -3.8280   -1.1800 ha        1 QRX      0.162000
     49 H20       -10.7020   -1.8310   -3.8200 ha        1 QRX      0.140000
     50 H21       -10.2790    0.3180   -2.6420 ha        1 QRX      0.163000
     51 H22        -8.6230    0.4490   -0.8000 ha        1 QRX      0.165000
     52 HN24       -9.5100   -4.9550   -5.2390 hn        1 QRX      0.457300
     53 H26        -7.3050   -5.3950   -4.2900 hx        1 QRX      0.134200
     54 H26A       -7.0420   -3.5750   -4.2510 hx        1 QRX      0.134200
     55 H29        -6.7180   -2.3540   -8.9370 ha        1 QRX      0.178000
     56 H30        -5.6290   -4.4080   -9.8640 ha        1 QRX      0.171000
     57 H31        -5.4860   -6.4920   -8.4830 ha        1 QRX      0.178000
     58 H242       -9.2630   -3.3030   -5.1380 hn        1 QRX      0.457300
@<TRIPOS>BOND
     1    1    2 ar  
     2    1    6 ar  
     3    1    7 1   
     4    2    3 ar  
     5    2   35 1   
     6    3    4 ar  
     7    3   36 1   
     8    4    5 ar  
     9    5    6 ar  
    10    5   37 1   
    11    7    8 2   
    12    7   11 1   
    13    8    9 1   
    14    9   10 2   
    15   10   11 1   
    16   10   15 1   
    17   11   12 1   
    18   12   13 1   
    19   12   38 1   
    20   12   39 1   
    21   13   14 1   
    22   13   40 1   
    23   13   41 1   
    24   14   42 1   
    25   14   43 1   
    26   14   44 1   
    27   15   16 1   
    28   15   45 1   
    29   15   46 1   
    30   16   17 1   
    31   16   47 1   
    32   17   18 ar  
    33   17   22 ar  
    34   18   19 ar  
    35   18   48 1   
    36   19   20 ar  
    37   19   23 1   
    38   20   21 ar  
    39   20   49 1   
    40   21   22 ar  
    41   21   50 1   
    42   22   51 1   
    43   23   24 1   
    44   23   25 2   
    45   24   26 1   
    46   24   52 1   
    47   24   58 1   
    48   26   27 1   
    49   26   53 1   
    50   26   54 1   
    51   27   28 ar  
    52   27   32 ar  
    53   28   29 ar  
    54   28   34 1   
    55   29   30 ar  
    56   29   55 1   
    57   30   31 ar  
    58   30   56 1   
    59   31   32 ar  
    60   31   57 1   
    61   32   33 1   
@<TRIPOS>SUBSTRUCTURE
     1 QRX         1 TEMP              0 ****  ****    0 ROOT
