@<TRIPOS>MOLECULE
QRX
   59    62     1     0     0
SMALL
bcc


@<TRIPOS>ATOM
      1 C1          0.2520   -0.2570   -0.0570 ca        1 QRX      0.358300
      2 C2          1.4380   -1.0080    0.0340 ca        1 QRX     -0.294600
      3 C3          2.4870   -0.4480    0.8050 ca        1 QRX      0.441200
      4 N4          2.3720    0.7380    1.4240 nb        1 QRX     -0.644000
      5 C5          1.1770    1.3830    1.2700 ca        1 QRX      0.646900
      6 N6          0.1060    0.9510    0.5630 nb        1 QRX     -0.712000
      7 C7         -0.8570   -0.7680   -0.8760 cc        1 QRX      0.384500
      8 N8         -0.7040   -1.6170   -1.9720 nd        1 QRX     -0.306000
      9 N9         -1.8640   -1.8680   -2.4840 nd        1 QRX     -0.322000
     10 C10        -2.8390   -1.1920   -1.7690 cc        1 QRX      0.176800
     11 N11        -2.2170   -0.4800   -0.7270 na        1 QRX     -0.233700
     12 C12        -2.8910    0.2920    0.2900 c3        1 QRX      0.021300
     13 C13        -3.1880    1.7400   -0.1030 c3        1 QRX     -0.089400
     14 C14        -3.9190    2.4270    1.0220 c3        1 QRX     -0.103100
     15 C15        -4.2860   -1.2600   -2.0740 c3        1 QRX      0.140500
     16 N16        -4.4950   -0.9600   -3.5440 n4        1 QRX     -0.645400
     17 C17        -5.8590   -1.2530   -3.9860 ca        1 QRX     -0.039400
     18 C18        -6.1960   -2.5630   -4.3650 ca        1 QRX     -0.032000
     19 C19        -7.5000   -2.8390   -4.8090 ca        1 QRX     -0.171600
     20 C20        -8.4580   -1.8190   -4.8590 ca        1 QRX     -0.049000
     21 C21        -8.1120   -0.5220   -4.4750 ca        1 QRX     -0.093000
     22 C22        -6.8210   -0.2260   -4.0400 ca        1 QRX     -0.044000
     23 C23        -7.7790   -4.2450   -5.1660 c         1 QRX      0.553700
     24 N24        -8.9890   -4.5150   -6.0130 n4        1 QRX     -0.674800
     25 O25        -7.0970   -5.2070   -4.8380 o         1 QRX     -0.389100
     26 C26        -9.0720   -5.9480   -6.4890 c3        1 QRX      0.191100
     27 C27       -10.2730   -6.1550   -7.3350 ca        1 QRX     -0.284300
     28 C28       -10.1550   -6.5350   -8.6900 ca        1 QRX      0.177900
     29 C29       -11.2990   -6.8670   -9.4420 ca        1 QRX     -0.153500
     30 C30       -12.5550   -6.8100   -8.8480 ca        1 QRX     -0.024000
     31 C31       -12.7060   -6.4110   -7.5170 ca        1 QRX     -0.153500
     32 C32       -11.5690   -6.0820   -6.7690 ca        1 QRX      0.177900
     33 F33       -11.6880   -5.6680   -5.4820 f         1 QRX     -0.131900
     34 F34        -8.9330   -6.5860   -9.2640 f         1 QRX     -0.131900
     35 H2          1.5620   -1.9770   -0.4680 ha        1 QRX      0.184000
     36 H3          3.4510   -0.9790    0.9230 h4        1 QRX      0.059100
     37 H5          1.0760    2.3670    1.7780 h5        1 QRX      0.076100
     38 H12        -2.2570    0.2850    1.2240 h1        1 QRX      0.087200
     39 H12A       -3.8590   -0.2380    0.5320 h1        1 QRX      0.087200
     40 H13        -3.8110    1.7650   -1.0350 hc        1 QRX      0.051700
     41 H13A       -2.2290    2.2830   -0.3180 hc        1 QRX      0.051700
     42 H14        -3.2970    2.4380    1.9500 hc        1 QRX      0.053700
     43 H14A       -4.1390    3.4860    0.7390 hc        1 QRX      0.053700
     44 H14B       -4.8840    1.9130    1.2500 hc        1 QRX      0.053700
     45 H15        -4.8840   -0.5170   -1.4720 hx        1 QRX      0.117200
     46 H15A       -4.6780   -2.3040   -1.8890 hx        1 QRX      0.117200
     47 HN16       -3.8320   -1.5280   -4.1000 hn        1 QRX      0.477300
     48 H18        -5.4560   -3.3860   -4.3190 ha        1 QRX      0.194000
     49 H20        -9.4960   -2.0060   -5.1820 ha        1 QRX      0.162000
     50 H21        -8.8700    0.2830   -4.5140 ha        1 QRX      0.199000
     51 H22        -6.5750    0.8120   -3.7490 ha        1 QRX      0.185000
     52 HN24       -8.9790   -3.8900   -6.8280 hn        1 QRX      0.468800
     53 H26        -8.1220   -6.1830   -7.0510 hx        1 QRX      0.131200
     54 H26A       -9.1200   -6.5990   -5.5650 hx        1 QRX      0.131200
     55 H29       -11.1820   -7.1780  -10.4940 ha        1 QRX      0.189500
     56 H30       -13.4500   -7.0830   -9.4370 ha        1 QRX      0.185000
     57 H31       -13.7040   -6.3620   -7.0520 ha        1 QRX      0.189500
     58 H162       -4.2780    0.0310   -3.7190 hn        1 QRX      0.477300
     59 H242       -9.8380   -4.3140   -5.4630 hn        1 QRX      0.468800
@<TRIPOS>BOND
     1    1    2 ar  
     2    1    6 ar  
     3    1    7 1   
     4    2    3 ar  
     5    2   35 1   
     6    3    4 ar  
     7    3   36 1   
     8    4    5 ar  
     9    5    6 ar  
    10    5   37 1   
    11    7    8 2   
    12    7   11 1   
    13    8    9 1   
    14    9   10 2   
    15   10   11 1   
    16   10   15 1   
    17   11   12 1   
    18   12   13 1   
    19   12   38 1   
    20   12   39 1   
    21   13   14 1   
    22   13   40 1   
    23   13   41 1   
    24   14   42 1   
    25   14   43 1   
    26   14   44 1   
    27   15   16 1   
    28   15   45 1   
    29   15   46 1   
    30   16   17 1   
    31   16   47 1   
    32   16   58 1   
    33   17   18 ar  
    34   17   22 ar  
    35   18   19 ar  
    36   18   48 1   
    37   19   20 ar  
    38   19   23 1   
    39   20   21 ar  
    40   20   49 1   
    41   21   22 ar  
    42   21   50 1   
    43   22   51 1   
    44   23   24 1   
    45   23   25 2   
    46   24   26 1   
    47   24   52 1   
    48   24   59 1   
    49   26   27 1   
    50   26   53 1   
    51   26   54 1   
    52   27   28 ar  
    53   27   32 ar  
    54   28   29 ar  
    55   28   34 1   
    56   29   30 ar  
    57   29   55 1   
    58   30   31 ar  
    59   30   56 1   
    60   31   32 ar  
    61   31   57 1   
    62   32   33 1   
@<TRIPOS>SUBSTRUCTURE
     1 QRX         1 TEMP              0 ****  ****    0 ROOT
