@<TRIPOS>MOLECULE
QRX
   57    60     1     0     0
SMALL
bcc


@<TRIPOS>ATOM
      1 C1         -6.9200   -0.5380   -0.6210 ca        1 QRX      0.415300
      2 C2         -7.6280   -1.5180   -1.3560 ca        1 QRX     -0.319600
      3 C3         -8.8410   -1.1190   -1.9520 ca        1 QRX      0.424200
      4 N4         -9.3260    0.1340   -1.8440 nb        1 QRX     -0.684000
      5 C5         -8.5660    0.9990   -1.1170 ca        1 QRX      0.631900
      6 N6         -7.3880    0.7350   -0.4970 nb        1 QRX     -0.706000
      7 C7         -5.6660   -0.9220    0.0350 cc        1 QRX      0.288500
      8 N8         -5.3230   -2.2200    0.3680 nd        1 QRX     -0.332000
      9 N9         -4.1520   -2.2270    0.9420 nd        1 QRX     -0.335000
     10 C10        -3.6740   -0.9390    1.0180 cc        1 QRX      0.329800
     11 N11        -4.6160   -0.0760    0.4340 na        1 QRX     -0.265700
     12 C12        -4.4860    1.3520    0.3150 c3        1 QRX      0.031300
     13 C13        -5.0180    2.1430    1.5120 c3        1 QRX     -0.095400
     14 C14        -4.8010    3.6160    1.2810 c3        1 QRX     -0.094100
     15 C15        -2.3640   -0.5130    1.6100 c3        1 QRX      0.163500
     16 N16        -1.3670   -0.2710    0.5870 nh        1 QRX     -0.727600
     17 C17        -0.0320   -0.1220    1.0090 ca        1 QRX      0.128600
     18 C18         1.0130   -0.3050    0.0720 ca        1 QRX     -0.129000
     19 C19         2.3360   -0.0550    0.4330 ca        1 QRX     -0.104600
     20 C20         2.6550    0.3550    1.7310 ca        1 QRX     -0.143000
     21 C21         1.6340    0.5210    2.6620 ca        1 QRX     -0.103000
     22 C22         0.3050    0.2910    2.3170 ca        1 QRX     -0.166000
     23 C23         3.3910   -0.2730   -0.6030 c         1 QRX      0.668700
     24 N24         4.4110    0.6610   -0.6670 n         1 QRX     -0.561900
     25 O25         3.3220   -1.2170   -1.4150 o         1 QRX     -0.595100
     26 C26         5.5480    0.4990   -1.5280 c3        1 QRX      0.136300
     27 C27         6.8250    0.1340   -0.8220 ca        1 QRX     -0.184300
     28 C28         7.5490   -1.0210   -1.1820 ca        1 QRX      0.158400
     29 C29         8.7620   -1.3430   -0.5410 ca        1 QRX     -0.180000
     30 C30         9.2540   -0.5140    0.4610 ca        1 QRX     -0.078000
     31 C31         8.5640    0.6340    0.8360 ca        1 QRX     -0.180000
     32 C32         7.3540    0.9550    0.1960 ca        1 QRX      0.158400
     33 F33         6.6910    2.0790    0.5680 f         1 QRX     -0.133400
     34 F34         7.0900   -1.8370   -2.1590 f         1 QRX     -0.133400
     35 H2         -7.2570   -2.5460   -1.4560 ha        1 QRX      0.180000
     36 H3         -9.4480   -1.8330   -2.5390 h4        1 QRX      0.036100
     37 H5         -8.9510    2.0350   -1.0160 h5        1 QRX      0.057100
     38 H12        -3.3870    1.5820    0.1860 h1        1 QRX      0.080700
     39 H12A       -5.0200    1.6860   -0.6200 h1        1 QRX      0.080700
     40 H13        -6.1100    1.9370    1.6570 hc        1 QRX      0.057200
     41 H13A       -4.4870    1.8230    2.4470 hc        1 QRX      0.057200
     42 H14        -5.3440    3.9580    0.3670 hc        1 QRX      0.040033
     43 H14A       -5.1810    4.1980    2.1550 hc        1 QRX      0.040033
     44 H14B       -3.7150    3.8440    1.1510 hc        1 QRX      0.040033
     45 H15        -2.5150    0.4500    2.1820 h1        1 QRX      0.067700
     46 H15A       -2.0370   -1.3060    2.3480 h1        1 QRX      0.067700
     47 HN16       -1.4550   -0.8870   -0.1990 hn        1 QRX      0.407800
     48 H18         0.7990   -0.6550   -0.9520 ha        1 QRX      0.158000
     49 H20         3.6990    0.5260    2.0300 ha        1 QRX      0.136000
     50 H21         1.8770    0.8360    3.6880 ha        1 QRX      0.136000
     51 H22        -0.4760    0.4360    3.0790 ha        1 QRX      0.135000
     52 HN24        4.4840    1.3430    0.0520 hn        1 QRX      0.316500
     53 H26         5.3070   -0.2850   -2.3040 h1        1 QRX      0.082200
     54 H26A        5.7230    1.4840   -2.0560 h1        1 QRX      0.082200
     55 H29         9.3040   -2.2520   -0.8410 ha        1 QRX      0.155000
     56 H30        10.2010   -0.7680    0.9620 ha        1 QRX      0.146000
     57 H31         8.9510    1.2940    1.6260 ha        1 QRX      0.155000
@<TRIPOS>BOND
     1    1    2 ar  
     2    1    6 ar  
     3    1    7 1   
     4    2    3 ar  
     5    2   35 1   
     6    3    4 ar  
     7    3   36 1   
     8    4    5 ar  
     9    5    6 ar  
    10    5   37 1   
    11    7    8 2   
    12    7   11 1   
    13    8    9 1   
    14    9   10 2   
    15   10   11 1   
    16   10   15 1   
    17   11   12 1   
    18   12   13 1   
    19   12   38 1   
    20   12   39 1   
    21   13   14 1   
    22   13   40 1   
    23   13   41 1   
    24   14   42 1   
    25   14   43 1   
    26   14   44 1   
    27   15   16 1   
    28   15   45 1   
    29   15   46 1   
    30   16   17 1   
    31   16   47 1   
    32   17   18 ar  
    33   17   22 ar  
    34   18   19 ar  
    35   18   48 1   
    36   19   20 ar  
    37   19   23 1   
    38   20   21 ar  
    39   20   49 1   
    40   21   22 ar  
    41   21   50 1   
    42   22   51 1   
    43   23   24 1   
    44   23   25 2   
    45   24   26 1   
    46   24   52 1   
    47   26   27 1   
    48   26   53 1   
    49   26   54 1   
    50   27   28 ar  
    51   27   32 ar  
    52   28   29 ar  
    53   28   34 1   
    54   29   30 ar  
    55   29   55 1   
    56   30   31 ar  
    57   30   56 1   
    58   31   32 ar  
    59   31   57 1   
    60   32   33 1   
@<TRIPOS>SUBSTRUCTURE
     1 QRX         1 TEMP              0 ****  ****    0 ROOT
