@<TRIPOS>MOLECULE
QSC
   20    20     1     0     0
SMALL
bcc


@<TRIPOS>ATOM
      1 CAE         2.2750    0.4500    1.2060 c3        1 QSC     -0.088100
      2 CAT        -2.5730   -0.1890    0.1030 ca        1 QSC     -0.129000
      3 CAY        -2.0480    1.0320   -0.3170 ca        1 QSC     -0.134500
      4 CAZ        -1.7150   -1.2430    0.4170 ca        1 QSC     -0.134500
      5 CBE        -0.6680    1.2010   -0.4250 ca        1 QSC     -0.116000
      6 CBF        -0.3340   -1.0770    0.3140 ca        1 QSC     -0.116000
      7 NBR         2.3260   -0.7130   -0.9760 n3        1 QSC     -0.914800
      8 CCI         0.1960    0.1480   -0.1080 ca        1 QSC     -0.090300
      9 CCL         1.6890    0.3480   -0.2060 c3        1 QSC      0.217800
     10 HAE         1.7710    1.2830    1.7500 hc        1 QSC      0.041367
     11 HAEA        2.1120   -0.4990    1.7700 hc        1 QSC      0.041367
     12 HAEB        3.3700    0.6590    1.1630 hc        1 QSC      0.041367
     13 HAY        -2.7220    1.8650   -0.5660 ha        1 QSC      0.130500
     14 HAZ        -2.1260   -2.2080    0.7470 ha        1 QSC      0.130500
     15 HBE        -0.2610    2.1670   -0.7590 ha        1 QSC      0.138000
     16 HBF         0.3440   -1.9080    0.5620 ha        1 QSC      0.138000
     17 HNBR        1.8870   -0.8050   -1.8690 hn        1 QSC      0.352800
     18 HCL         1.8630    1.3580   -0.7030 h1        1 QSC      0.009700
     19 H2          3.2970   -0.5100   -1.0970 hn        1 QSC      0.352800
     20 HAT        -3.6620   -0.3220    0.1860 ha        1 QSC      0.130000
@<TRIPOS>BOND
     1    1    9 1   
     2    1   10 1   
     3    1   11 1   
     4    1   12 1   
     5    2    3 ar  
     6    2    4 ar  
     7    2   20 1   
     8    3    5 ar  
     9    3   13 1   
    10    4    6 ar  
    11    4   14 1   
    12    5    8 ar  
    13    5   15 1   
    14    6    8 ar  
    15    6   16 1   
    16    7    9 1   
    17    7   17 1   
    18    7   19 1   
    19    8    9 1   
    20    9   18 1   
@<TRIPOS>SUBSTRUCTURE
     1 QSC         1 TEMP              0 ****  ****    0 ROOT
