@<TRIPOS>MOLECULE
QSC
   21    21     1     0     0
SMALL
bcc


@<TRIPOS>ATOM
      1 CAE        -0.0620    0.3420    0.0110 c3        1 QSC     -0.133100
      2 CAT         2.9650   -0.0610    4.0510 ca        1 QSC     -0.076000
      3 CAY         3.1340   -1.1650    3.2150 ca        1 QSC     -0.114500
      4 CAZ         2.2980    1.0750    3.5840 ca        1 QSC     -0.114500
      5 CBE         2.6430   -1.1370    1.9100 ca        1 QSC     -0.104000
      6 CBF         1.8000    1.1060    2.2830 ca        1 QSC     -0.104000
      7 NBR         2.2190    0.9780   -0.7950 n4        1 QSC     -0.850600
      8 CCI         1.9710   -0.0020    1.4420 ca        1 QSC     -0.193300
      9 CCL         1.4200    0.0020    0.0510 c3        1 QSC      0.200800
     10 HAE        -0.4650    0.2870   -1.0300 hc        1 QSC      0.081700
     11 HAEA       -0.2720    1.3530    0.4360 hc        1 QSC      0.081700
     12 HAEB       -0.6040   -0.4140    0.6360 hc        1 QSC      0.081700
     13 HAZ         2.1590    1.9440    4.2460 ha        1 QSC      0.162500
     14 HBE         2.7730   -2.0180    1.2610 ha        1 QSC      0.137500
     15 HBF         1.2570    1.9960    1.9330 ha        1 QSC      0.137500
     16 HNBR        3.2000    0.6860   -0.8200 hn        1 QSC      0.456133
     17 HCL         1.5760   -1.0140   -0.4300 hx        1 QSC      0.108700
     18 H2          2.1640    1.9130   -0.3800 hn        1 QSC      0.456133
     19 HAT         3.3530   -0.0850    5.0830 ha        1 QSC      0.164000
     20 HBR3        1.8430    1.0090   -1.7460 hn        1 QSC      0.456133
     21 HAY         3.6540   -2.0630    3.5850 ha        1 QSC      0.162500
@<TRIPOS>BOND
     1    1    9 1   
     2    1   10 1   
     3    1   11 1   
     4    1   12 1   
     5    2    3 ar  
     6    2    4 ar  
     7    2   19 1   
     8    3    5 ar  
     9    3   21 1   
    10    4    6 ar  
    11    4   13 1   
    12    5    8 ar  
    13    5   14 1   
    14    6    8 ar  
    15    6   15 1   
    16    7    9 1   
    17    7   16 1   
    18    7   18 1   
    19    7   20 1   
    20    8    9 1   
    21    9   17 1   
@<TRIPOS>SUBSTRUCTURE
     1 QSC         1 TEMP              0 ****  ****    0 ROOT
