@<TRIPOS>MOLECULE
QSC
   20    17     1     0     0
SMALL
bcc


@<TRIPOS>ATOM
      1 CAE        -1.8660   -0.1400   -1.4360 c3        1 QSC     -0.088100
      2 CAT         1.1410   -0.1230    2.5770 c1        1 QSC     -0.074000
      3 CAY         1.1450   -1.2980    1.8410 c1        1 QSC     -0.074000
      4 CAZ         0.6410    1.0430    2.0180 c1        1 QSC     -0.074000
      5 CBE         0.6490   -1.3060    0.5460 c1        1 QSC     -0.074000
      6 CBF         0.1450    1.0350    0.7240 c1        1 QSC     -0.046500
      7 NBR         0.1190    1.0220   -2.1070 n3        1 QSC     -0.914800
      8 CCI         0.1490   -0.1400   -0.0120 c1        1 QSC     -0.056100
      9 CCL        -0.3550   -0.1400   -1.4360 c3        1 QSC      0.183600
     10 HAE        -2.1920    0.7810   -1.4350 hc        1 QSC      0.041367
     11 HAEA       -2.1920   -0.5980   -2.2340 hc        1 QSC      0.041367
     12 HAEB       -2.1920   -0.6010   -0.6400 hc        1 QSC      0.041367
     13 HAT         1.4900   -0.1170    3.4880 ha        1 QSC      0.072500
     14 HAY         1.4960   -2.1190    2.2340 ha        1 QSC      0.072500
     15 HAZ         0.6390    1.8700    2.5370 ha        1 QSC      0.072500
     16 HBE         0.6510   -2.1330    0.0280 ha        1 QSC      0.072500
     17 HBF        -0.2070    1.8560    0.3310 ha        1 QSC      0.089500
     18 HNBR        1.0270    0.9760   -2.1900 hn        1 QSC      0.352800
     19 HCL        -0.0290   -0.9370   -1.8970 h1        1 QSC      0.009700
     20 H2         -0.2600    1.0710   -2.9350 hn        1 QSC      0.352800
@<TRIPOS>BOND
     1    1    9 1   
     2    1   10 1   
     3    1   11 1   
     4    1   12 1   
     5    2    4 3   
     6    2   13 1   
     7    3    5 3   
     8    3   14 1   
     9    4   15 1   
    10    5   16 1   
    11    6    8 3   
    12    6   17 1   
    13    7    9 1   
    14    7   18 1   
    15    7   20 1   
    16    8    9 1   
    17    9   19 1   
@<TRIPOS>SUBSTRUCTURE
     1 QSC         1 TEMP              0 ****  ****    0 ROOT
