@<TRIPOS>MOLECULE
QSC
   21    21     1     0     0
SMALL
bcc


@<TRIPOS>ATOM
      1 CAE        -0.0570    0.2600   -0.0020 c3        1 QSC     -0.133100
      2 CAT         2.9580   -0.0340    4.0570 ca        1 QSC     -0.076000
      3 CAY         3.1890   -1.1190    3.2100 ca        1 QSC     -0.114500
      4 CAZ         2.2380    1.0710    3.5960 ca        1 QSC     -0.114500
      5 CBE         2.7060   -1.1020    1.9020 ca        1 QSC     -0.104000
      6 CBF         1.7480    1.0910    2.2930 ca        1 QSC     -0.104000
      7 NBR         2.1950    1.0180   -0.7840 n4        1 QSC     -0.850600
      8 CCI         1.9810    0.0030    1.4410 ca        1 QSC     -0.193300
      9 CCL         1.4400   -0.0050    0.0460 c3        1 QSC      0.200800
     10 HAE        -0.4490    0.1970   -1.0470 hc        1 QSC      0.081700
     11 HAEA       -0.5650   -0.5270    0.6120 hc        1 QSC      0.081700
     12 HAEB       -0.3200    1.2560    0.4310 hc        1 QSC      0.081700
     13 HAZ         2.0500    1.9250    4.2670 ha        1 QSC      0.162500
     14 HBE         2.8850   -1.9670    1.2450 ha        1 QSC      0.137500
     15 HBF         1.1620    1.9570    1.9480 ha        1 QSC      0.137500
     16 HNBR        3.1900    0.7760   -0.8040 hn        1 QSC      0.456133
     17 HCL         1.6500   -1.0070   -0.4450 hx        1 QSC      0.108700
     18 H2          2.0910    1.9440   -0.3600 hn        1 QSC      0.456133
     19 HAT         3.3390   -0.0510    5.0910 ha        1 QSC      0.164000
     20 HBR3        1.8250    1.0400   -1.7370 hn        1 QSC      0.456133
     21 HAY         3.7510   -1.9940    3.5750 ha        1 QSC      0.162500
@<TRIPOS>BOND
     1    1    9 1   
     2    1   10 1   
     3    1   11 1   
     4    1   12 1   
     5    2    3 ar  
     6    2    4 ar  
     7    2   19 1   
     8    3    5 ar  
     9    3   21 1   
    10    4    6 ar  
    11    4   13 1   
    12    5    8 ar  
    13    5   14 1   
    14    6    8 ar  
    15    6   15 1   
    16    7    9 1   
    17    7   16 1   
    18    7   18 1   
    19    7   20 1   
    20    8    9 1   
    21    9   17 1   
@<TRIPOS>SUBSTRUCTURE
     1 QSC         1 TEMP              0 ****  ****    0 ROOT
