@<TRIPOS>MOLECULE
QSC
   21    21     1     0     0
SMALL
bcc


@<TRIPOS>ATOM
      1 CAE        -0.0540    0.3020   -0.0040 c3        1 QSC     -0.133100
      2 CAT         2.9480   -0.0450    4.0590 ca        1 QSC     -0.076000
      3 CAY         3.1510   -1.1420    3.2210 ca        1 QSC     -0.114500
      4 CAZ         2.2590    1.0760    3.5910 ca        1 QSC     -0.114500
      5 CBE         2.6690   -1.1210    1.9120 ca        1 QSC     -0.104000
      6 CBF         1.7710    1.1000    2.2870 ca        1 QSC     -0.104000
      7 NBR         2.2180    0.9940   -0.7890 nz        1 QSC     -0.850600
      8 CCI         1.9750    0.0010    1.4420 ca        1 QSC     -0.193300
      9 CCL         1.4350   -0.0030    0.0470 c3        1 QSC      0.200800
     10 HAE        -0.4480    0.2420   -1.0480 hc        1 QSC      0.081700
     11 HAEA       -0.2910    1.3070    0.4220 hc        1 QSC      0.081700
     12 HAEB       -0.5840   -0.4680    0.6150 hc        1 QSC      0.081700
     13 HAZ         2.0940    1.9390    4.2560 ha        1 QSC      0.162500
     14 HBE         2.8260   -1.9950    1.2610 ha        1 QSC      0.137500
     15 HBF         1.2090    1.9790    1.9350 ha        1 QSC      0.137500
     16 HNBR        1.8490    1.0190   -1.7430 hn        1 QSC      0.456133
     17 HCL         1.6180   -1.0130   -0.4360 hx        1 QSC      0.108700
     18 H2          3.2050    0.7250   -0.8070 hn        1 QSC      0.456133
     19 HAT         3.3280   -0.0650    5.0950 ha        1 QSC      0.164000
     20 HBR3        2.1380    1.9260   -0.3710 hn        1 QSC      0.456133
     21 HAY         3.6890   -2.0290    3.5910 ha        1 QSC      0.162500
@<TRIPOS>BOND
     1    1    9 1   
     2    1   10 1   
     3    1   11 1   
     4    1   12 1   
     5    2    3 ar  
     6    2    4 ar  
     7    2   19 1   
     8    3    5 ar  
     9    3   21 1   
    10    4    6 ar  
    11    4   13 1   
    12    5    8 ar  
    13    5   14 1   
    14    6    8 ar  
    15    6   15 1   
    16    7    9 1   
    17    7   16 1   
    18    7   18 1   
    19    7   20 1   
    20    8    9 1   
    21    9   17 1   
@<TRIPOS>SUBSTRUCTURE
     1 QSC         1 TEMP              0 ****  ****    0 ROOT
