@<TRIPOS>MOLECULE
QSI
   54    50     1     0     0
SMALL
bcc


@<TRIPOS>ATOM
      1 N          -0.7480   -2.8260    6.0590 n3        1 QSI     -0.350000
      2 CA         -0.0600   -1.6730    5.5930 c3        1 QSI     -0.037000
      3 CB          1.3270   -1.6370    6.1930 c3        1 QSI     -0.196000
      4 CG          1.3200   -0.7620    7.4280 c3        1 QSI     -0.190000
      5 CD          2.7320   -0.6150    7.9500 c2        1 QSI      0.301000
      6 OE1         3.6710   -0.9850    7.2740 o         1 QSI     -0.368000
      7 NE2         2.9610   -0.0230    9.2190 n         1 QSI     -0.431000
      8 C           0.0450   -1.7230    4.0840 c2        1 QSI      0.339000
      9 O           0.3290   -2.7660    3.5300 o         1 QSI     -0.328000
     10 N10        -0.2350   -0.5620    3.3130 n         1 QSI     -0.859000
     11 S           0.4890   -0.3520    1.8510 s4        1 QSI      2.035800
     12 O1S         1.8810    0.2120    2.0050 o         1 QSI     -0.544900
     13 O2S         0.7800   -1.6760    1.1880 o         1 QSI     -0.544900
     14 O5'        -0.3630    0.5270    0.9690 o         1 QSI     -0.716000
     15 C5'         0.1740    0.8360   -0.2970 c3        1 QSI      0.013000
     16 C4'        -0.7930    0.3890   -1.3790 c3        1 QSI     -0.052000
     17 O4'        -0.8900    1.3000   -2.3010 os        1 QSI     -0.257000
     18 C1'        -1.1030    0.5210   -3.6720 c3        1 QSI      0.116000
     19 N9         -0.6940    1.3180   -4.7460 n3        1 QSI     -0.200000
     20 C4         -1.2840    1.4270   -5.9670 c1        1 QSI      0.084000
     21 N3         -2.3130    0.7470   -6.5490 n1        1 QSI     -0.205000
     22 C2         -2.7140    1.0660   -7.8120 c1        1 QSI      0.026000
     23 N1         -2.0870    2.0670   -8.4970 n1        1 QSI     -0.269000
     24 C6         -1.0730    2.7390   -7.9270 c1        1 QSI      0.242000
     25 N6         -0.6560    3.7270   -8.8580 n2        1 QSI     -0.357000
     26 C5         -0.6640    2.4160   -6.6420 c1        1 QSI     -0.248000
     27 N7          0.3120    2.9220   -5.8420 n1        1 QSI     -0.108000
     28 C8          0.2900    2.2420   -4.6730 c1        1 QSI     -0.059000
     29 C2'        -0.3430   -0.5840   -3.6010 c3        1 QSI      0.016000
     30 O2'        -1.0000   -1.7020   -4.3070 oh        1 QSI     -0.294000
     31 C3'        -0.2340   -0.8910   -2.1190 c3        1 QSI     -0.027000
     32 O3'        -0.9750   -1.9690   -1.8090 oh        1 QSI     -0.326000
     33 HN1        -1.4940   -2.9650    5.5450 hn        1 QSI      0.165500
     34 HN2        -0.9970   -2.7020    6.9320 hn        1 QSI      0.165500
     35 HA         -0.5510   -0.8710    5.8590 h1        1 QSI      0.132000
     36 HB1         1.9560   -1.2720    5.5390 hc        1 QSI      0.110500
     37 HB2         1.6000   -2.5440    6.4370 hc        1 QSI      0.110500
     38 HG1         0.7590   -1.1740    8.1160 hc        1 QSI      0.114000
     39 HG2         0.9620    0.1190    7.2010 hc        1 QSI      0.114000
     40 HN21        3.8170    0.1120    9.5120 hn        1 QSI      0.228000
     41 HN22        2.2540    0.2330    9.7380 hn        1 QSI      0.228000
     42 HN0        -0.8230    0.0620    3.6250 hn        1 QSI      0.284000
     43 H5'1        0.3160    1.8020   -0.3650 h1        1 QSI      0.116000
     44 H5'2        1.0300    0.3710   -0.4110 h1        1 QSI      0.116000
     45 H4'        -1.6710    0.2010   -0.9940 h1        1 QSI      0.144000
     46 H1'        -2.0460    0.2750   -3.7760 h2        1 QSI      0.176000
     47 H2         -3.4500    0.5780   -8.2270 ha        1 QSI      0.190000
     48 HN61       -0.2070    4.4690   -8.5670 hn        1 QSI      0.243500
     49 HN62       -0.8350    3.6210   -9.7490 hn        1 QSI      0.243500
     50 H8          0.8840    2.3880   -3.9130 DU        1 QSI      0.202000
     51 H2'         0.5420   -0.4140   -3.9800 h1        1 QSI      0.140000
     52 HO2        -0.3830   -2.2790   -4.5860 ho        1 QSI      0.228000
     53 H3'         0.7010   -1.0410   -1.8730 h1        1 QSI      0.096000
     54 HO3        -0.4440   -2.6770   -1.7170 ho        1 QSI      0.248000
@<TRIPOS>BOND
     1    1    2 1   
     2    1   33 1   
     3    1   34 1   
     4    2    3 1   
     5    2    8 1   
     6    2   35 1   
     7    3    4 1   
     8    3   36 1   
     9    3   37 1   
    10    4    5 1   
    11    4   38 1   
    12    4   39 1   
    13    5    6 1   
    14    5    7 1   
    15    7   40 1   
    16    7   41 1   
    17    8    9 1   
    18    8   10 1   
    19   10   11 1   
    20   10   42 1   
    21   11   12 1   
    22   11   13 1   
    23   14   15 1   
    24   15   16 1   
    25   15   43 1   
    26   15   44 1   
    27   16   17 1   
    28   16   31 1   
    29   16   45 1   
    30   17   18 1   
    31   18   19 1   
    32   18   29 1   
    33   18   46 1   
    34   19   20 1   
    35   19   28 1   
    36   20   26 1   
    37   21   22 1   
    38   22   47 1   
    39   23   24 1   
    40   24   26 1   
    41   25   48 1   
    42   25   49 1   
    43   27   28 1   
    44   29   30 1   
    45   29   31 1   
    46   29   51 1   
    47   30   52 1   
    48   31   32 1   
    49   31   53 1   
    50   32   54 1   
@<TRIPOS>SUBSTRUCTURE
     1 QSI         1 TEMP              0 ****  ****    0 ROOT
