@<TRIPOS>MOLECULE
QSI
   54    56     1     0     0
SMALL
bcc


@<TRIPOS>ATOM
      1 N          -0.7840    0.0520   -0.2670 n3        1 QSI     -0.897800
      2 CA          0.6540    0.1350   -0.3340 c3        1 QSI      0.121500
      3 CB          1.3170    0.2120    1.0500 c3        1 QSI     -0.075400
      4 CG          0.7840    1.3810    1.8500 c3        1 QSI     -0.140400
      5 CD          1.7480    1.7400    2.9660 c         1 QSI      0.654100
      6 OE1         2.9860    1.6900    2.8060 o         1 QSI     -0.622100
      7 NE2         1.2310    2.1580    4.1660 n         1 QSI     -0.673000
      8 C           1.3040   -1.0490   -1.0910 c         1 QSI      0.640100
      9 O           0.6820   -2.0910   -1.3470 o         1 QSI     -0.560100
     10 N10         2.6310   -0.9200   -1.5160 n         1 QSI     -0.698300
     11 S           3.5580   -2.0500   -2.2530 s6        1 QSI      1.701100
     12 O1S         4.7010   -1.4180   -2.7360 o         1 QSI     -0.633300
     13 O2S         3.6450   -3.2390   -1.5640 o         1 QSI     -0.633300
     14 O5'         2.7000   -2.4500   -3.6370 os        1 QSI     -0.553500
     15 C5'         2.8450   -1.7480   -4.8460 c3        1 QSI      0.160400
     16 C4'         2.4310   -2.6830   -5.9850 c3        1 QSI      0.091100
     17 O4'         1.0850   -3.1410   -5.8080 os        1 QSI     -0.380600
     18 C1'         0.1810   -2.3620   -6.5940 c3        1 QSI      0.217800
     19 N9         -0.5460   -1.4390   -5.7500 na        1 QSI     -0.293000
     20 C4         -1.4720   -0.4830   -6.1920 ca        1 QSI      0.447800
     21 N3         -1.8750   -0.1420   -7.4540 nb        1 QSI     -0.754000
     22 C2         -2.8080    0.8390   -7.4520 ca        1 QSI      0.687900
     23 N1         -3.3750    1.5070   -6.4130 nb        1 QSI     -0.790000
     24 C6         -2.9630    1.1790   -5.1420 ca        1 QSI      0.754200
     25 N6         -3.4460    1.8540   -4.0480 nh        1 QSI     -0.950500
     26 C5         -1.9830    0.1440   -4.9790 ca        1 QSI     -0.224200
     27 N7         -1.3800   -0.4350   -3.8520 nc        1 QSI     -0.577100
     28 C8         -0.5460   -1.3690   -4.3360 cd        1 QSI      0.428700
     29 C2'         1.0250   -1.6660   -7.7160 c3        1 QSI      0.081100
     30 O2'         0.7520   -2.2950   -8.9480 oh        1 QSI     -0.589800
     31 C3'         2.5000   -1.9440   -7.3410 c3        1 QSI      0.128100
     32 O3'         3.2000   -2.6920   -8.3020 oh        1 QSI     -0.570800
     33 HN1        -1.0720   -0.7600    0.2450 hn        1 QSI      0.374800
     34 HN2        -1.1800    0.0180   -1.1870 hn        1 QSI      0.374800
     35 HA          0.9000    1.0810   -0.9060 h1        1 QSI      0.080700
     36 HB1         1.1450   -0.7430    1.6110 hc        1 QSI      0.069200
     37 HB2         2.4260    0.3330    0.9170 hc        1 QSI      0.069200
     38 HG1        -0.2370    1.1400    2.2430 hc        1 QSI      0.073200
     39 HG2         0.6870    2.2880    1.1940 hc        1 QSI      0.073200
     40 HN21        1.8430    2.4100    4.9010 hn        1 QSI      0.313500
     41 HN22        0.2580    2.1940    4.3210 hn        1 QSI      0.313500
     42 HN0         3.0270   -0.0220   -1.3280 hn        1 QSI      0.346500
     43 H5'1        2.1720   -0.8480   -4.8150 h1        1 QSI      0.053200
     44 H5'2        3.9150   -1.4310   -4.9910 h1        1 QSI      0.053200
     45 H4'         3.0540   -3.6180   -5.9730 h1        1 QSI      0.113700
     46 H1'        -0.5510   -3.1030   -7.0390 h2        1 QSI      0.108700
     47 H2         -3.1750    1.1480   -8.4550 h5        1 QSI      0.053100
     48 HN61       -4.2070    2.4800   -4.1520 hn        1 QSI      0.443300
     49 HN62       -3.2540    1.4820   -3.1510 hn        1 QSI      0.443300
     50 H8          0.0920   -2.0460   -3.7400 h5        1 QSI      0.111800
     51 H2'         0.8340   -0.5640   -7.7780 h1        1 QSI      0.083700
     52 HO2        -0.0680   -1.9080   -9.2840 ho        1 QSI      0.433000
     53 H3'         3.0770   -0.9830   -7.2560 h1        1 QSI      0.093700
     54 HO3         2.6300   -3.4160   -8.5970 ho        1 QSI      0.427000
@<TRIPOS>BOND
     1    1    2 1   
     2    1   33 1   
     3    1   34 1   
     4    2    3 1   
     5    2    8 1   
     6    2   35 1   
     7    3    4 1   
     8    3   36 1   
     9    3   37 1   
    10    4    5 1   
    11    4   38 1   
    12    4   39 1   
    13    5    6 2   
    14    5    7 1   
    15    7   40 1   
    16    7   41 1   
    17    8    9 2   
    18    8   10 1   
    19   10   11 1   
    20   10   42 1   
    21   11   12 2   
    22   11   13 2   
    23   11   14 1   
    24   14   15 1   
    25   15   16 1   
    26   15   43 1   
    27   15   44 1   
    28   16   17 1   
    29   16   31 1   
    30   16   45 1   
    31   17   18 1   
    32   18   19 1   
    33   18   29 1   
    34   18   46 1   
    35   19   20 1   
    36   19   28 1   
    37   20   21 ar  
    38   20   26 ar  
    39   21   22 ar  
    40   22   23 ar  
    41   22   47 1   
    42   23   24 ar  
    43   24   25 1   
    44   24   26 ar  
    45   25   48 1   
    46   25   49 1   
    47   26   27 1   
    48   27   28 2   
    49   28   50 1   
    50   29   30 1   
    51   29   31 1   
    52   29   51 1   
    53   30   52 1   
    54   31   32 1   
    55   31   53 1   
    56   32   54 1   
@<TRIPOS>SUBSTRUCTURE
     1 QSI         1 TEMP              0 ****  ****    0 ROOT
