@<TRIPOS>MOLECULE
QSI
   54    56     1     0     0
SMALL
bcc


@<TRIPOS>ATOM
      1 N           1.4210    2.2590   -2.3420 n3        1 QSI     -0.918800
      2 CA          0.9260    1.2720   -3.2780 c3        1 QSI      0.107500
      3 CB          1.8200    0.0400   -3.4970 c3        1 QSI     -0.121400
      4 CG          3.1920    0.4420   -3.9810 c3        1 QSI     -0.157400
      5 CD          3.9980   -0.7020   -4.5670 c         1 QSI      0.656100
      6 OE1         4.7720   -0.5040   -5.5260 o         1 QSI     -0.612100
      7 NE2         3.9110   -1.9470   -3.9980 n         1 QSI     -0.670000
      8 C          -0.4670    0.7670   -2.8470 c         1 QSI      0.691100
      9 O          -0.7190   -0.4380   -2.7080 o         1 QSI     -0.559100
     10 N10        -1.4650    1.7190   -2.6230 n         1 QSI     -0.696300
     11 S          -3.0480    1.4660   -2.2940 s6        1 QSI      1.702100
     12 O1S        -3.6000    2.6810   -1.9010 o         1 QSI     -0.632800
     13 O2S        -3.6860    0.6610   -3.2120 o         1 QSI     -0.632800
     14 O5'        -3.0480    0.5490   -0.8930 os        1 QSI     -0.549500
     15 C5'        -2.7770    1.1090    0.3680 c3        1 QSI      0.163400
     16 C4'        -3.1580    0.0720    1.4260 c3        1 QSI      0.093100
     17 O4'        -2.2710   -1.0540    1.3700 os        1 QSI     -0.386600
     18 C1'        -1.2960   -0.9890    2.4110 c3        1 QSI      0.216800
     19 N9          0.0040   -0.6720    1.8600 na        1 QSI     -0.290000
     20 C4          1.1730   -0.4580    2.6060 ca        1 QSI      0.448800
     21 N3          1.3750   -0.4020    3.9570 nb        1 QSI     -0.752000
     22 C2          2.6710   -0.1800    4.2790 ca        1 QSI      0.688900
     23 N1          3.7550   -0.0120    3.4770 nb        1 QSI     -0.785000
     24 C6          3.5580   -0.0540    2.1170 ca        1 QSI      0.749200
     25 N6          4.5970    0.1750    1.2450 nh        1 QSI     -0.944500
     26 C5          2.2330   -0.2920    1.6180 ca        1 QSI     -0.223200
     27 N7          1.7040   -0.4170    0.3240 nc        1 QSI     -0.581100
     28 C8          0.3940   -0.6510    0.4990 cd        1 QSI      0.427700
     29 C2'        -1.8060    0.0450    3.4710 c3        1 QSI      0.082100
     30 O2'        -2.1820   -0.6480    4.6390 oh        1 QSI     -0.588800
     31 C3'        -3.0710    0.6760    2.8450 c3        1 QSI      0.128100
     32 O3'        -4.2450    0.4420    3.5790 oh        1 QSI     -0.569800
     33 HN1         2.2330    2.7090   -2.7160 hn        1 QSI      0.370800
     34 HN2         1.6510    1.8370   -1.4630 hn        1 QSI      0.370800
     35 HA          0.7880    1.7880   -4.2780 h1        1 QSI      0.084700
     36 HB1         1.8880   -0.5360   -2.5360 hc        1 QSI      0.076200
     37 HB2         1.3180   -0.6240   -4.2500 hc        1 QSI      0.076200
     38 HG1         3.1090    1.2280   -4.7800 hc        1 QSI      0.072200
     39 HG2         3.7950    0.8760   -3.1380 hc        1 QSI      0.072200
     40 HN21        4.4070   -2.7000   -4.4060 hn        1 QSI      0.314500
     41 HN22        3.2290   -2.1470   -3.3120 hn        1 QSI      0.314500
     42 HN0        -1.1270    2.6610   -2.6370 hn        1 QSI      0.358500
     43 H5'1       -1.6800    1.3470    0.4330 h1        1 QSI      0.050700
     44 H5'2       -3.3910    2.0420    0.5090 h1        1 QSI      0.050700
     45 H4'        -4.1750   -0.3530    1.2040 h1        1 QSI      0.116700
     46 H1'        -1.2550   -2.0300    2.8550 h2        1 QSI      0.106700
     47 H2          2.8900   -0.1310    5.3690 h5        1 QSI      0.055100
     48 HN61        5.5250    0.2000    1.5940 hn        1 QSI      0.439300
     49 HN62        4.4630   -0.0840    0.2980 hn        1 QSI      0.439300
     50 H8         -0.3470   -0.8260   -0.3000 h5        1 QSI      0.106800
     51 H2'        -1.0460    0.8370    3.7010 h1        1 QSI      0.084700
     52 HO2        -1.3750   -0.7940    5.1510 ho        1 QSI      0.434000
     53 H3'        -2.9790    1.7970    2.8100 h1        1 QSI      0.094700
     54 HO3        -4.2510   -0.4850    3.8550 ho        1 QSI      0.426000
@<TRIPOS>BOND
     1    1    2 1   
     2    1   33 1   
     3    1   34 1   
     4    2    3 1   
     5    2    8 1   
     6    2   35 1   
     7    3    4 1   
     8    3   36 1   
     9    3   37 1   
    10    4    5 1   
    11    4   38 1   
    12    4   39 1   
    13    5    6 2   
    14    5    7 1   
    15    7   40 1   
    16    7   41 1   
    17    8    9 2   
    18    8   10 1   
    19   10   11 1   
    20   10   42 1   
    21   11   12 2   
    22   11   13 2   
    23   11   14 1   
    24   14   15 1   
    25   15   16 1   
    26   15   43 1   
    27   15   44 1   
    28   16   17 1   
    29   16   31 1   
    30   16   45 1   
    31   17   18 1   
    32   18   19 1   
    33   18   29 1   
    34   18   46 1   
    35   19   20 1   
    36   19   28 1   
    37   20   21 ar  
    38   20   26 ar  
    39   21   22 ar  
    40   22   23 ar  
    41   22   47 1   
    42   23   24 ar  
    43   24   25 1   
    44   24   26 ar  
    45   25   48 1   
    46   25   49 1   
    47   26   27 1   
    48   27   28 2   
    49   28   50 1   
    50   29   30 1   
    51   29   31 1   
    52   29   51 1   
    53   30   52 1   
    54   31   32 1   
    55   31   53 1   
    56   32   54 1   
@<TRIPOS>SUBSTRUCTURE
     1 QSI         1 TEMP              0 ****  ****    0 ROOT
