@<TRIPOS>MOLECULE
QSI
   57    58     1     0     0
SMALL
bcc


@<TRIPOS>ATOM
      1 N           4.5190   43.6580  186.2010 n4        1 QSI     -0.840600
      2 CA          3.6840   42.4770  186.6070 c3        1 QSI      0.031500
      3 CB          2.2520   42.8600  186.9880 c3        1 QSI     -0.118400
      4 CG          2.0940   43.2240  188.4560 c3        1 QSI     -0.156400
      5 CD          0.7080   43.7670  188.6910 c         1 QSI      0.534100
      6 OE1        -0.0110   44.3360  187.8880 o         1 QSI     -0.352100
      7 NE2         0.1370   43.6220  190.0800 n4        1 QSI     -0.757400
      8 C           3.5940   41.5170  185.3670 c         1 QSI      0.643100
      9 O           3.5510   42.0540  184.2440 o         1 QSI     -0.558100
     10 N10         3.5330   40.1860  185.5900 n         1 QSI     -0.613000
     11 S          -0.8200  -29.5030 -128.9430 s6        1 QSI      1.828000
     12 O1S        -0.6310  -28.3410 -129.6170 o         1 QSI     -0.617300
     13 O2S        -1.8280  -29.8100 -128.1000 o         1 QSI     -0.617300
     14 O5'         0.6200  -30.0710 -128.3600 os        1 QSI     -0.543500
     15 C5'         1.0800  -31.3070 -128.8610 c3        1 QSI      0.148400
     16 C4'         0.2060  -31.6580 -130.0870 c3        1 QSI      0.102100
     17 O4'        -0.7910  -30.6680 -130.1860 os        1 QSI     -0.602500
     18 C1'        -1.0080  -30.8640 -132.6390 c2        1 QSI      0.450200
     19 N9         -0.8730  -29.6220 -133.0250 na        1 QSI     -0.226000
     20 C4         -1.9140  -28.5990 -133.0360 ca        1 QSI      0.478800
     21 N3         -3.1950  -28.7000 -132.6780 nb        1 QSI     -0.709000
     22 C2         -3.8720  -27.4950 -132.8230 ca        1 QSI      0.730900
     23 N1         -3.4170  -26.3180 -133.2530 nb        1 QSI     -0.722000
     24 C6         -2.0700  -26.2160 -133.6270 ca        1 QSI      0.800200
     25 N6         -1.5610  -25.0440 -134.0670 nh        1 QSI     -0.901500
     26 C5         -1.2660  -27.3980 -133.5300 ca        1 QSI     -0.269200
     27 N7          0.0970  -27.6470 -133.8110 nc        1 QSI     -0.394100
     28 C8          0.3240  -28.9090 -133.5260 cd        1 QSI      0.375700
     29 C2'         0.1050  -31.8890 -132.6210 c3        1 QSI      0.009800
     30 O2'        -0.4680  -33.1670 -132.4460 oh        1 QSI     -0.570800
     31 C3'         1.0260  -31.6520 -131.3900 c3        1 QSI      0.148100
     32 O3'         2.0280  -32.6340 -131.3720 oh        1 QSI     -0.557800
     33 HN1         4.2710   43.9190  185.2250 hn        1 QSI      0.480467
     34 HN2         5.5140   43.4040  186.2180 hn        1 QSI      0.480467
     35 HA          4.2080   41.9790  187.4750 hx        1 QSI      0.119700
     36 HB1         1.5910   41.9720  186.7620 hc        1 QSI      0.121700
     37 HB2         1.8710   43.6960  186.3340 hc        1 QSI      0.121700
     38 HG1         2.2940   42.3240  189.1000 hc        1 QSI      0.106200
     39 HG2         2.8220   44.0290  188.7560 hc        1 QSI      0.106200
     40 HN21       -0.0060   42.6300  190.3060 hn        1 QSI      0.486133
     41 HN22       -0.7760   44.1040  190.1350 hn        1 QSI      0.486133
     42 HN0         3.6530   39.7900  186.4900 hn        1 QSI      0.355500
     43 H5'1        0.9730  -32.0740 -128.0490 h1        1 QSI      0.102200
     44 H5'2        2.1600  -31.1760 -129.1360 h1        1 QSI      0.102200
     45 H4'        -0.3020  -32.6560 -129.9600 h1        1 QSI      0.110700
     46 H1'        -2.0090  -31.2180 -132.2770 h4        1 QSI      0.108800
     47 H2         -4.9500  -27.5350 -132.5330 h5        1 QSI      0.094100
     48 HN61       -0.5990  -24.9840 -134.3090 hn        1 QSI      0.474800
     49 HN62       -2.1270  -24.2270 -134.1230 hn        1 QSI      0.474800
     50 H8          1.2760  -29.4520 -133.6170 h5        1 QSI      0.107800
     51 H2'         0.7280  -31.8390 -133.5600 h1        1 QSI      0.104700
     52 HO2        -0.6230  -33.5550 -133.3190 ho        1 QSI      0.442000
     53 H3'         1.5710  -30.6750 -131.5190 h1        1 QSI      0.098700
     54 HO3         1.6040  -33.4980 -131.2510 ho        1 QSI      0.436000
     55 HN3         4.3570   44.4550  186.8180 hn        1 QSI      0.480467
     56 HE23        0.7680   44.0330  190.7780 hn        1 QSI      0.486133
     57 H102        3.4710   39.5720  184.8040 hn        1 QSI      0.355500
@<TRIPOS>BOND
     1    1    2 1   
     2    1   33 1   
     3    1   34 1   
     4    1   55 1   
     5    2    3 1   
     6    2    8 1   
     7    2   35 1   
     8    3    4 1   
     9    3   36 1   
    10    3   37 1   
    11    4    5 1   
    12    4   38 1   
    13    4   39 1   
    14    5    6 2   
    15    5    7 1   
    16    7   40 1   
    17    7   41 1   
    18    7   56 1   
    19    8    9 2   
    20    8   10 1   
    21   10   42 1   
    22   10   57 1   
    23   11   12 2   
    24   11   13 2   
    25   11   14 1   
    26   11   17 1   
    27   14   15 1   
    28   15   16 1   
    29   15   43 1   
    30   15   44 1   
    31   16   17 1   
    32   16   31 1   
    33   16   45 1   
    34   18   19 2   
    35   18   29 1   
    36   18   46 1   
    37   19   20 1   
    38   19   28 1   
    39   20   21 ar  
    40   20   26 ar  
    41   21   22 ar  
    42   22   23 ar  
    43   22   47 1   
    44   23   24 ar  
    45   24   25 1   
    46   24   26 ar  
    47   25   48 1   
    48   25   49 1   
    49   26   27 1   
    50   27   28 2   
    51   28   50 1   
    52   29   30 1   
    53   29   31 1   
    54   29   51 1   
    55   30   52 1   
    56   31   32 1   
    57   31   53 1   
    58   32   54 1   
@<TRIPOS>SUBSTRUCTURE
     1 QSI         1 TEMP              0 ****  ****    0 ROOT
