@<TRIPOS>MOLECULE
QSN
   36    37     1     0     0
SMALL
bcc


@<TRIPOS>ATOM
      1 N1          0.2240   -0.5120    0.0570 no        1 QSN      0.314200
      2 O2          0.6710   -1.6010    0.2640 o         1 QSN     -0.161500
      3 O3          0.3590    0.4180    0.7980 o         1 QSN     -0.161500
      4 C4         -0.5940   -0.3220   -1.1900 ca        1 QSN     -0.095200
      5 C5         -0.2490    0.6720   -2.1470 ca        1 QSN      0.055800
      6 C6         -1.0530    0.7670   -3.3030 ca        1 QSN     -0.050000
      7 C8         -2.1490   -0.0770   -3.4920 ca        1 QSN     -0.169600
      8 C9         -2.4800   -1.0590   -2.5280 ca        1 QSN      0.105600
      9 C10        -1.6830   -1.1750   -1.3710 ca        1 QSN     -0.118000
     10 N12        -3.5730   -1.8980   -2.7370 ns        1 QSN     -0.427100
     11 C14        -4.3790   -1.8120   -3.8640 c         1 QSN      0.813500
     12 N15        -4.1230   -0.7510   -4.8260 n         1 QSN     -0.430800
     13 C16        -2.9560    0.0750   -4.7120 c         1 QSN      0.760100
     14 O17        -2.7120    0.8870   -5.6210 o         1 QSN     -0.634500
     15 N18        -4.8700   -0.7170   -5.9840 nv        1 QSN     -0.742800
     16 S20        -5.9190    1.3800   -6.2120 s4        1 QSN      1.643500
     17 O21        -7.0840    0.7900   -6.5640 o         1 QSN     -0.406400
     18 O22        -5.6590    1.8500   -4.9740 o         1 QSN     -0.406400
     19 C23        -4.9890    1.8860   -7.4110 c3        1 QSN     -0.570800
     20 O27        -5.3270   -2.5960   -4.0560 o         1 QSN     -0.592500
     21 N28         0.8630    1.5050   -2.0010 na        1 QSN     -0.200000
     22 C29         1.1220    2.4570   -0.9730 cc        1 QSN      0.446400
     23 N31         2.1440    3.2500   -1.3030 nd        1 QSN     -0.638000
     24 C32         2.5670    2.8510   -2.5820 cd        1 QSN      0.336200
     25 C34         1.7780    1.7960   -3.0430 cc        1 QSN     -0.260600
     26 H6         -0.8190    1.5210   -4.0790 ha        1 QSN      0.191000
     27 H10        -1.9070   -1.9500   -0.6140 ha        1 QSN      0.190000
     28 HN12       -3.7970   -2.6130   -2.0720 hn        1 QSN      0.385500
     29 HN18       -4.2790   -0.9730   -6.7740 hn        1 QSN      0.429300
     30 H23        -5.2060    1.4400   -8.4270 h1        1 QSN      0.207700
     31 H23A       -5.0260    3.0040   -7.6030 h1        1 QSN      0.207700
     32 H23B       -3.8700    1.7210   -7.2690 h1        1 QSN      0.207700
     33 H29         0.5550    2.4780   -0.0310 h5        1 QSN      0.095100
     34 H32         3.4090    3.3420   -3.0740 h4        1 QSN      0.061100
     35 H34         1.8100    1.2150   -3.9620 h4        1 QSN      0.183000
     36 H182       -5.6200   -1.4150   -5.9150 hn        1 QSN      0.429300
@<TRIPOS>BOND
     1    1    2 1   
     2    1    3 1   
     3    1    4 1   
     4    4    5 ar  
     5    4    9 ar  
     6    5    6 ar  
     7    5   21 1   
     8    6    7 ar  
     9    6   26 1   
    10    7    8 ar  
    11    7   13 1   
    12    8    9 ar  
    13    8   10 1   
    14    9   27 1   
    15   10   11 1   
    16   10   28 1   
    17   11   12 1   
    18   11   20 2   
    19   12   13 1   
    20   12   15 1   
    21   13   14 2   
    22   15   29 1   
    23   15   36 1   
    24   16   17 1   
    25   16   18 1   
    26   16   19 1   
    27   19   30 1   
    28   19   31 1   
    29   19   32 1   
    30   21   22 1   
    31   21   25 1   
    32   22   23 2   
    33   22   33 1   
    34   23   24 1   
    35   24   25 2   
    36   24   34 1   
    37   25   35 1   
@<TRIPOS>SUBSTRUCTURE
     1 QSN         1 TEMP              0 ****  ****    0 ROOT
