@<TRIPOS>MOLECULE
QSN
   35    37     1     0     0
SMALL
bcc


@<TRIPOS>ATOM
      1 N1          0.1310   -0.3590    0.1060 no        1 QSN      0.312200
      2 O2          0.4640   -1.4640    0.4280 o         1 QSN     -0.180500
      3 O3          0.3420    0.6090    0.7800 o         1 QSN     -0.180500
      4 C4         -0.6210   -0.1980   -1.1790 ca        1 QSN     -0.095200
      5 C5         -0.1670    0.6970   -2.1850 ca        1 QSN      0.018800
      6 C6         -0.9260    0.7820   -3.3700 ca        1 QSN     -0.044000
      7 C8         -2.0800    0.0200   -3.5470 ca        1 QSN     -0.173600
      8 C9         -2.5190   -0.8690   -2.5380 ca        1 QSN      0.125600
      9 C10        -1.7700   -0.9710   -1.3450 ca        1 QSN     -0.142000
     10 N12        -3.6570   -1.6310   -2.7430 n         1 QSN     -0.452100
     11 C14        -4.4280   -1.5440   -3.9160 c         1 QSN      0.809500
     12 N15        -4.0930   -0.5270   -4.8880 n         1 QSN     -0.298800
     13 C16        -2.8370    0.1580   -4.8120 c         1 QSN      0.725100
     14 O17        -2.4430    0.8780   -5.7430 o         1 QSN     -0.581500
     15 N18        -4.8150   -0.4930   -6.0270 nh        1 QSN     -0.649100
     16 S20        -6.0680    0.5720   -6.3250 s6        1 QSN      1.474900
     17 O21        -6.8610   -0.0310   -7.3140 o         1 QSN     -0.633300
     18 O22        -6.6800    0.9690   -5.1310 o         1 QSN     -0.633300
     19 C23        -5.2830    1.9060   -7.0040 c3        1 QSN     -0.394300
     20 O27        -5.3810   -2.3280   -4.0620 o         1 QSN     -0.581500
     21 N28         1.0110    1.4440   -2.0530 na        1 QSN     -0.183000
     22 C29         1.3110    2.4470   -1.0970 cc        1 QSN      0.438400
     23 N31         2.4350    3.1010   -1.4210 nd        1 QSN     -0.656000
     24 C32         2.8800    2.5480   -2.6300 cd        1 QSN      0.315200
     25 C34         2.0080    1.5390   -3.0500 cc        1 QSN     -0.252600
     26 H6         -0.6110    1.4620   -4.1850 ha        1 QSN      0.190000
     27 H10        -2.0840   -1.6710   -0.5500 ha        1 QSN      0.178000
     28 HN12       -3.9650   -2.2800   -2.0500 hn        1 QSN      0.365500
     29 HN18       -4.6200   -1.2500   -6.6530 hn        1 QSN      0.454800
     30 H23        -4.1750    1.9580   -6.8320 h1        1 QSN      0.133367
     31 H23A       -5.4190    1.9520   -8.1140 h1        1 QSN      0.133367
     32 H23B       -5.6920    2.8660   -6.5950 h1        1 QSN      0.133367
     33 H29         0.6970    2.6080   -0.2000 h5        1 QSN      0.089100
     34 H32         3.7920    2.9030   -3.1100 h4        1 QSN      0.051100
     35 H34         2.0190    0.8850   -3.9190 h4        1 QSN      0.183000
@<TRIPOS>BOND
     1    1    2 1   
     2    1    3 1   
     3    1    4 1   
     4    4    5 ar  
     5    4    9 ar  
     6    5    6 ar  
     7    5   21 1   
     8    6    7 ar  
     9    6   26 1   
    10    7    8 ar  
    11    7   13 1   
    12    8    9 ar  
    13    8   10 1   
    14    9   27 1   
    15   10   11 1   
    16   10   28 1   
    17   11   12 1   
    18   11   20 2   
    19   12   13 1   
    20   12   15 1   
    21   13   14 2   
    22   15   16 1   
    23   15   29 1   
    24   16   17 2   
    25   16   18 2   
    26   16   19 1   
    27   19   30 1   
    28   19   31 1   
    29   19   32 1   
    30   21   22 1   
    31   21   25 1   
    32   22   23 2   
    33   22   33 1   
    34   23   24 1   
    35   24   25 2   
    36   24   34 1   
    37   25   35 1   
@<TRIPOS>SUBSTRUCTURE
     1 QSN         1 TEMP              0 ****  ****    0 ROOT
