@<TRIPOS>MOLECULE
QSN
   36    37     1     0     0
SMALL
bcc


@<TRIPOS>ATOM
      1 N1          0.2240   -0.5000    0.0590 no        1 QSN      0.314200
      2 O2          0.6680   -1.5900    0.2720 o         1 QSN     -0.161500
      3 O3          0.3620    0.4330    0.7960 o         1 QSN     -0.161500
      4 C4         -0.5940   -0.3140   -1.1880 ca        1 QSN     -0.095200
      5 C5         -0.2460    0.6740   -2.1500 ca        1 QSN      0.055800
      6 C6         -1.0520    0.7650   -3.3050 ca        1 QSN     -0.050000
      7 C8         -2.1500   -0.0760   -3.4900 ca        1 QSN     -0.169600
      8 C9         -2.4830   -1.0520   -2.5210 ca        1 QSN      0.105600
      9 C10        -1.6860   -1.1650   -1.3630 ca        1 QSN     -0.118000
     10 N12        -3.5790   -1.8890   -2.7240 n         1 QSN     -0.427100
     11 C14        -4.3860   -1.8060   -3.8520 c         1 QSN      0.813500
     12 N15        -4.1270   -0.7510   -4.8190 n         1 QSN     -0.430800
     13 C16        -2.9570    0.0720   -4.7100 c         1 QSN      0.760100
     14 O17        -2.7120    0.8790   -5.6230 o         1 QSN     -0.634500
     15 N18        -4.8750   -0.7210   -5.9760 nh        1 QSN     -0.742800
     16 S20        -5.9200    1.3770   -6.2130 s4        1 QSN      1.643500
     17 O21        -7.0860    0.7870   -6.5620 o         1 QSN     -0.406400
     18 O22        -5.6580    1.8520   -4.9770 o         1 QSN     -0.406400
     19 C23        -4.9900    1.8760   -7.4140 c3        1 QSN     -0.570800
     20 O27        -5.3360   -2.5890   -4.0380 o         1 QSN     -0.592500
     21 N28         0.8680    1.5040   -2.0090 na        1 QSN     -0.200000
     22 C29         1.1300    2.4610   -0.9860 cc        1 QSN      0.446400
     23 N31         2.1550    3.2490   -1.3210 nd        1 QSN     -0.638000
     24 C32         2.5760    2.8420   -2.5990 cd        1 QSN      0.336200
     25 C34         1.7830    1.7870   -3.0530 cc        1 QSN     -0.260600
     26 H6         -0.8160    1.5140   -4.0860 ha        1 QSN      0.191000
     27 H10        -1.9120   -1.9350   -0.6020 ha        1 QSN      0.190000
     28 HN12       -3.8050   -2.6000   -2.0550 hn        1 QSN      0.385500
     29 HN18       -4.2840   -0.9820   -6.7660 hn        1 QSN      0.429300
     30 H23        -3.8710    1.7090   -7.2720 h1        1 QSN      0.207700
     31 H23A       -5.2070    1.4270   -8.4280 h1        1 QSN      0.207700
     32 H23B       -5.0240    2.9940   -7.6110 h1        1 QSN      0.207700
     33 H29         0.5650    2.4880   -0.0440 h5        1 QSN      0.095100
     34 H32         3.4190    3.3270   -3.0930 h4        1 QSN      0.061100
     35 H34         1.8120    1.2010   -3.9690 h4        1 QSN      0.183000
     36 H182       -5.6260   -1.4170   -5.9040 hn        1 QSN      0.429300
@<TRIPOS>BOND
     1    1    2 1   
     2    1    3 1   
     3    1    4 1   
     4    4    5 ar  
     5    4    9 ar  
     6    5    6 ar  
     7    5   21 1   
     8    6    7 ar  
     9    6   26 1   
    10    7    8 ar  
    11    7   13 1   
    12    8    9 ar  
    13    8   10 1   
    14    9   27 1   
    15   10   11 1   
    16   10   28 1   
    17   11   12 1   
    18   11   20 2   
    19   12   13 1   
    20   12   15 1   
    21   13   14 2   
    22   15   29 1   
    23   15   36 1   
    24   16   17 1   
    25   16   18 1   
    26   16   19 1   
    27   19   30 1   
    28   19   31 1   
    29   19   32 1   
    30   21   22 1   
    31   21   25 1   
    32   22   23 2   
    33   22   33 1   
    34   23   24 1   
    35   24   25 2   
    36   24   34 1   
    37   25   35 1   
@<TRIPOS>SUBSTRUCTURE
     1 QSN         1 TEMP              0 ****  ****    0 ROOT
