@<TRIPOS>MOLECULE
QSN
   35    37     1     0     0
SMALL
bcc


@<TRIPOS>ATOM
      1 N1          3.9690   -1.9410   -0.0200 no        1 QSN      0.312200
      2 O2          4.2610   -2.7210   -0.8810 o         1 QSN     -0.180500
      3 O3          4.6720   -1.7180    0.9250 o         1 QSN     -0.180500
      4 C4          2.6430   -1.2510   -0.1150 ca        1 QSN     -0.095200
      5 C5          2.5510    0.1670   -0.0810 ca        1 QSN      0.018800
      6 C6          1.2670    0.7380   -0.1870 ca        1 QSN     -0.044000
      7 C8          0.1300   -0.0580   -0.3190 ca        1 QSN     -0.173600
      8 C9          0.2350   -1.4680   -0.3540 ca        1 QSN      0.125600
      9 C10         1.5140   -2.0590   -0.2520 ca        1 QSN     -0.142000
     10 N12        -0.9060   -2.2380   -0.5040 n         1 QSN     -0.452100
     11 C14        -2.1920   -1.6780   -0.5990 c         1 QSN      0.809500
     12 N15        -2.3420   -0.2530   -0.4000 n         1 QSN     -0.298800
     13 C16        -1.1920    0.6030   -0.4210 c         1 QSN      0.725100
     14 O17        -1.3130    1.8360   -0.4600 o         1 QSN     -0.581500
     15 N18        -3.5760    0.2690   -0.5430 nh        1 QSN     -0.649100
     16 S20        -4.5960    0.6550    0.7230 s6        1 QSN      1.474900
     17 O21        -5.8940    0.6520    0.1900 o         1 QSN     -0.633300
     18 O22        -4.3320   -0.1470    1.8390 o         1 QSN     -0.633300
     19 C23        -4.1680    2.2490    1.0870 c3        1 QSN     -0.394300
     20 O27        -3.1550   -2.4310   -0.8260 o         1 QSN     -0.581500
     21 N28         3.6800    0.9930    0.0070 na        1 QSN     -0.183000
     22 C29         4.6240    1.0780    1.0630 cc        1 QSN      0.438400
     23 N31         5.4300    2.1360    0.9030 nd        1 QSN     -0.656000
     24 C32         5.0010    2.7880   -0.2620 cd        1 QSN      0.315200
     25 C34         3.9110    2.1140   -0.8200 cc        1 QSN     -0.252600
     26 H6          1.1450    1.8380   -0.1700 ha        1 QSN      0.190000
     27 H10         1.6230   -3.1570   -0.2950 ha        1 QSN      0.178000
     28 HN12       -0.8430   -3.2320   -0.5550 hn        1 QSN      0.365500
     29 HN18       -3.8960    0.3010   -1.4920 hn        1 QSN      0.454800
     30 H23        -3.1750    2.5890    0.6910 h1        1 QSN      0.133367
     31 H23A       -4.9160    2.9840    0.6950 h1        1 QSN      0.133367
     32 H23B       -4.1170    2.4100    2.1950 h1        1 QSN      0.133367
     33 H29         4.6780    0.3300    1.8660 h5        1 QSN      0.089100
     34 H32         5.5030    3.6870   -0.6220 h4        1 QSN      0.051100
     35 H34         3.3180    2.3050   -1.7120 h4        1 QSN      0.183000
@<TRIPOS>BOND
     1    1    2 1   
     2    1    3 1   
     3    1    4 1   
     4    4    5 ar  
     5    4    9 ar  
     6    5    6 ar  
     7    5   21 1   
     8    6    7 ar  
     9    6   26 1   
    10    7    8 ar  
    11    7   13 1   
    12    8    9 ar  
    13    8   10 1   
    14    9   27 1   
    15   10   11 1   
    16   10   28 1   
    17   11   12 1   
    18   11   20 2   
    19   12   13 1   
    20   12   15 1   
    21   13   14 2   
    22   15   16 1   
    23   15   29 1   
    24   16   17 2   
    25   16   18 2   
    26   16   19 1   
    27   19   30 1   
    28   19   31 1   
    29   19   32 1   
    30   21   22 1   
    31   21   25 1   
    32   22   23 2   
    33   22   33 1   
    34   23   24 1   
    35   24   25 2   
    36   24   34 1   
    37   25   35 1   
@<TRIPOS>SUBSTRUCTURE
     1 QSN         1 TEMP              0 ****  ****    0 ROOT
