@<TRIPOS>MOLECULE
QSO
   33    35     1     0     0
SMALL
bcc


@<TRIPOS>ATOM
      1 C2          0.0530    0.3830    0.0040 cc        1 QSO      0.063100
      2 C4          2.1230    0.0550    1.2850 c         1 QSO      0.602900
      3 O4         -1.0970    0.8480    5.8720 oh        1 QSO     -0.487100
      4 C4A         1.2860    0.2670    2.4740 ca        1 QSO     -0.278600
      5 C8A        -0.0950    0.4940    2.3520 ca        1 QSO      0.209100
      6 C7         -0.3590    0.6640    4.7320 ca        1 QSO      0.218100
      7 C6          1.0160    0.4440    4.9120 ca        1 QSO     -0.293000
      8 C5          1.8230    0.2470    3.7860 ca        1 QSO      0.241100
      9 C8         -0.9350    0.6930    3.4570 ca        1 QSO     -0.290000
     10 C3          1.3900    0.1690    0.0060 cd        1 QSO     -0.184400
     11 O1         -0.7310    0.5360    1.1240 os        1 QSO     -0.220200
     12 C1'         2.1080    0.0520   -1.2600 ca        1 QSO     -0.077800
     13 O2          3.3310   -0.2020    1.3540 o         1 QSO     -0.520100
     14 C2'         1.7530    0.8740   -2.3440 ca        1 QSO     -0.076500
     15 C3'         2.4070    0.7670   -3.5630 ca        1 QSO     -0.183500
     16 C4'         3.4400   -0.1770   -3.7090 ca        1 QSO      0.130100
     17 C5'         3.8110   -0.9970   -2.6370 ca        1 QSO     -0.183500
     18 C6'         3.1450   -0.8750   -1.4190 ca        1 QSO     -0.076500
     19 O5          4.0220   -0.2120   -4.9610 os        1 QSO     -0.327900
     20 O3          3.1670    0.0280    3.9000 oh        1 QSO     -0.448100
     21 CM          5.1050   -1.1210   -5.1250 c3        1 QSO      0.113700
     22 H2         -0.5920    0.4610   -0.8880 h4        1 QSO      0.184000
     23 HO4        -2.0220    0.9900    5.6160 ho        1 QSO      0.429000
     24 H6          1.4360    0.4280    5.9260 ha        1 QSO      0.160000
     25 H8         -2.0090    0.8660    3.3100 ha        1 QSO      0.159000
     26 H2'         0.9550    1.6220   -2.2240 ha        1 QSO      0.143000
     27 H3'         2.1350    1.4080   -4.4130 ha        1 QSO      0.144500
     28 H5'         4.6230   -1.7300   -2.7380 ha        1 QSO      0.144500
     29 H6'         3.4500   -1.5050   -0.5680 ha        1 QSO      0.143000
     30 HO3         3.3990    0.0450    4.8430 ho        1 QSO      0.424000
     31 HM1         5.4230   -0.9580   -6.1850 h1        1 QSO      0.045033
     32 HM2         4.7620   -2.1730   -4.9730 h1        1 QSO      0.045033
     33 HM3         5.9370   -0.8750   -4.4210 h1        1 QSO      0.045033
@<TRIPOS>BOND
     1    1   10 2   
     2    1   11 1   
     3    1   22 1   
     4    2    4 1   
     5    2   10 1   
     6    2   13 2   
     7    3    6 1   
     8    3   23 1   
     9    4    5 ar  
    10    4    8 ar  
    11    5    9 ar  
    12    5   11 1   
    13    6    7 ar  
    14    6    9 ar  
    15    7    8 ar  
    16    7   24 1   
    17    8   20 1   
    18    9   25 1   
    19   10   12 1   
    20   12   14 ar  
    21   12   18 ar  
    22   14   15 ar  
    23   14   26 1   
    24   15   16 ar  
    25   15   27 1   
    26   16   17 ar  
    27   16   19 1   
    28   17   18 ar  
    29   17   28 1   
    30   18   29 1   
    31   19   21 1   
    32   20   30 1   
    33   21   31 1   
    34   21   32 1   
    35   21   33 1   
@<TRIPOS>SUBSTRUCTURE
     1 QSO         1 TEMP              0 ****  ****    0 ROOT
