@<TRIPOS>MOLECULE
QSO
   33    35     1     0     0
SMALL
bcc


@<TRIPOS>ATOM
      1 C2         -0.2460    1.8390    0.0700 cc        1 QSO      0.080100
      2 C4         -0.5690   -0.5870    0.0170 c         1 QSO      0.614900
      3 O4         -6.0710    0.7190    0.1840 oh        1 QSO     -0.485100
      4 C4A        -2.0060   -0.3040    0.0670 ca        1 QSO     -0.334600
      5 C8A        -2.4610    1.0320    0.0890 ca        1 QSO      0.204100
      6 C7         -4.7540    0.3420    0.1470 ca        1 QSO      0.216100
      7 C6         -4.3620   -1.0010    0.1290 ca        1 QSO     -0.298000
      8 C5         -2.9940   -1.3200    0.0890 ca        1 QSO      0.268100
      9 C8         -3.8120    1.3820    0.1280 ca        1 QSO     -0.231000
     10 C3          0.3020    0.6000    0.0570 cd        1 QSO     -0.191400
     11 O1         -1.5910    2.1100    0.0720 os        1 QSO     -0.214200
     12 C1'         1.7530    0.4460    0.0860 ca        1 QSO     -0.077800
     13 O2         -0.1250   -1.7470   -0.0580 o         1 QSO     -0.586100
     14 C2'         2.5300    1.2980    0.8890 ca        1 QSO     -0.076500
     15 C3'         3.9130    1.1860    0.9170 ca        1 QSO     -0.183000
     16 C4'         4.5390    0.2010    0.1290 ca        1 QSO      0.132100
     17 C5'         3.7790   -0.6600   -0.6690 ca        1 QSO     -0.183000
     18 C6'         2.3920   -0.5340   -0.6840 ca        1 QSO     -0.076500
     19 O5          5.9170    0.1750    0.2210 os        1 QSO     -0.326900
     20 O3         -2.7310   -2.6560    0.0750 oh        1 QSO     -0.497100
     21 CM          6.5770   -0.8370   -0.5310 c3        1 QSO      0.112700
     22 H2          0.3090    2.7940    0.0770 h4        1 QSO      0.187000
     23 HO4        -6.6160   -0.0830    0.1950 ho        1 QSO      0.430000
     24 H6         -5.1020   -1.8130    0.1460 ha        1 QSO      0.161000
     25 H8         -4.1290    2.4330    0.1420 ha        1 QSO      0.175000
     26 H2'         2.0380    2.0580    1.5150 ha        1 QSO      0.142000
     27 H3'         4.5260    1.8470    1.5450 ha        1 QSO      0.145000
     28 H5'         4.2580   -1.4370   -1.2810 ha        1 QSO      0.145000
     29 H6'         1.7900   -1.2240   -1.2980 ha        1 QSO      0.142000
     30 HO3        -1.7720   -2.8190    0.0580 ho        1 QSO      0.469000
     31 HM1         6.2450   -1.8520   -0.2040 h1        1 QSO      0.045367
     32 HM2         6.3930   -0.6980   -1.6240 h1        1 QSO      0.045367
     33 HM3         7.6580   -0.6770   -0.2890 h1        1 QSO      0.045367
@<TRIPOS>BOND
     1    1   10 2   
     2    1   11 1   
     3    1   22 1   
     4    2    4 1   
     5    2   10 1   
     6    2   13 2   
     7    3    6 1   
     8    3   23 1   
     9    4    5 ar  
    10    4    8 ar  
    11    5    9 ar  
    12    5   11 1   
    13    6    7 ar  
    14    6    9 ar  
    15    7    8 ar  
    16    7   24 1   
    17    8   20 1   
    18    9   25 1   
    19   10   12 1   
    20   12   14 ar  
    21   12   18 ar  
    22   14   15 ar  
    23   14   26 1   
    24   15   16 ar  
    25   15   27 1   
    26   16   17 ar  
    27   16   19 1   
    28   17   18 ar  
    29   17   28 1   
    30   18   29 1   
    31   19   21 1   
    32   20   30 1   
    33   21   31 1   
    34   21   32 1   
    35   21   33 1   
@<TRIPOS>SUBSTRUCTURE
     1 QSO         1 TEMP              0 ****  ****    0 ROOT
