@<TRIPOS>MOLECULE
QSO
   33    35     1     0     0
SMALL
bcc


@<TRIPOS>ATOM
      1 C2          0.0350    0.4600   -0.0620 cc        1 QSO      0.065100
      2 C4          2.0590    0.0340    1.2610 c         1 QSO      0.603900
      3 O4         -1.3510    0.9030    5.6950 oh        1 QSO     -0.484100
      4 C4A         1.2020    0.2600    2.4340 ca        1 QSO     -0.278600
      5 C8A        -0.1680    0.5420    2.2840 ca        1 QSO      0.202100
      6 C7         -0.4820    0.6880    4.6560 ca        1 QSO      0.216100
      7 C6          0.8780    0.4130    4.8640 ca        1 QSO     -0.348000
      8 C5          1.7080    0.2020    3.7550 ca        1 QSO      0.247100
      9 C8         -1.0280    0.7570    3.3680 ca        1 QSO     -0.229000
     10 C3          1.3620    0.1960   -0.0330 cd        1 QSO     -0.186400
     11 O1         -0.7710    0.6250    1.0410 os        1 QSO     -0.217200
     12 C1'         2.1050    0.0730   -1.2830 ca        1 QSO     -0.076800
     13 O2          3.2540   -0.2700    1.3550 o         1 QSO     -0.521100
     14 C2'         1.8080    0.9250   -2.3610 ca        1 QSO     -0.076500
     15 C3'         2.4860    0.8130   -3.5660 ca        1 QSO     -0.183500
     16 C4'         3.4870   -0.1670   -3.7040 ca        1 QSO      0.130100
     17 C5'         3.8010   -1.0170   -2.6380 ca        1 QSO     -0.183500
     18 C6'         3.1110   -0.8900   -1.4340 ca        1 QSO     -0.076500
     19 O5          4.0980   -0.2030   -4.9420 os        1 QSO     -0.327900
     20 O3          3.0390   -0.0690    3.8970 oh        1 QSO     -0.447100
     21 CM          5.1470   -1.1520   -5.0960 c3        1 QSO      0.113700
     22 H2         -0.5850    0.5760   -0.9680 h4        1 QSO      0.184000
     23 HO4        -0.8560    0.8300    6.5250 ho        1 QSO      0.427000
     24 H6          1.2870    0.3640    5.8820 ha        1 QSO      0.143000
     25 H8         -2.0930    0.9730    3.2140 ha        1 QSO      0.175000
     26 H2'         1.0360    1.7010   -2.2470 ha        1 QSO      0.143000
     27 H3'         2.2600    1.4780   -4.4110 ha        1 QSO      0.144500
     28 H5'         4.5860   -1.7800   -2.7320 ha        1 QSO      0.144500
     29 H6'         3.3700   -1.5460   -0.5870 ha        1 QSO      0.143000
     30 HO3         3.2490   -0.0750    4.8450 ho        1 QSO      0.421000
     31 HM1         5.4960   -0.9850   -6.1470 h1        1 QSO      0.044700
     32 HM2         4.7590   -2.1920   -4.9710 h1        1 QSO      0.044700
     33 HM3         5.9710   -0.9510   -4.3700 h1        1 QSO      0.044700
@<TRIPOS>BOND
     1    1   10 2   
     2    1   11 1   
     3    1   22 1   
     4    2    4 1   
     5    2   10 1   
     6    2   13 2   
     7    3    6 1   
     8    3   23 1   
     9    4    5 ar  
    10    4    8 ar  
    11    5    9 ar  
    12    5   11 1   
    13    6    7 ar  
    14    6    9 ar  
    15    7    8 ar  
    16    7   24 1   
    17    8   20 1   
    18    9   25 1   
    19   10   12 1   
    20   12   14 ar  
    21   12   18 ar  
    22   14   15 ar  
    23   14   26 1   
    24   15   16 ar  
    25   15   27 1   
    26   16   17 ar  
    27   16   19 1   
    28   17   18 ar  
    29   17   28 1   
    30   18   29 1   
    31   19   21 1   
    32   20   30 1   
    33   21   31 1   
    34   21   32 1   
    35   21   33 1   
@<TRIPOS>SUBSTRUCTURE
     1 QSO         1 TEMP              0 ****  ****    0 ROOT
