@<TRIPOS>MOLECULE
QTP
   44    46     1     0     0
SMALL
bcc


@<TRIPOS>ATOM
      1 O2A         0.0000    0.0000    0.0000 o         1 QTP     -0.700500
      2 PA          1.6100    0.0000    0.0000 p5        1 QTP      0.946800
      3 O1A         2.1020    0.0000    1.3960 o         1 QTP     -0.700500
      4 O3A         2.1460   -1.3140   -0.7580 os        1 QTP     -0.486800
      5 PB          2.2370   -2.8740   -0.3670 p5        1 QTP      0.994800
      6 O1B         0.9620   -3.3010    0.2510 o         1 QTP     -0.688000
      7 O2B         3.4410   -3.0950    0.6790 o         1 QTP     -0.688000
      8 O3B         2.5100   -3.7450   -1.6930 os        1 QTP     -0.483800
      9 PG          2.3090   -5.2960   -2.0730 p5        1 QTP      0.835900
     10 O3G         0.9820   -5.7510   -1.6010 o         1 QTP     -0.629833
     11 O2G         2.4000   -5.4730   -3.6700 o         1 QTP     -0.629833
     12 O1G         3.4600   -6.1750   -1.3680 o         1 QTP     -0.629833
     13 O5'         2.1470    1.3150   -0.7580 os        1 QTP     -0.489200
     14 C5'         1.9280    2.6390   -0.2690 c3        1 QTP      0.309400
     15 C4'         2.5670    3.6480   -1.2250 c3        1 QTP      0.150100
     16 C3'         2.4180    5.0830   -0.6720 c3        1 QTP      0.145100
     17 O3'         3.6190    5.4930   -0.0150 oh        1 QTP     -0.582800
     18 C2'         2.1670    5.9460   -1.9290 c3        1 QTP     -0.116400
     19 C1'         2.1940    4.9310   -3.0930 c3        1 QTP      0.158800
     20 O4'         1.8620    3.6620   -2.4860 os        1 QTP     -0.354600
     21 N9          1.1970    5.2890   -4.1050 na        1 QTP      0.198000
     22 C4          1.3690    6.1840   -5.1380 ca        1 QTP      0.245800
     23 C5          0.1520    6.1990   -5.8400 ca        1 QTP     -0.052900
     24 N7         -0.6820    5.3310   -5.2140 nc        1 QTP     -0.573100
     25 C8         -0.0670    4.7940   -4.2010 cd        1 QTP      0.172700
     26 N3          2.3780    6.9460   -5.5320 nb        1 QTP     -0.712000
     27 C2          2.2780    7.7330   -6.5820 ca        1 QTP      0.299200
     28 C1          1.1100    7.8010   -7.3250 ca        1 QTP     -0.237300
     29 C6          0.0220    7.0320   -6.9560 ca        1 QTP     -0.217300
     30 C7         -1.2630    7.0810   -7.7420 c3        1 QTP      0.115200
     31 H5          2.3740    2.7400    0.7130 h1        1 QTP     -0.023300
     32 H6          0.8630    2.8290   -0.2030 h1        1 QTP     -0.023300
     33 H7          3.6130    3.4150   -1.3830 h1        1 QTP      0.030700
     34 H8          1.5710    5.1420    0.0010 h1        1 QTP      0.010700
     35 H9          3.4080    6.1000    0.6750 ho        1 QTP      0.362000
     36 H10         2.9560    6.6790   -2.0480 hc        1 QTP      0.023200
     37 H11         1.1980    6.4270   -1.8700 hc        1 QTP      0.023200
     38 H12         3.1840    4.8890   -3.5300 h2        1 QTP      0.032700
     39 H13        -0.4980    4.0590   -3.5320 h5        1 QTP      0.046800
     40 H14         3.1280    8.3380   -6.8740 h4        1 QTP     -0.065900
     41 H15         1.0920    8.3510   -8.2580 ha        1 QTP      0.064000
     42 H16        -2.0970    7.2040   -7.0620 hc        1 QTP     -0.026300
     43 H17        -1.2330    7.9160   -8.4310 hc        1 QTP     -0.026300
     44 H18        -1.3820    6.1580   -8.2970 hc        1 QTP     -0.026300
@<TRIPOS>BOND
     1    1    2 1   
     2    2    3 1   
     3    2    4 1   
     4    2   13 1   
     5    4    5 1   
     6    5    6 1   
     7    5    7 1   
     8    5    8 1   
     9    8    9 1   
    10    9   10 1   
    11    9   11 1   
    12    9   12 1   
    13   13   14 1   
    14   14   15 1   
    15   14   31 1   
    16   14   32 1   
    17   15   16 1   
    18   15   20 1   
    19   15   33 1   
    20   16   17 1   
    21   16   18 1   
    22   16   34 1   
    23   17   35 1   
    24   18   19 1   
    25   18   36 1   
    26   18   37 1   
    27   19   20 1   
    28   19   21 1   
    29   19   38 1   
    30   21   22 1   
    31   21   25 1   
    32   22   23 ar  
    33   22   26 ar  
    34   23   24 1   
    35   23   29 ar  
    36   24   25 2   
    37   25   39 1   
    38   26   27 ar  
    39   27   28 ar  
    40   27   40 1   
    41   28   29 ar  
    42   28   41 1   
    43   29   30 1   
    44   30   42 1   
    45   30   43 1   
    46   30   44 1   
@<TRIPOS>SUBSTRUCTURE
     1 QTP         1 TEMP              0 ****  ****    0 ROOT
