@<TRIPOS>MOLECULE
QUA
   29    30     1     0     0
SMALL
bcc


@<TRIPOS>ATOM
      1 O12         0.6800   -1.0060   -0.4450 o         1 QUA     -0.803300
      2 C11         1.1990    0.0740   -0.0690 c         1 QUA      0.826100
      3 C2          2.1550   -0.0080    1.1490 ca        1 QUA      0.395800
      4 N1          3.4840   -0.0630    0.9730 nb        1 QUA     -0.663000
      5 C3          1.5590   -0.0190    2.4380 ca        1 QUA     -0.222300
      6 C9          4.2730   -0.1180    2.0790 ca        1 QUA      0.364600
      7 C4          2.3600   -0.0700    3.5710 ca        1 QUA     -0.102300
      8 C8          5.7700   -0.1810    1.8300 c3        1 QUA      0.108800
      9 C10         3.7650   -0.1030    3.3970 ca        1 QUA     -0.175100
     10 O16         6.2710    1.0810    1.3950 oh        1 QUA     -0.618800
     11 C7          6.6120   -0.5830    3.0410 c3        1 QUA     -0.042200
     12 C13         1.7710   -0.1150    4.9520 c3        1 QUA      0.186400
     13 O15         2.0780    1.0580    5.7020 oh        1 QUA     -0.612800
     14 C5          4.6810   -0.1050    4.5190 ce        1 QUA     -0.094200
     15 C14         0.2680   -0.3410    4.9660 c3        1 QUA     -0.122100
     16 C6          5.9950   -0.3130    4.3560 c2        1 QUA     -0.185200
     17 O1'         0.9870    1.2190   -0.5400 o         1 QUA     -0.803300
     18 HC3         0.4620    0.0080    2.4930 ha        1 QUA      0.149000
     19 HC8         5.9650   -0.9300    1.0040 h1        1 QUA      0.045700
     20 H16         5.6670    1.4140    0.7200 ho        1 QUA      0.422000
     21 HC71        6.8260   -1.6850    2.9670 hc        1 QUA      0.051200
     22 HC72        7.5960   -0.0430    2.9710 hc        1 QUA      0.051200
     23 H13         2.2710   -0.9420    5.5380 h1        1 QUA      0.065700
     24 H15         1.8740    1.8150    5.1410 ho        1 QUA      0.405000
     25 HC5         4.2530    0.0990    5.5140 ha        1 QUA      0.136000
     26 H141       -0.2680    0.5250    4.5090 hc        1 QUA      0.042033
     27 H142       -0.0800   -0.4500    6.0210 hc        1 QUA      0.042033
     28 H143        0.0120   -1.2670    4.3990 hc        1 QUA      0.042033
     29 HC6         6.6850   -0.3010    5.2130 ha        1 QUA      0.110000
@<TRIPOS>BOND
     1    1    2 1   
     2    2    3 1   
     3    2   17 1   
     4    3    4 ar  
     5    3    5 ar  
     6    4    6 ar  
     7    5    7 ar  
     8    5   18 1   
     9    6    8 1   
    10    6    9 ar  
    11    7    9 ar  
    12    7   12 1   
    13    8   10 1   
    14    8   11 1   
    15    8   19 1   
    16    9   14 1   
    17   10   20 1   
    18   11   16 1   
    19   11   21 1   
    20   11   22 1   
    21   12   13 1   
    22   12   15 1   
    23   12   23 1   
    24   13   24 1   
    25   14   16 2   
    26   14   25 1   
    27   15   26 1   
    28   15   27 1   
    29   15   28 1   
    30   16   29 1   
@<TRIPOS>SUBSTRUCTURE
     1 QUA         1 TEMP              0 ****  ****    0 ROOT
