@<TRIPOS>MOLECULE
QUA
   29    27     1     0     0
SMALL
bcc


@<TRIPOS>ATOM
      1 O12        -1.1380   -0.4510   -4.5010 o         1 QUA     -0.536000
      2 C11        -1.7950   -0.2120   -3.4490 c1        1 QUA      0.384000
      3 C2         -1.0840   -0.1810   -2.0900 c1        1 QUA     -0.006000
      4 N1         -0.8930   -1.3420   -1.3900 n2        1 QUA     -0.146000
      5 C3         -0.6200    1.0270   -1.5770 c1        1 QUA     -0.179000
      6 C9         -0.2320   -1.3170   -0.1600 c1        1 QUA     -0.041000
      7 C4          0.0320    1.0540   -0.3640 c1        1 QUA     -0.071000
      8 C8         -0.1510   -2.6050    0.6960 c2        1 QUA      0.093000
      9 C10         0.2270   -0.1290    0.3490 c2        1 QUA     -0.116000
     10 O16        -0.0720   -3.7260   -0.2110 oh        1 QUA     -0.345000
     11 C7          0.9960   -2.7510    1.7100 c3        1 QUA     -0.128000
     12 C13         0.5850    2.3850    0.1820 c3        1 QUA      0.068000
     13 O15         1.3440    3.0080   -0.8030 oh        1 QUA     -0.337000
     14 C5          0.9630   -0.1090    1.6850 c2        1 QUA     -0.101000
     15 C14        -0.5740    3.2940    0.5820 c3        1 QUA     -0.240000
     16 C6          1.4420   -1.4190    2.3080 c2        1 QUA     -0.186000
     17 O1'        -3.0400   -0.0520   -3.5100 o         1 QUA     -0.536000
     18 HC3        -0.8520    1.8770   -2.0310 ha        1 QUA      0.141000
     19 HC8        -0.9920   -2.6810    1.1910 h4        1 QUA      0.076000
     20 H16        -0.7210   -4.3240   -0.0080 ho        1 QUA      0.235000
     21 HC71        1.6900   -3.3560    1.3790 hc        1 QUA      0.095000
     22 HC72        0.6470   -3.2450    2.4810 hc        1 QUA      0.095000
     23 H13         1.1450    2.2100    0.9620 h1        1 QUA      0.105000
     24 H15         2.1430    3.2420   -0.4630 ho        1 QUA      0.208000
     25 HC5         1.2470    0.7380    2.0660 ha        1 QUA      0.116000
     26 H141       -0.5750    4.0940    0.0080 hc        1 QUA      0.080000
     27 H142       -1.4220    2.8110    0.4720 hc        1 QUA      0.080000
     28 H143       -0.4710    3.5640    1.5170 hc        1 QUA      0.080000
     29 HC6         2.1690   -1.4020    2.9690 ha        1 QUA      0.112000
@<TRIPOS>BOND
     1    1    2 1   
     2    2   17 1   
     3    3    4 1   
     4    3    5 1   
     5    4    6 1   
     6    5   18 1   
     7    6    9 1   
     8    7    9 1   
     9    7   12 1   
    10    8   10 1   
    11    8   11 1   
    12    8   19 1   
    13    9   14 1   
    14   10   20 1   
    15   11   16 1   
    16   11   21 1   
    17   11   22 1   
    18   12   13 1   
    19   12   15 1   
    20   12   23 1   
    21   13   24 1   
    22   14   16 1   
    23   14   25 1   
    24   15   26 1   
    25   15   27 1   
    26   15   28 1   
    27   16   29 1   
@<TRIPOS>SUBSTRUCTURE
     1 QUA         1 TEMP              0 ****  ****    0 ROOT
