@<TRIPOS>MOLECULE
QUA
   29    30     1     0     0
SMALL
bcc


@<TRIPOS>ATOM
      1 O12         4.9040   -1.0290   -1.5190 o         1 QUA     -0.803300
      2 C11         4.5600    0.1600   -1.3060 c         1 QUA      0.826100
      3 C2          3.0680    0.4960   -1.5580 ca        1 QUA      0.393800
      4 N1          2.6820    1.1340   -2.6770 nb        1 QUA     -0.634000
      5 C3          2.1470    0.1010   -0.5520 ca        1 QUA     -0.223300
      6 C9          1.3630    1.4070   -2.8260 ca        1 QUA      0.364600
      7 C4          0.7950    0.3880   -0.6970 ca        1 QUA     -0.100300
      8 C8          0.9290    2.0890   -4.1130 c3        1 QUA      0.098800
      9 C10         0.3780    1.0600   -1.8680 ca        1 QUA     -0.195100
     10 O16         0.7170    1.1350   -5.1450 oh        1 QUA     -0.596800
     11 C7         -0.3270    2.9410   -3.9210 c3        1 QUA     -0.078200
     12 C13        -0.2080    0.0280    0.3630 c3        1 QUA      0.186400
     13 O15        -1.1430   -0.9430   -0.1010 oh        1 QUA     -0.613800
     14 C5         -1.0070    1.4190   -2.1050 ce        1 QUA     -0.096200
     15 C14         0.4220   -0.4540    1.6590 c3        1 QUA     -0.122100
     16 C6         -1.3460    2.2970   -3.0620 c2        1 QUA     -0.198200
     17 O1'         5.2800    1.0860   -0.8570 o         1 QUA     -0.803300
     18 HC3         2.5450   -0.4280    0.3250 ha        1 QUA      0.149000
     19 HC8         1.7590    2.7390   -4.5180 h1        1 QUA      0.090700
     20 H16         0.1850    0.4230   -4.7720 ho        1 QUA      0.400000
     21 HC71       -0.7580    3.1580   -4.9340 hc        1 QUA      0.051700
     22 HC72       -0.0280    3.9210   -3.4590 hc        1 QUA      0.051700
     23 H13        -0.8520    0.9310    0.5820 h1        1 QUA      0.066700
     24 H15        -0.6330   -1.6690   -0.4790 ho        1 QUA      0.404000
     25 HC5        -1.7650    0.9350   -1.4680 ha        1 QUA      0.137000
     26 H141        1.1390    0.3070    2.0460 hc        1 QUA      0.042700
     27 H142        0.9640   -1.4180    1.5020 hc        1 QUA      0.042700
     28 H143       -0.3790   -0.6230    2.4180 hc        1 QUA      0.042700
     29 HC6        -2.3910    2.5850   -3.2370 ha        1 QUA      0.112000
@<TRIPOS>BOND
     1    1    2 1   
     2    2    3 1   
     3    2   17 1   
     4    3    4 ar  
     5    3    5 ar  
     6    4    6 ar  
     7    5    7 ar  
     8    5   18 1   
     9    6    8 1   
    10    6    9 ar  
    11    7    9 ar  
    12    7   12 1   
    13    8   10 1   
    14    8   11 1   
    15    8   19 1   
    16    9   14 1   
    17   10   20 1   
    18   11   16 1   
    19   11   21 1   
    20   11   22 1   
    21   12   13 1   
    22   12   15 1   
    23   12   23 1   
    24   13   24 1   
    25   14   16 2   
    26   14   25 1   
    27   15   26 1   
    28   15   27 1   
    29   15   28 1   
    30   16   29 1   
@<TRIPOS>SUBSTRUCTURE
     1 QUA         1 TEMP              0 ****  ****    0 ROOT
