@<TRIPOS>MOLECULE
QUA
   29    30     1     0     0
SMALL
bcc


@<TRIPOS>ATOM
      1 O12         0.6970   -0.9700   -0.4650 o         1 QUA     -0.803300
      2 C11         1.1990    0.1100   -0.0650 c         1 QUA      0.826100
      3 C2          2.1570    0.0160    1.1500 ca        1 QUA      0.395800
      4 N1          3.4860   -0.0170    0.9730 nb        1 QUA     -0.663000
      5 C3          1.5620   -0.0320    2.4390 ca        1 QUA     -0.222300
      6 C9          4.2770   -0.0830    2.0770 ca        1 QUA      0.364600
      7 C4          2.3650   -0.0950    3.5700 ca        1 QUA     -0.102300
      8 C8          5.7750   -0.1190    1.8260 c3        1 QUA      0.108800
      9 C10         3.7700   -0.1040    3.3950 ca        1 QUA     -0.175100
     10 O16         6.2570    1.1590    1.4180 oh        1 QUA     -0.618800
     11 C7          6.6240   -0.5350    3.0270 c3        1 QUA     -0.042200
     12 C13         1.7770   -0.1780    4.9500 c3        1 QUA      0.186400
     13 O15         2.0680    0.9830    5.7250 oh        1 QUA     -0.612800
     14 C5          4.6870   -0.1160    4.5160 ce        1 QUA     -0.094200
     15 C14         0.2780   -0.4270    4.9600 c3        1 QUA     -0.122100
     16 C6          6.0040   -0.3020    4.3480 c2        1 QUA     -0.185200
     17 O1'         0.9690    1.2610   -0.5110 o         1 QUA     -0.803300
     18 HC3         0.4650   -0.0220    2.4950 ha        1 QUA      0.149000
     19 HC8         5.9800   -0.8470    0.9840 h1        1 QUA      0.045700
     20 H16         5.6480    1.4980    0.7500 ho        1 QUA      0.422000
     21 HC71        6.8540   -1.6310    2.9300 hc        1 QUA      0.051200
     22 HC72        7.6000    0.0210    2.9690 hc        1 QUA      0.051200
     23 H13         2.2900   -1.0100    5.5190 h1        1 QUA      0.065700
     24 H15         1.8520    1.7490    5.1810 ho        1 QUA      0.405000
     25 HC5         4.2570    0.0600    5.5150 ha        1 QUA      0.136000
     26 H141        0.0360   -1.3440    4.3730 hc        1 QUA      0.042033
     27 H142       -0.2700    0.4410    4.5220 hc        1 QUA      0.042033
     28 H143       -0.0670   -0.5630    6.0130 hc        1 QUA      0.042033
     29 HC6         6.6940   -0.2990    5.2050 ha        1 QUA      0.110000
@<TRIPOS>BOND
     1    1    2 1   
     2    2    3 1   
     3    2   17 1   
     4    3    4 ar  
     5    3    5 ar  
     6    4    6 ar  
     7    5    7 ar  
     8    5   18 1   
     9    6    8 1   
    10    6    9 ar  
    11    7    9 ar  
    12    7   12 1   
    13    8   10 1   
    14    8   11 1   
    15    8   19 1   
    16    9   14 1   
    17   10   20 1   
    18   11   16 1   
    19   11   21 1   
    20   11   22 1   
    21   12   13 1   
    22   12   15 1   
    23   12   23 1   
    24   13   24 1   
    25   14   16 2   
    26   14   25 1   
    27   15   26 1   
    28   15   27 1   
    29   15   28 1   
    30   16   29 1   
@<TRIPOS>SUBSTRUCTURE
     1 QUA         1 TEMP              0 ****  ****    0 ROOT
