@<TRIPOS>MOLECULE
QUB
   28    29     1     0     0
SMALL
bcc


@<TRIPOS>ATOM
      1 C5          0.2430    0.3040    0.5390 ca        1 QUB     -0.130300
      2 C6          1.3080    1.0940    1.0440 ca        1 QUB     -0.115000
      3 C7          1.4190    1.3420    2.3900 ca        1 QUB     -0.123000
      4 C8          0.4730    0.8090    3.2960 ca        1 QUB     -0.125000
      5 C9         -0.5650    0.0330    2.8480 ca        1 QUB     -0.162300
      6 C4         -0.7100   -0.2490    1.4510 ca        1 QUB      0.390600
      7 N1         -1.7580   -1.0470    1.0280 nb        1 QUB     -0.652000
      8 C3         -1.8590   -1.2960   -0.2640 ca        1 QUB      0.407200
      9 C2         -0.9630   -0.7890   -1.2560 ca        1 QUB     -0.219300
     10 C1          0.0790    0.0170   -0.8550 ca        1 QUB     -0.077900
     11 C10         1.0000    0.6180   -1.8270 ce        1 QUB      0.385800
     12 N2          1.4710   -0.0670   -2.8340 n2        1 QUB     -0.414200
     13 O1          2.2700    0.6170   -3.6330 os        1 QUB     -0.196300
     14 C11         2.8190   -0.1820   -4.7270 c3        1 QUB      0.175600
     15 C12         3.6560    0.7590   -5.5170 c2        1 QUB     -0.175200
     16 C13         4.3450    0.3770   -6.5900 c2        1 QUB     -0.215000
     17 H1          2.0520    1.5000    0.3420 ha        1 QUB      0.137000
     18 H2          2.2470    1.9550    2.7780 ha        1 QUB      0.136000
     19 H3          0.5830    1.0250    4.3700 ha        1 QUB      0.137000
     20 H4         -1.3000   -0.3870    3.5540 ha        1 QUB      0.151000
     21 H5         -2.7030   -1.9410   -0.5740 h4        1 QUB      0.024100
     22 H6         -1.1250   -1.0470   -2.3120 ha        1 QUB      0.155000
     23 H7          1.2510    1.6850   -1.6490 h4        1 QUB      0.012800
     24 H10         1.9780   -0.5990   -5.3410 h1        1 QUB      0.059200
     25 H11         3.4300   -1.0200   -4.3010 h1        1 QUB      0.059200
     26 H12         3.6670    1.8000   -5.1540 ha        1 QUB      0.143000
     27 H14         4.3440   -0.6550   -6.9630 ha        1 QUB      0.116500
     28 H15         4.9580    1.0800   -7.1670 ha        1 QUB      0.116500
@<TRIPOS>BOND
     1    1    2 ar  
     2    1    6 ar  
     3    1   10 ar  
     4    2    3 ar  
     5    2   17 1   
     6    3    4 ar  
     7    3   18 1   
     8    4    5 ar  
     9    4   19 1   
    10    5    6 ar  
    11    5   20 1   
    12    6    7 ar  
    13    7    8 ar  
    14    8    9 ar  
    15    8   21 1   
    16    9   10 ar  
    17    9   22 1   
    18   10   11 1   
    19   11   12 2   
    20   11   23 1   
    21   12   13 1   
    22   13   14 1   
    23   14   15 1   
    24   14   24 1   
    25   14   25 1   
    26   15   16 2   
    27   15   26 1   
    28   16   27 1   
    29   16   28 1   
@<TRIPOS>SUBSTRUCTURE
     1 QUB         1 TEMP              0 ****  ****    0 ROOT
