@<TRIPOS>MOLECULE
QUB
   28    29     1     0     0
SMALL
bcc


@<TRIPOS>ATOM
      1 C5          0.2310    0.2460    0.5350 ca        1 QUB     -0.130300
      2 C6          1.3250    0.9570    1.0900 ca        1 QUB     -0.115000
      3 C7          1.4350    1.1280    2.4480 ca        1 QUB     -0.123000
      4 C8          0.4560    0.5930    3.3170 ca        1 QUB     -0.125000
      5 C9         -0.6130   -0.1100    2.8200 ca        1 QUB     -0.162300
      6 C4         -0.7560   -0.3090    1.4090 ca        1 QUB      0.390600
      7 N1         -1.8360   -1.0330    0.9350 nb        1 QUB     -0.652000
      8 C3         -1.9360   -1.2080   -0.3690 ca        1 QUB      0.407200
      9 C2         -1.0070   -0.6900   -1.3260 ca        1 QUB     -0.219300
     10 C1          0.0680    0.0420   -0.8740 ca        1 QUB     -0.077900
     11 C10         1.0250    0.6510   -1.8050 ce        1 QUB      0.385800
     12 N2          1.4730   -0.0000   -2.8440 n2        1 QUB     -0.414200
     13 O1          2.3120    0.6870   -3.5990 os        1 QUB     -0.196300
     14 C11         2.8320   -0.0770   -4.7310 c3        1 QUB      0.175600
     15 C12         3.7230    0.8640   -5.4610 c2        1 QUB     -0.175200
     16 C13         4.3990    0.5100   -6.5510 c2        1 QUB     -0.215000
     17 H1          2.0950    1.3650    0.4170 ha        1 QUB      0.137000
     18 H2          2.2860    1.6800    2.8750 ha        1 QUB      0.136000
     19 H3          0.5650    0.7450    4.4010 ha        1 QUB      0.137000
     20 H4         -1.3730   -0.5310    3.4960 ha        1 QUB      0.151000
     21 H5         -2.8050   -1.7950   -0.7200 h4        1 QUB      0.024100
     22 H6         -1.1700   -0.8840   -2.3950 ha        1 QUB      0.155000
     23 H7          1.3240    1.6940   -1.5680 h4        1 QUB      0.012800
     24 H10         1.9780   -0.4170   -5.3740 h1        1 QUB      0.059200
     25 H11         3.3970   -0.9670   -4.3480 h1        1 QUB      0.059200
     26 H12         3.7850    1.8800   -5.0370 ha        1 QUB      0.143000
     27 H14         4.3480   -0.4980   -6.9850 ha        1 QUB      0.116500
     28 H15         5.0530    1.2120   -7.0830 ha        1 QUB      0.116500
@<TRIPOS>BOND
     1    1    2 ar  
     2    1    6 ar  
     3    1   10 ar  
     4    2    3 ar  
     5    2   17 1   
     6    3    4 ar  
     7    3   18 1   
     8    4    5 ar  
     9    4   19 1   
    10    5    6 ar  
    11    5   20 1   
    12    6    7 ar  
    13    7    8 ar  
    14    8    9 ar  
    15    8   21 1   
    16    9   10 ar  
    17    9   22 1   
    18   10   11 1   
    19   11   12 2   
    20   11   23 1   
    21   12   13 1   
    22   13   14 1   
    23   14   15 1   
    24   14   24 1   
    25   14   25 1   
    26   15   16 2   
    27   15   26 1   
    28   16   27 1   
    29   16   28 1   
@<TRIPOS>SUBSTRUCTURE
     1 QUB         1 TEMP              0 ****  ****    0 ROOT
