@<TRIPOS>MOLECULE
QUB
   28    29     1     0     0
SMALL
bcc


@<TRIPOS>ATOM
      1 C5          0.2310    0.2840    0.5340 ca        1 QUB     -0.130300
      2 C6          1.2900    1.0720    1.0530 ca        1 QUB     -0.115000
      3 C7          1.3930    1.3080    2.4020 ca        1 QUB     -0.123000
      4 C8          0.4430    0.7650    3.2970 ca        1 QUB     -0.125000
      5 C9         -0.5910   -0.0100    2.8350 ca        1 QUB     -0.162300
      6 C4         -0.7260   -0.2800    1.4350 ca        1 QUB      0.390600
      7 N1         -1.7700   -1.0760    0.9970 nb        1 QUB     -0.652000
      8 C3         -1.8630   -1.3130   -0.2970 ca        1 QUB      0.407200
      9 C2         -0.9620   -0.7940   -1.2790 ca        1 QUB     -0.219300
     10 C1          0.0770    0.0100   -0.8640 ca        1 QUB     -0.077900
     11 C10         1.0020    0.6220   -1.8250 ce        1 QUB      0.385800
     12 N2          1.4810   -0.0520   -2.8340 n2        1 QUB     -0.414200
     13 O1          2.2840    0.6410   -3.6230 os        1 QUB     -0.196300
     14 C11         2.8420   -0.1470   -4.7200 c3        1 QUB      0.175600
     15 C12         3.6790    0.8040   -5.4970 c2        1 QUB     -0.175200
     16 C13         4.3780    0.4330   -6.5670 c2        1 QUB     -0.215000
     17 H1          2.0380    1.4870    0.3600 ha        1 QUB      0.137000
     18 H2          2.2160    1.9190    2.8010 ha        1 QUB      0.136000
     19 H3          0.5450    0.9700    4.3730 ha        1 QUB      0.137000
     20 H4         -1.3290   -0.4380    3.5320 ha        1 QUB      0.151000
     21 H5         -2.7020   -1.9580   -0.6180 h4        1 QUB      0.024100
     22 H6         -1.1160   -1.0430   -2.3380 ha        1 QUB      0.155000
     23 H7          1.2480    1.6880   -1.6350 h4        1 QUB      0.012800
     24 H10         2.0060   -0.5620   -5.3420 h1        1 QUB      0.059200
     25 H11         3.4540   -0.9860   -4.2960 h1        1 QUB      0.059200
     26 H12         3.6810    1.8430   -5.1270 ha        1 QUB      0.143000
     27 H14         4.3870   -0.5970   -6.9470 ha        1 QUB      0.116500
     28 H15         4.9920    1.1430   -7.1350 ha        1 QUB      0.116500
@<TRIPOS>BOND
     1    1    2 ar  
     2    1    6 ar  
     3    1   10 ar  
     4    2    3 ar  
     5    2   17 1   
     6    3    4 ar  
     7    3   18 1   
     8    4    5 ar  
     9    4   19 1   
    10    5    6 ar  
    11    5   20 1   
    12    6    7 ar  
    13    7    8 ar  
    14    8    9 ar  
    15    8   21 1   
    16    9   10 ar  
    17    9   22 1   
    18   10   11 1   
    19   11   12 2   
    20   11   23 1   
    21   12   13 1   
    22   13   14 1   
    23   14   15 1   
    24   14   24 1   
    25   14   25 1   
    26   15   16 2   
    27   15   26 1   
    28   16   27 1   
    29   16   28 1   
@<TRIPOS>SUBSTRUCTURE
     1 QUB         1 TEMP              0 ****  ****    0 ROOT
