@<TRIPOS>MOLECULE
QUB
   28    29     1     0     0
SMALL
bcc


@<TRIPOS>ATOM
      1 C5         -1.5190    0.6230    0.2720 ca        1 QUB     -0.130300
      2 C6         -1.4920    1.9960    0.6270 ca        1 QUB     -0.115000
      3 C7         -2.6520    2.7290    0.6860 ca        1 QUB     -0.123000
      4 C8         -3.8950    2.1240    0.3900 ca        1 QUB     -0.125000
      5 C9         -3.9630    0.8010    0.0340 ca        1 QUB     -0.162300
      6 C4         -2.7720    0.0080   -0.0420 ca        1 QUB      0.390600
      7 N1         -2.8680   -1.3200   -0.4180 nb        1 QUB     -0.652000
      8 C3         -1.7520   -2.0220   -0.4870 ca        1 QUB      0.407200
      9 C2         -0.4530   -1.5040   -0.1890 ca        1 QUB     -0.219300
     10 C1         -0.3400   -0.1870    0.1990 ca        1 QUB     -0.077900
     11 C10         0.9560    0.3910    0.5750 ce        1 QUB      0.383800
     12 N2          2.0410    0.1330   -0.1030 n2        1 QUB     -0.412200
     13 O1          3.1300    0.7200    0.3630 os        1 QUB     -0.193300
     14 C11         4.3360    0.4240   -0.3920 c3        1 QUB      0.176600
     15 C12         4.7960   -0.9710   -0.1750 c2        1 QUB     -0.192200
     16 C13         5.6730   -1.5780   -0.9710 c2        1 QUB     -0.211000
     17 H1         -0.5250    2.4730    0.8470 ha        1 QUB      0.136000
     18 H2         -2.6270    3.7940    0.9610 ha        1 QUB      0.136000
     19 H3         -4.8110    2.7310    0.4470 ha        1 QUB      0.137000
     20 H4         -4.9310    0.3300   -0.2020 ha        1 QUB      0.151000
     21 H5         -1.8570   -3.0790   -0.7970 h4        1 QUB      0.024100
     22 H6          0.4220   -2.1620   -0.2730 ha        1 QUB      0.156000
     23 H7          0.9440    1.0440    1.4730 h4        1 QUB      0.011800
     24 H10         4.1810    0.6530   -1.4780 h1        1 QUB      0.068700
     25 H11         5.0580    1.1610    0.0590 h1        1 QUB      0.068700
     26 H12         4.3670   -1.4730    0.7080 ha        1 QUB      0.137000
     27 H14         6.1040   -1.0990   -1.8590 ha        1 QUB      0.115000
     28 H15         6.0190   -2.6030   -0.7830 ha        1 QUB      0.115000
@<TRIPOS>BOND
     1    1    2 ar  
     2    1    6 ar  
     3    1   10 ar  
     4    2    3 ar  
     5    2   17 1   
     6    3    4 ar  
     7    3   18 1   
     8    4    5 ar  
     9    4   19 1   
    10    5    6 ar  
    11    5   20 1   
    12    6    7 ar  
    13    7    8 ar  
    14    8    9 ar  
    15    8   21 1   
    16    9   10 ar  
    17    9   22 1   
    18   10   11 1   
    19   11   12 2   
    20   11   23 1   
    21   12   13 1   
    22   13   14 1   
    23   14   15 1   
    24   14   24 1   
    25   14   25 1   
    26   15   16 2   
    27   15   26 1   
    28   16   27 1   
    29   16   28 1   
@<TRIPOS>SUBSTRUCTURE
     1 QUB         1 TEMP              0 ****  ****    0 ROOT
