@<TRIPOS>MOLECULE
QUD
   72    76     1     0     0
SMALL
bcc


@<TRIPOS>ATOM
      1 C1         -7.4700    3.4700    0.1970 ca        1 QUD     -0.111000
      2 C2         -7.5340    2.0770    0.1410 ca        1 QUD     -0.117000
      3 C3         -6.2770    4.1090    0.5380 ca        1 QUD     -0.117000
      4 C4         -2.3830    0.7630   -2.0550 ca        1 QUD     -0.161300
      5 C5         -6.4040    1.3090    0.4200 ca        1 QUD     -0.124500
      6 C6         -5.1350    3.3610    0.8220 ca        1 QUD     -0.124500
      7 C7         -3.3330    1.1590   -1.1470 ca        1 QUD     -0.099000
      8 C8         -2.1120    0.1140    0.6980 ca        1 QUD     -0.118000
      9 C9         -1.1310   -0.3080   -0.2270 ca        1 QUD     -0.185300
     10 C10        -1.2440    0.0150   -1.6210 ca        1 QUD      0.458600
     11 C11        -5.2150    1.9660    0.7580 ca        1 QUD      0.043100
     12 C12        -3.2020    0.8380    0.2330 ca        1 QUD      0.142100
     13 C13         0.7770   -1.0990   -2.0890 ca        1 QUD      0.600000
     14 C14         2.7520    0.7940    0.7660 c         1 QUD      0.664100
     15 C15         0.0030   -1.0590    0.1750 ca        1 QUD      0.118700
     16 C16         5.6210    3.9430   -0.0820 c3        1 QUD     -0.082400
     17 C17         1.2320   -6.6060    0.5000 c3        1 QUD     -0.082400
     18 C18         5.3170    3.5940    1.3600 c3        1 QUD     -0.079400
     19 C19         4.3870    3.8280   -0.9530 c3        1 QUD     -0.079400
     20 C20         0.0810   -5.7360    0.0430 c3        1 QUD     -0.078400
     21 C21         2.1160   -5.8550    1.4700 c3        1 QUD     -0.078400
     22 C22         4.6860    2.2200    1.4760 c3        1 QUD     -0.071900
     23 C23         3.7560    2.4530   -0.8390 c3        1 QUD     -0.071900
     24 C24         0.5790   -4.4370   -0.5590 c3        1 QUD     -0.078400
     25 C25         2.6160   -4.5500    0.8820 c3        1 QUD     -0.078400
     26 C26         3.4330    2.1430    0.6150 c3        1 QUD     -0.133700
     27 C27         1.4610   -3.6680    0.4180 c3        1 QUD     -0.075700
     28 C28         2.9760   -1.6510    0.7390 c3        1 QUD      0.071000
     29 C29         2.0130   -2.3800   -0.2480 c3        1 QUD     -0.004000
     30 N30         0.9270   -1.4920   -0.7130 na        1 QUD     -0.148900
     31 N31        -0.2710   -0.3610   -2.5120 nb        1 QUD     -0.690000
     32 N32         1.7090   -1.5650   -3.0340 nh        1 QUD     -0.473900
     33 O34         1.6030    0.6860    1.2460 o         1 QUD     -0.636100
     34 O35        -4.1220    1.2030    1.1940 os        1 QUD     -0.231200
     35 H1         -8.3680    4.0690   -0.0220 ha        1 QUD      0.150000
     36 H2         -8.4810    1.5790   -0.1200 ha        1 QUD      0.150000
     37 H3         -6.2360    5.2080    0.5900 ha        1 QUD      0.150000
     38 H5         -6.4450    0.2110    0.3960 ha        1 QUD      0.151500
     39 H6         -4.1930    3.8510    1.1080 ha        1 QUD      0.151500
     40 H4         -2.4870    1.0150   -3.1240 ha        1 QUD      0.179000
     41 H7         -4.2160    1.7360   -1.4780 ha        1 QUD      0.179000
     42 H8         -2.0110   -0.1200    1.7690 ha        1 QUD      0.177000
     43 H15         0.1650   -1.2960    1.2510 h4        1 QUD      0.214000
     44 H321        1.4920   -1.3190   -3.9800 hn        1 QUD      0.283700
     45 H322        2.6670   -1.4330   -2.7900 hn        1 QUD      0.283700
     46 H26         2.6940    2.9110    0.9890 hc        1 QUD      0.100700
     47 H33         4.3540   -0.2580    0.0350 hn        1 QUD      0.322500
     48 H162        6.4200    3.2590   -0.4730 hc        1 QUD      0.051200
     49 H181        6.2630    3.6170    1.9610 hc        1 QUD      0.054450
     50 H182        4.6240    4.3620    1.7940 hc        1 QUD      0.054450
     51 H191        3.6400    4.6080   -0.6500 hc        1 QUD      0.054450
     52 H192        4.6610    4.0210   -2.0230 hc        1 QUD      0.054450
     53 H171        0.8320   -7.5300    0.9930 hc        1 QUD      0.055200
     54 H172        1.8350   -6.9330   -0.3880 hc        1 QUD      0.055200
     55 H201       -0.5270   -6.2850   -0.7230 hc        1 QUD      0.053700
     56 H202       -0.5920   -5.5140    0.9120 hc        1 QUD      0.053700
     57 H211        1.5450   -5.6440    2.4130 hc        1 QUD      0.053700
     58 H212        2.9980   -6.4900    1.7470 hc        1 QUD      0.053700
     59 H221        5.4280    1.4450    1.1510 hc        1 QUD      0.043200
     60 H222        4.4210    2.0160    2.5460 hc        1 QUD      0.043200
     61 H231        2.8180    2.4170   -1.4510 hc        1 QUD      0.043200
     62 H232        4.4660    1.6890   -1.2510 hc        1 QUD      0.043200
     63 H241        1.1640   -4.6580   -1.4910 hc        1 QUD      0.045950
     64 H242       -0.3100   -3.8200   -0.8530 hc        1 QUD      0.045950
     65 H251        3.2120   -4.0200    1.6710 hc        1 QUD      0.045950
     66 H252        3.2950   -4.7630    0.0150 hc        1 QUD      0.045950
     67 H27         0.8490   -3.3880    1.3210 hc        1 QUD      0.059700
     68 H29         2.6160   -2.7180   -1.1400 h1        1 QUD      0.099700
     69 H281        2.4620   -1.5830    1.7420 h1        1 QUD      0.080700
     70 H282        3.8830   -2.3140    0.8390 h1        1 QUD      0.080700
     71 N33         3.4060   -0.3490    0.3220 n         1 QUD     -0.579900
     72 H161        6.0200    4.9900   -0.1370 hc        1 QUD      0.051200
@<TRIPOS>BOND
     1    1    2 ar  
     2    1    3 ar  
     3    1   35 1   
     4    2    5 ar  
     5    2   36 1   
     6    3    6 ar  
     7    3   37 1   
     8    4    7 ar  
     9    4   10 ar  
    10    4   40 1   
    11    5   11 ar  
    12    5   38 1   
    13    6   11 ar  
    14    6   39 1   
    15    7   12 ar  
    16    7   41 1   
    17    8    9 ar  
    18    8   12 ar  
    19    8   42 1   
    20    9   10 ar  
    21    9   15 ar  
    22   10   31 ar  
    23   11   34 1   
    24   12   34 1   
    25   13   30 1   
    26   13   31 ar  
    27   13   32 1   
    28   14   26 1   
    29   14   33 2   
    30   14   71 1   
    31   15   30 2   
    32   15   43 1   
    33   16   18 1   
    34   16   19 1   
    35   16   48 1   
    36   16   72 1   
    37   17   20 1   
    38   17   21 1   
    39   17   53 1   
    40   17   54 1   
    41   18   22 1   
    42   18   49 1   
    43   18   50 1   
    44   19   23 1   
    45   19   51 1   
    46   19   52 1   
    47   20   24 1   
    48   20   55 1   
    49   20   56 1   
    50   21   25 1   
    51   21   57 1   
    52   21   58 1   
    53   22   26 1   
    54   22   59 1   
    55   22   60 1   
    56   23   26 1   
    57   23   61 1   
    58   23   62 1   
    59   24   27 1   
    60   24   63 1   
    61   24   64 1   
    62   25   27 1   
    63   25   65 1   
    64   25   66 1   
    65   26   46 1   
    66   27   29 1   
    67   27   67 1   
    68   28   29 1   
    69   28   69 1   
    70   28   70 1   
    71   28   71 1   
    72   29   30 1   
    73   29   68 1   
    74   32   44 1   
    75   32   45 1   
    76   47   71 1   
@<TRIPOS>SUBSTRUCTURE
     1 QUD         1 TEMP              0 ****  ****    0 ROOT
