@<TRIPOS>MOLECULE
QUD
   72    68     1     0     0
SMALL
bcc


@<TRIPOS>ATOM
      1 C1         -6.9570    4.2800   -5.0530 c1        1 QUD     -0.107500
      2 C2         -5.8480    5.0590   -4.7420 c1        1 QUD     -0.107500
      3 C3         -7.3650    3.2710   -4.1850 c1        1 QUD     -0.107500
      4 C4         -1.4700    4.2550   -1.5460 c1        1 QUD     -0.107500
      5 C5         -5.1440    4.8290   -3.5610 c1        1 QUD     -0.107500
      6 C6         -6.6630    3.0420   -3.0070 c1        1 QUD     -0.157000
      7 C7         -2.8460    4.3790   -1.6780 c1        1 QUD     -0.107500
      8 C8         -3.1050    2.0380   -1.1770 c1        1 QUD     -0.157000
      9 C9         -1.7010    1.9110   -1.0420 c1        1 QUD     -0.122000
     10 C10        -0.8990    2.9980   -1.2230 c1        1 QUD      0.110000
     11 C11        -5.5510    3.8220   -2.6950 c1        1 QUD      0.053000
     12 C12        -3.6650    3.2720   -1.4940 c1        1 QUD      0.053000
     13 C13         1.0130    1.6390   -0.8620 c1        1 QUD      0.238000
     14 C14         1.5300   -1.4150    3.2860 c1        1 QUD      0.323000
     15 C15        -1.1360    0.6690   -0.7670 c2        1 QUD      0.066000
     16 C16         4.1600   -2.3750    6.6450 c3        1 QUD     -0.161000
     17 C17         1.6780   -3.7840   -3.2270 c3        1 QUD     -0.161000
     18 C18         3.6690   -0.9840    6.5230 c3        1 QUD     -0.158000
     19 C19         4.4430   -3.0120    5.3350 c3        1 QUD     -0.158000
     20 C20         1.2420   -2.4300   -3.7640 c3        1 QUD     -0.157000
     21 C21         0.9730   -4.1490   -1.9320 c3        1 QUD     -0.157000
     22 C22         2.4970   -0.8520    5.5700 c3        1 QUD     -0.151000
     23 C23         3.2840   -2.9110    4.3670 c3        1 QUD     -0.151000
     24 C24         1.3420   -1.3370   -2.7230 c3        1 QUD     -0.155500
     25 C25         1.0710   -3.0550   -0.8900 c3        1 QUD     -0.155500
     26 C26         2.7740   -1.4660    4.1850 c2        1 QUD     -0.122000
     27 C27         0.6360   -1.7030   -1.4250 c3        1 QUD     -0.115000
     28 C28         0.5470   -1.1530    0.9890 c3        1 QUD     -0.026000
     29 C29         0.9420   -0.6430   -0.3830 c3        1 QUD     -0.029000
     30 N30         0.2060    0.5420   -0.6800 n2        1 QUD     -0.125000
     31 N31         0.4580    2.8660   -1.1340 n2        1 QUD     -0.181000
     32 N32         2.3090    2.1990   -1.0350 n3        1 QUD     -0.303000
     33 N33         1.6450   -0.9540    1.9140 n3        1 QUD     -0.384000
     34 O34         0.4480   -1.7530    3.7250 o         1 QUD     -0.422000
     35 O35        -5.0630    3.4230   -1.4310 os        1 QUD     -0.137000
     36 H1         -7.4530    4.4420   -5.8840 ha        1 QUD      0.161333
     37 H2         -5.5600    5.7710   -5.3540 ha        1 QUD      0.161333
     38 H3         -8.1480    2.7210   -4.4040 ha        1 QUD      0.161333
     39 H5         -4.3620    5.3780   -3.3420 ha        1 QUD      0.161333
     40 H6         -6.9510    2.3290   -2.3940 ha        1 QUD      0.160000
     41 H4         -0.8940    5.0350   -1.6760 ha        1 QUD      0.161333
     42 H7         -3.2400    5.2470   -1.9010 ha        1 QUD      0.161333
     43 H8         -3.6790    1.2620   -1.0470 ha        1 QUD      0.160000
     44 H15        -1.7080   -0.1100   -0.6370 h4        1 QUD      0.196000
     45 H321        3.0490    1.7100   -0.8200 hn        1 QUD      0.264500
     46 H322        2.4000    3.0490   -1.3580 hn        1 QUD      0.264500
     47 H26         3.4040   -0.9250    3.6720 ha        1 QUD      0.139000
     48 H33         2.3860   -0.4940    1.6480 hn        1 QUD      0.247000
     49 H161        3.4840   -2.9060    7.1140 hc        1 QUD      0.090000
     50 H162        4.9810   -2.3720    7.1760 hc        1 QUD      0.090000
     51 H181        3.3930   -0.6690    7.4080 hc        1 QUD      0.093250
     52 H182        4.4000   -0.4200    6.2020 hc        1 QUD      0.093250
     53 H191        5.2240   -2.5790    4.9370 hc        1 QUD      0.093250
     54 H192        4.6470   -3.9550    5.4810 hc        1 QUD      0.093250
     55 H171        2.6420   -3.7650   -3.0660 hc        1 QUD      0.095500
     56 H172        1.4820   -4.4660   -3.8950 hc        1 QUD      0.095500
     57 H201        1.8100   -2.1950   -4.5250 hc        1 QUD      0.092250
     58 H202        0.3150   -2.4940   -4.0680 hc        1 QUD      0.092250
     59 H211        0.0280   -4.3190   -2.1240 hc        1 QUD      0.092250
     60 H212        1.3740   -4.9640   -1.5740 hc        1 QUD      0.092250
     61 H221        2.2890    0.0970    5.4570 hc        1 QUD      0.083500
     62 H222        1.7220   -1.2990    5.9620 hc        1 QUD      0.083500
     63 H231        3.5690   -3.2540    3.4990 hc        1 QUD      0.083500
     64 H232        2.5490   -3.4640    4.6980 hc        1 QUD      0.083500
     65 H241        2.2870   -1.1670   -2.5320 hc        1 QUD      0.084500
     66 H242        0.9400   -0.5200   -3.0830 hc        1 QUD      0.084500
     67 H251        0.5040   -3.2910   -0.1300 hc        1 QUD      0.084500
     68 H252        1.9980   -2.9910   -0.5860 hc        1 QUD      0.084500
     69 H27        -0.3290   -1.7220   -1.5850 hc        1 QUD      0.094000
     70 H29         1.8980   -0.4430   -0.3930 h1        1 QUD      0.147000
     71 H281        0.3360   -2.1080    0.9340 h1        1 QUD      0.110000
     72 H282       -0.2390   -0.6640    1.3050 h1        1 QUD      0.110000
@<TRIPOS>BOND
     1    1    3 1   
     2    1   36 1   
     3    2    5 1   
     4    2   37 1   
     5    3   38 1   
     6    4    7 1   
     7    4   41 1   
     8    5   39 1   
     9    6   11 1   
    10    6   40 1   
    11    7   42 1   
    12    8   12 1   
    13    8   43 1   
    14    9   10 1   
    15    9   15 1   
    16   10   31 1   
    17   11   35 1   
    18   12   35 1   
    19   13   31 1   
    20   13   32 1   
    21   14   33 1   
    22   14   34 1   
    23   15   30 1   
    24   15   44 1   
    25   16   18 1   
    26   16   19 1   
    27   16   49 1   
    28   16   50 1   
    29   17   20 1   
    30   17   21 1   
    31   17   55 1   
    32   17   56 1   
    33   18   22 1   
    34   18   51 1   
    35   18   52 1   
    36   19   23 1   
    37   19   53 1   
    38   19   54 1   
    39   20   24 1   
    40   20   57 1   
    41   20   58 1   
    42   21   25 1   
    43   21   59 1   
    44   21   60 1   
    45   22   26 1   
    46   22   61 1   
    47   22   62 1   
    48   23   26 1   
    49   23   63 1   
    50   23   64 1   
    51   24   27 1   
    52   24   65 1   
    53   24   66 1   
    54   25   27 1   
    55   25   67 1   
    56   25   68 1   
    57   26   47 1   
    58   27   29 1   
    59   27   69 1   
    60   28   29 1   
    61   28   33 1   
    62   28   71 1   
    63   28   72 1   
    64   29   30 1   
    65   29   70 1   
    66   32   45 1   
    67   32   46 1   
    68   33   48 1   
@<TRIPOS>SUBSTRUCTURE
     1 QUD         1 TEMP              0 ****  ****    0 ROOT
