@<TRIPOS>MOLECULE
QUD
   73    96     1     0     0
SMALL
bcc


@<TRIPOS>ATOM
      1 C1          0.0000    0.0000    0.0000 c3        1 QUD      0.594000
      2 C2          1.3820    0.0000    0.0000 DU        1 QUD      0.004000
      3 C3         -0.6940    0.0000    1.1960 c2        1 QUD     -0.029000
      4 C4          5.5260    1.0010    3.1550 c3        1 QUD      0.001000
      5 C5          2.0740    0.0000    1.1950 c2        1 QUD     -0.423000
      6 C6         -0.0070    0.0020    2.3940 c2        1 QUD     -0.144000
      7 C7          4.1660    1.0520    3.2070 c2        1 QUD      0.352000
      8 C8          4.0270   -1.2740    3.8010 c2        1 QUD     -0.219000
      9 C9          5.4260   -1.3590    3.7540 c3        1 QUD     -0.310000
     10 C10         6.1860   -0.2060    3.4270 c2        1 QUD      0.053000
     11 C11         1.3810    0.0010    2.3980 c3        1 QUD      0.557000
     12 C12         3.4150   -0.0830    3.5300 c2        1 QUD      0.183000
     13 C13         8.1080   -1.4580    3.6490 c3        1 QUD     -0.018000
     14 C14         8.1140   -3.6540    7.9500 c3        1 QUD      0.080000
     15 C15         6.1100   -2.5570    4.0230 c2        1 QUD     -0.251000
     16 C16        10.3210   -2.0220   11.2680 DU        1 QUD      0.285000
     17 C17         8.5280   -6.5850    0.9460 DU        1 QUD      0.392000
     18 C18         8.8190   -2.2560   11.4450 c3        1 QUD     -0.120000
     19 C19        10.5880   -1.4530    9.8740 c3        1 QUD     -0.032000
     20 C20         7.6660   -5.3380    0.7410 c3        1 QUD      0.138000
     21 C21         8.2810   -7.1510    2.3460 c3        1 QUD      0.252000
     22 C22         8.3290   -3.2480   10.3870 DU        1 QUD      0.039000
     23 C23        10.0980   -2.4440    8.8160 c3        1 QUD     -0.380000
     24 C24         8.0330   -4.2850    1.7880 c3        1 QUD     -0.494000
     25 C25         8.6490   -6.0980    3.3940 DU        1 QUD     -0.130000
     26 C26         8.5970   -2.6780    8.9920 DU        1 QUD     -0.555000
     27 C27         7.7860   -4.8520    3.1890 DU        1 QUD      0.274000
     28 C28         7.7780   -4.3110    5.6280 c3        1 QUD     -0.354000
     29 C29         8.1540   -3.7990    4.2360 DU        1 QUD     -0.611000
     30 N30         7.4250   -2.5580    3.9600 n3        1 QUD      0.392000
     31 N31         7.5210   -0.3070    3.3870 n2        1 QUD      0.044000
     32 N32         9.4890   -1.5270    3.5990 n8        1 QUD      0.020000
     33 O34         7.6070   -4.7010    8.2900 o         1 QUD     -0.180000
     34 O35         2.0590    0.0010    3.5750 os        1 QUD     -0.081000
     35 H1          0.8160   -0.3360    0.6280 DU        1 QUD      0.101000
     36 H2          0.4090    0.0020   -0.4760 DU        1 QUD      0.100000
     37 H3          0.1460    0.0000    0.5110 ha        1 QUD     -0.489000
     38 H5          0.9910    0.0000    1.1940 DU        1 QUD      0.192000
     39 H6          1.0060    0.0010    2.0100 ha        1 QUD     -0.338000
     40 H4          4.4560    0.8320    3.1860 hc        1 QUD     -0.233000
     41 H7          5.1490    1.4790    3.0520 DU        1 QUD      0.089000
     42 H8          3.9080   -0.2290    3.5430 ha        1 QUD      0.232000
     43 H15         5.0420   -2.3810    4.0810 DU        1 QUD      0.422000
     44 H321        8.6030   -1.9650    3.7520 DU        1 QUD     -0.020000
     45 H322        9.9410   -1.9350    2.8050 hn        1 QUD      0.126000
     46 H26         8.9020   -2.3450    8.0070 ha        1 QUD      0.216000
     47 H33         8.1820   -2.7740    7.4480 DU        1 QUD      0.200000
     48 H181        8.9850   -2.6290   10.4420 DU        1 QUD      0.046000
     49 H182        8.2920   -1.3170   11.3290 hc        1 QUD      0.093000
     50 H191        9.9720   -1.8340   10.6800 DU        1 QUD     -0.100000
     51 H192       10.0580   -0.5150    9.7610 hc        1 QUD      0.063000
     52 H171        8.8440   -6.0510    1.8340 ha        1 QUD      0.036000
     53 H172        9.5730   -6.3210    0.8440 ha        1 QUD      0.036000
     54 H201        7.9660   -6.3430    0.4690 DU        1 QUD      0.114000
     55 H202        6.6210   -5.6020    0.8480 hc        1 QUD      0.078000
     56 H211        8.1440   -6.4540    1.5280 DU        1 QUD     -0.454000
     57 H212        7.2350   -7.4110    2.4500 hc        1 QUD      0.068000
     58 H221        8.3960   -3.8090    9.4620 DU        1 QUD      0.246000
     59 H222        7.2660   -3.4110   10.5110 ha        1 QUD      0.109000
     60 H231        9.6070   -3.1390    9.4860 DU        1 QUD      0.222000
     61 H232       10.6240   -3.3840    8.9320 hc        1 QUD      0.164000
     62 H241        8.3910   -3.9280    2.7460 DU        1 QUD      0.302000
     63 H242        9.0800   -4.0250    1.6850 hc        1 QUD      0.094000
     64 H251        8.2620   -5.2500    2.8430 DU        1 QUD      0.010500
     65 H252        9.6950   -5.8340    3.2870 ha        1 QUD      0.140000
     66 H27         8.1310   -5.6820    3.7930 DU        1 QUD      0.010500
     67 H29         7.4410   -4.4620    3.7610 ha        1 QUD      0.150000
     68 H281        8.5060   -3.9570    4.9090 DU        1 QUD      0.279000
     69 H282        6.7350   -4.0940    5.8270 hx        1 QUD      0.082000
     70 H161        9.9500   -2.5470   10.3960 ha        1 QUD     -0.022500
     71 N33         8.2470   -3.3620    6.6410 ny        1 QUD      0.226000
     72 H162       10.9360   -2.8700   11.5460 ha        1 QUD     -0.022500
     73 H332        8.8100   -2.5660    6.4160 hn        1 QUD      0.102000
@<TRIPOS>BOND
     1    1    2 1   
     2    1    3 1   
     3    1   35 1   
     4    1   36 1   
     5    2    5 1   
     6    2   35 1   
     7    2   36 1   
     8    2   38 1   
     9    3    6 1   
    10    3   37 1   
    11    4    7 1   
    12    4   10 1   
    13    4   40 1   
    14    4   41 1   
    15    5   11 1   
    16    5   38 1   
    17    6   11 1   
    18    6   39 1   
    19    7   12 1   
    20    7   41 1   
    21    8    9 1   
    22    8   12 1   
    23    8   42 1   
    24    9   10 1   
    25    9   15 1   
    26    9   43 1   
    27   10   31 1   
    28   11   34 1   
    29   11   38 1   
    30   12   34 1   
    31   13   30 1   
    32   13   31 1   
    33   13   32 1   
    34   13   44 1   
    35   14   26 1   
    36   14   33 1   
    37   14   47 1   
    38   14   71 1   
    39   15   30 1   
    40   15   43 1   
    41   16   18 1   
    42   16   19 1   
    43   16   50 1   
    44   16   70 1   
    45   16   72 1   
    46   17   20 1   
    47   17   21 1   
    48   17   52 1   
    49   17   53 1   
    50   17   54 1   
    51   17   56 1   
    52   18   22 1   
    53   18   48 1   
    54   18   49 1   
    55   19   23 1   
    56   19   50 1   
    57   19   51 1   
    58   20   24 1   
    59   20   54 1   
    60   20   55 1   
    61   21   25 1   
    62   21   56 1   
    63   21   57 1   
    64   22   26 1   
    65   22   48 1   
    66   22   58 1   
    67   22   59 1   
    68   23   26 1   
    69   23   60 1   
    70   23   61 1   
    71   24   27 1   
    72   24   62 1   
    73   24   63 1   
    74   25   27 1   
    75   25   64 1   
    76   25   65 1   
    77   25   66 1   
    78   26   46 1   
    79   26   58 1   
    80   26   60 1   
    81   27   29 1   
    82   27   62 1   
    83   27   64 1   
    84   27   66 1   
    85   28   29 1   
    86   28   68 1   
    87   28   69 1   
    88   28   71 1   
    89   29   30 1   
    90   29   67 1   
    91   29   68 1   
    92   32   44 1   
    93   32   45 1   
    94   35   38 1   
    95   47   71 1   
    96   71   73 1   
@<TRIPOS>SUBSTRUCTURE
     1 QUD         1 TEMP              0 ****  ****    0 ROOT
