@<TRIPOS>MOLECULE
QUD
   74    73     1     0     0
SMALL
bcc


@<TRIPOS>ATOM
      1 C1         -3.1280    1.8180   -0.4880 c2        1 QUD      0.217000
      2 C2          0.9000   -2.8490    2.4190 c2        1 QUD     -0.116000
      3 C3         -2.0230    1.3210    0.0490 c1        1 QUD     -0.465000
      4 C4          5.7220    1.2260    2.1190 ca        1 QUD     -0.046000
      5 C5          1.1350   -1.6270    2.0490 c1        1 QUD     -0.284000
      6 C6         -0.9780    0.8460    0.5550 c1        1 QUD      0.114000
      7 C7          4.3950    1.3280    1.8060 ca        1 QUD     -0.089000
      8 C8          3.9840   -1.0060    2.4780 ca        1 QUD     -0.203000
      9 C9          5.3320   -1.1240    2.7980 ca        1 QUD     -0.041000
     10 C10         6.2480   -0.0110    2.6210 ca        1 QUD     -0.016000
     11 C11         1.1700   -0.3960    1.6200 c2        1 QUD     -0.096000
     12 C12         3.4950    0.2140    1.9700 ca        1 QUD      0.191000
     13 C13         8.0290   -1.3280    3.3610 c2        1 QUD     -0.072000
     14 C14         8.2580   -2.8450    6.9850 c2        1 QUD      0.333000
     15 C15         5.8970   -2.3380    3.2960 c2        1 QUD      0.066000
     16 C16        10.1590   -3.6000   11.5290 c3        1 QUD     -0.259000
     17 C17         9.1780   -6.5240    0.7740 c3        1 QUD     -0.224000
     18 C18        10.3770   -3.2250   12.9100 c2        1 QUD      0.295000
     19 C19         9.2790   -2.7010   10.6840 c3        1 QUD     -0.168000
     20 C20        10.9500   -3.3160    1.4920 c1        1 QUD     -0.230000
     21 C21         8.4420   -6.9910    2.0020 c3        1 QUD     -0.167000
     22 C22         9.8400   -2.0750   13.5720 c3        1 QUD     -0.338000
     23 C23         9.1570   -3.2490    9.2720 c3        1 QUD     -0.159000
     24 C24        11.7420   -2.4230    1.3760 c1        1 QUD     -0.230000
     25 C25         8.5190   -6.0010    3.1490 c3        1 QUD     -0.160000
     26 C26         8.2780   -2.3500    8.4210 c3        1 QUD     -0.179000
     27 C27         7.5510   -4.8500    2.9470 c3        1 QUD     -0.189000
     28 C28         7.0550   -4.2800    5.3450 c3        1 QUD     -0.041000
     29 C29         7.7300   -3.7770    4.0390 c3        1 QUD     -0.033000
     30 N30         7.2090   -2.4630    3.5910 na        1 QUD     -0.042000
     31 N31         7.5690   -0.1450    2.9090 n2        1 QUD     -0.030000
     32 N32         9.4890   -1.3950    3.6070 n4        1 QUD     -0.024000
     33 O34         9.2570   -2.6920    6.2410 o         1 QUD     -0.454000
     34 O35         2.2360    0.4860    1.5960 os        1 QUD     -0.071000
     35 H1          0.5540   -3.1020    3.4340 ha        1 QUD      0.139000
     36 H2         -4.1140    1.7130    0.0040 ha        1 QUD      0.157500
     37 H3         -3.1180    2.3600   -1.4520 ha        1 QUD      0.157500
     38 H5          1.0050   -3.7040    1.7310 ha        1 QUD      0.139000
     39 H6          0.2120    0.2340    1.1340 h4        1 QUD      0.358000
     40 H4          3.9740    2.2740    1.4110 ha        1 QUD      0.208000
     41 H7          6.4000    2.0890    1.9810 ha        1 QUD      0.196000
     42 H8          3.3000   -1.8630    2.6110 ha        1 QUD      0.197000
     43 H15         5.2500   -3.2320    3.4450 h4        1 QUD      0.216000
     44 H321        9.9310   -2.0600    2.9390 hn        1 QUD      0.293000
     45 H322        9.8980   -0.4580    3.4570 hn        1 QUD      0.293000
     46 H26         8.6980   -1.3070    8.4080 hc        1 QUD      0.127000
     47 H33         7.2460   -2.2950    8.8590 hc        1 QUD      0.127000
     48 H181        9.1950   -1.4150   12.9370 hc        1 QUD      0.205000
     49 H182       11.0290   -3.9070   13.5110 ha        1 QUD      0.193000
     50 H191        8.2580   -2.6230   11.1450 hc        1 QUD      0.112500
     51 H192        9.7140   -1.6670   10.6460 hc        1 QUD      0.112500
     52 H171        8.7590   -5.5630    0.3890 hc        1 QUD      0.085333
     53 H172       10.2650   -6.3790    0.9910 hc        1 QUD      0.085333
     54 H201        9.0880   -7.2890   -0.0370 hc        1 QUD      0.085333
     55 H202       10.3100   -4.1680    1.5110 ha        1 QUD      0.242000
     56 H211        7.3680   -7.1950    1.7490 hc        1 QUD      0.108000
     57 H212        8.8880   -7.9650    2.3460 hc        1 QUD      0.108000
     58 H221        9.2490   -2.3940   14.4920 hc        1 QUD      0.205000
     59 H222       10.6830   -1.4510   14.0180 hc        1 QUD      0.205000
     60 H231        8.7210   -4.2830    9.3060 hc        1 QUD      0.108500
     61 H232       10.1740   -3.3240    8.8020 hc        1 QUD      0.108500
     62 H241        8.8350   -3.6780    4.2580 h1        1 QUD      0.144000
     63 H242       12.4650   -1.6500    1.2460 ha        1 QUD      0.242000
     64 H251        7.7340   -4.4070    1.9310 hc        1 QUD      0.115500
     65 H252        8.2770   -6.5360    4.1060 hc        1 QUD      0.088000
     66 H27         9.5680   -5.6120    3.2370 hc        1 QUD      0.088000
     67 H29         6.4980   -5.2360    2.9610 hc        1 QUD      0.115500
     68 H281        7.5860   -5.2530    5.5820 h1        1 QUD      0.129000
     69 H282        5.9710   -4.5190    5.1390 h1        1 QUD      0.129000
     70 H161        9.7470   -4.6650   11.5240 hc        1 QUD      0.206500
     71 H323        9.6750   -1.6880    4.5820 hn        1 QUD      0.293000
     72 N33         7.0990   -3.4050    6.4840 n         1 QUD     -0.372000
     73 H162       11.1830   -3.7130   11.0380 hc        1 QUD      0.206500
     74 H332        6.3320   -3.5100    7.1160 hn        1 QUD      0.252000
@<TRIPOS>BOND
     1    1    3 1   
     2    1   36 1   
     3    1   37 1   
     4    2    5 1   
     5    2   35 1   
     6    2   38 1   
     7    3    6 1   
     8    4    7 1   
     9    4   10 1   
    10    4   41 1   
    11    5   11 1   
    12    7   12 1   
    13    7   40 1   
    14    8    9 1   
    15    8   12 1   
    16    8   42 1   
    17    9   10 1   
    18    9   15 1   
    19   10   31 1   
    20   11   34 1   
    21   11   39 1   
    22   12   34 1   
    23   13   30 1   
    24   13   31 1   
    25   13   32 1   
    26   14   26 1   
    27   14   33 1   
    28   14   72 1   
    29   15   30 1   
    30   15   43 1   
    31   16   18 1   
    32   16   19 1   
    33   16   70 1   
    34   16   73 1   
    35   17   21 1   
    36   17   52 1   
    37   17   53 1   
    38   17   54 1   
    39   18   22 1   
    40   18   49 1   
    41   19   23 1   
    42   19   50 1   
    43   19   51 1   
    44   20   24 1   
    45   20   55 1   
    46   21   25 1   
    47   21   56 1   
    48   21   57 1   
    49   22   48 1   
    50   22   58 1   
    51   22   59 1   
    52   23   26 1   
    53   23   60 1   
    54   23   61 1   
    55   24   63 1   
    56   25   27 1   
    57   25   65 1   
    58   25   66 1   
    59   26   46 1   
    60   26   47 1   
    61   27   29 1   
    62   27   64 1   
    63   27   67 1   
    64   28   29 1   
    65   28   68 1   
    66   28   69 1   
    67   28   72 1   
    68   29   30 1   
    69   29   62 1   
    70   32   44 1   
    71   32   45 1   
    72   32   71 1   
    73   72   74 1   
@<TRIPOS>SUBSTRUCTURE
     1 QUD         1 TEMP              0 ****  ****    0 ROOT
