@<TRIPOS>MOLECULE
QUE
   32    34     1     0     0
SMALL
bcc


@<TRIPOS>ATOM
      1 C1         -0.0790    0.0700    0.1150 ca        1 QUE     -0.353000
      2 C2          1.3100   -0.0560    0.0100 ca        1 QUE      0.254100
      3 C3          2.1410   -0.0350    1.1570 ca        1 QUE     -0.281600
      4 C4          1.5160    0.1180    2.4100 ca        1 QUE      0.220100
      5 C5          0.1260    0.2470    2.5490 ca        1 QUE     -0.234000
      6 C6         -0.6550    0.2210    1.3880 ca        1 QUE      0.224100
      7 C9          3.5890   -0.1620    1.0810 c         1 QUE      0.583900
      8 C10         4.2670   -0.1240    2.3940 cc        1 QUE     -0.062100
      9 C11         3.5970    0.0320    3.5690 cd        1 QUE      0.133900
     10 C14         4.1530    0.1020    4.9170 ca        1 QUE     -0.051800
     11 C15         5.3640   -0.5360    5.2170 ca        1 QUE     -0.086000
     12 C16         5.9010   -0.4630    6.5000 ca        1 QUE     -0.181000
     13 C17         5.2250    0.2480    7.4950 ca        1 QUE      0.058100
     14 C18         4.0010    0.8900    7.2030 ca        1 QUE      0.100100
     15 C19         3.4670    0.8140    5.9130 ca        1 QUE     -0.100000
     16 O12         2.2070    0.1520    3.6020 os        1 QUE     -0.209200
     17 O13         4.2530   -0.2880    0.0420 o         1 QUE     -0.538100
     18 O23         3.2890    1.6030    8.1390 oh        1 QUE     -0.493100
     19 O24         5.6840    0.3720    8.7900 oh        1 QUE     -0.514100
     20 O27         5.6390   -0.2510    2.4080 oh        1 QUE     -0.491100
     21 O29        -2.0070    0.3500    1.5630 oh        1 QUE     -0.482100
     22 O30         1.9310   -0.2060   -1.1970 oh        1 QUE     -0.451100
     23 H1         -0.7100    0.0530   -0.7830 ha        1 QUE      0.144000
     24 H5         -0.3350    0.3640    3.5390 ha        1 QUE      0.178000
     25 H15         5.9020   -1.0980    4.4360 ha        1 QUE      0.162000
     26 H16         6.8530   -0.9630    6.7300 ha        1 QUE      0.140000
     27 H19         2.5110    1.3140    5.6940 ha        1 QUE      0.166000
     28 HO3         3.7820    1.5730    8.9740 ho        1 QUE      0.437000
     29 HO4         6.5280   -0.0970    8.8510 ho        1 QUE      0.432000
     30 HO7         5.9350   -0.2540    1.4800 ho        1 QUE      0.445000
     31 HO9        -2.4330    0.3180    0.6930 ho        1 QUE      0.428000
     32 HO0         1.2520   -0.2030   -1.8920 ho        1 QUE      0.424000
@<TRIPOS>BOND
     1    1    2 ar  
     2    1    6 ar  
     3    1   23 1   
     4    2    3 ar  
     5    2   22 1   
     6    3    4 ar  
     7    3    7 1   
     8    4    5 ar  
     9    4   16 1   
    10    5    6 ar  
    11    5   24 1   
    12    6   21 1   
    13    7    8 1   
    14    7   17 2   
    15    8    9 2   
    16    8   20 1   
    17    9   10 1   
    18    9   16 1   
    19   10   11 ar  
    20   10   15 ar  
    21   11   12 ar  
    22   11   25 1   
    23   12   13 ar  
    24   12   26 1   
    25   13   14 ar  
    26   13   19 1   
    27   14   15 ar  
    28   14   18 1   
    29   15   27 1   
    30   18   28 1   
    31   19   29 1   
    32   20   30 1   
    33   21   31 1   
    34   22   32 1   
@<TRIPOS>SUBSTRUCTURE
     1 QUE         1 TEMP              0 ****  ****    0 ROOT
