@<TRIPOS>MOLECULE
QUE
   32    34     1     0     0
SMALL
bcc


@<TRIPOS>ATOM
      1 C1          0.8280   -0.0860    4.4430 ca        1 QUE     -0.302000
      2 C2         -0.4190    0.0080    3.8070 ca        1 QUE      0.271100
      3 C3         -0.5180    0.0090    2.3930 ca        1 QUE     -0.335600
      4 C4          0.6810   -0.0880    1.6530 ca        1 QUE      0.221100
      5 C5          1.9380   -0.1820    2.2610 ca        1 QUE     -0.237000
      6 C6          1.9880   -0.1790    3.6630 ca        1 QUE      0.224100
      7 C9         -1.7790    0.1040    1.6820 c         1 QUE      0.588900
      8 C10        -1.6720    0.0800    0.2150 cc        1 QUE     -0.068100
      9 C11        -0.4750   -0.0090   -0.4310 cd        1 QUE      0.153900
     10 C14        -0.2330   -0.0230   -1.8710 ca        1 QUE     -0.058800
     11 C15        -1.2130   -0.5050   -2.7490 ca        1 QUE     -0.083000
     12 C16        -0.9860   -0.5110   -4.1230 ca        1 QUE     -0.182000
     13 C17         0.2270   -0.0370   -4.6280 ca        1 QUE      0.061100
     14 C18         1.2220    0.4460   -3.7490 ca        1 QUE      0.100100
     15 C19         0.9900    0.4500   -2.3710 ca        1 QUE     -0.097000
     16 O12         0.7220   -0.0990    0.2740 os        1 QUE     -0.208200
     17 O13        -2.8980    0.2060    2.2250 o         1 QUE     -0.602100
     18 O23         2.4360    0.9230   -4.1860 oh        1 QUE     -0.492100
     19 O24         0.5340   -0.0060   -5.9710 oh        1 QUE     -0.513100
     20 O27        -2.8360    0.1540   -0.5190 oh        1 QUE     -0.490100
     21 O29         3.2350   -0.2740    4.2220 oh        1 QUE     -0.482100
     22 O30        -1.4860    0.0950    4.6490 oh        1 QUE     -0.493100
     23 H1          0.8750   -0.0840    5.5410 ha        1 QUE      0.162000
     24 H5          2.8550   -0.2570    1.6620 ha        1 QUE      0.178000
     25 H15        -2.1720   -0.8790   -2.3560 ha        1 QUE      0.163000
     26 H16        -1.7590   -0.8870   -4.8090 ha        1 QUE      0.141000
     27 H19         1.7720    0.8230   -1.6930 ha        1 QUE      0.167000
     28 HO3         2.4500    0.8630   -5.1540 ho        1 QUE      0.438000
     29 HO4        -0.2280   -0.3500   -6.4590 ho        1 QUE      0.433000
     30 HO7        -3.5610    0.3240    0.1090 ho        1 QUE      0.445000
     31 HO9         3.1380   -0.2610    5.1870 ho        1 QUE      0.431000
     32 HO0        -2.3150    0.1580    4.1420 ho        1 QUE      0.467000
@<TRIPOS>BOND
     1    1    2 ar  
     2    1    6 ar  
     3    1   23 1   
     4    2    3 ar  
     5    2   22 1   
     6    3    4 ar  
     7    3    7 1   
     8    4    5 ar  
     9    4   16 1   
    10    5    6 ar  
    11    5   24 1   
    12    6   21 1   
    13    7    8 1   
    14    7   17 2   
    15    8    9 2   
    16    8   20 1   
    17    9   10 1   
    18    9   16 1   
    19   10   11 ar  
    20   10   15 ar  
    21   11   12 ar  
    22   11   25 1   
    23   12   13 ar  
    24   12   26 1   
    25   13   14 ar  
    26   13   19 1   
    27   14   15 ar  
    28   14   18 1   
    29   15   27 1   
    30   18   28 1   
    31   19   29 1   
    32   20   30 1   
    33   21   31 1   
    34   22   32 1   
@<TRIPOS>SUBSTRUCTURE
     1 QUE         1 TEMP              0 ****  ****    0 ROOT
