@<TRIPOS>MOLECULE
QUI
   18    19     1     0     0
SMALL
bcc


@<TRIPOS>ATOM
      1 N1          0.9440    0.0000    0.4520 nb        1 QUI     -0.620000
      2 C2         -0.0340    0.0000    1.3390 ca        1 QUI      0.267500
      3 C3         -1.4350    0.0000    0.9130 ca        1 QUI      0.324900
      4 N4         -1.8140    0.0000   -0.3460 nb        1 QUI     -0.680000
      5 C5         -1.1130    0.0000   -2.6880 ca        1 QUI     -0.162300
      6 C6         -0.1090    0.0000   -3.6260 ca        1 QUI     -0.154000
      7 C7          1.2460    0.0000   -3.2310 ca        1 QUI     -0.153000
      8 C8          1.5900    0.0000   -1.9010 ca        1 QUI     -0.157300
      9 C9          0.5800    0.0000   -0.8920 ca        1 QUI      0.281300
     10 C10        -0.7980    0.0000   -1.2980 ca        1 QUI      0.267300
     11 C           0.1940    0.0000    2.8750 c         1 QUI      0.819100
     12 O1         -0.8620    0.0000    3.5650 o         1 QUI     -0.798300
     13 O2          1.3630   -0.0000    3.3230 o         1 QUI     -0.798300
     14 H3         -2.2090    0.0000    1.7070 h4        1 QUI      0.061100
     15 H5         -2.1690    0.0000   -2.9960 ha        1 QUI      0.132000
     16 H6         -0.3520    0.0000   -4.6980 ha        1 QUI      0.114000
     17 H7          2.0270   -0.0000   -4.0050 ha        1 QUI      0.115000
     18 H8          2.6470    0.0000   -1.5920 ha        1 QUI      0.142000
@<TRIPOS>BOND
     1    1    2 ar  
     2    1    9 ar  
     3    2    3 ar  
     4    2   11 1   
     5    3    4 ar  
     6    3   14 1   
     7    4   10 ar  
     8    5    6 ar  
     9    5   10 ar  
    10    5   15 1   
    11    6    7 ar  
    12    6   16 1   
    13    7    8 ar  
    14    7   17 1   
    15    8    9 ar  
    16    8   18 1   
    17    9   10 ar  
    18   11   12 1   
    19   11   13 1   
@<TRIPOS>SUBSTRUCTURE
     1 QUI         1 TEMP              0 ****  ****    0 ROOT
