@<TRIPOS>MOLECULE
QUI
   18    19     1     0     0
SMALL
bcc


@<TRIPOS>ATOM
      1 N1         -0.0610   -0.0040   -0.0660 nb        1 QUI     -0.642000
      2 C2          1.2600   -0.0000   -0.0770 ca        1 QUI      0.293500
      3 C3          2.0210   -0.0000    1.1740 ca        1 QUI      0.320900
      4 N4          1.4650   -0.0040    2.3650 nb        1 QUI     -0.671000
      5 C5         -0.6180   -0.0130    3.6450 ca        1 QUI     -0.157300
      6 C6         -1.9920   -0.0170    3.6760 ca        1 QUI     -0.158000
      7 C7         -2.7390   -0.0170    2.4790 ca        1 QUI     -0.148000
      8 C8         -2.1090   -0.0120    1.2580 ca        1 QUI     -0.162300
      9 C9         -0.6850   -0.0080    1.1780 ca        1 QUI      0.295300
     10 C10         0.0730   -0.0080    2.3990 ca        1 QUI      0.260300
     11 C           2.1120    0.0050   -1.3750 c         1 QUI      0.828100
     12 O1          3.3600    0.0080   -1.1850 o         1 QUI     -0.798300
     13 O2          1.5390    0.0050   -2.4880 o         1 QUI     -0.798300
     14 H3          3.1270    0.0030    1.0970 h4        1 QUI      0.033100
     15 H5         -0.0350   -0.0130    4.5780 ha        1 QUI      0.132000
     16 H6         -2.5240   -0.0200    4.6380 ha        1 QUI      0.114000
     17 H7         -3.8370   -0.0200    2.5360 ha        1 QUI      0.115000
     18 H8         -2.6920   -0.0120    0.3230 ha        1 QUI      0.141000
@<TRIPOS>BOND
     1    1    2 ar  
     2    1    9 ar  
     3    2    3 ar  
     4    2   11 1   
     5    3    4 ar  
     6    3   14 1   
     7    4   10 ar  
     8    5    6 ar  
     9    5   10 ar  
    10    5   15 1   
    11    6    7 ar  
    12    6   16 1   
    13    7    8 ar  
    14    7   17 1   
    15    8    9 ar  
    16    8   18 1   
    17    9   10 ar  
    18   11   12 1   
    19   11   13 1   
@<TRIPOS>SUBSTRUCTURE
     1 QUI         1 TEMP              0 ****  ****    0 ROOT
