@<TRIPOS>MOLECULE
QUL
   50    53     1     0     0
SMALL
bcc


@<TRIPOS>ATOM
      1 N1          0.0550    0.0540    0.0220 nb        1 QUL     -0.613000
      2 C2         -1.7780    0.3360   -1.5250 ca        1 QUL     -0.146300
      3 C3         -2.2630    0.4710   -2.8020 ca        1 QUL     -0.125000
      4 C4         -1.3820    0.4810   -3.9050 ca        1 QUL     -0.117000
      5 C5         -0.0250    0.3720   -3.7110 ca        1 QUL     -0.136000
      6 C6          1.9440    0.1350   -2.1770 ca        1 QUL      0.083600
      7 N6          2.8570    0.1900   -3.2670 nu        1 QUL     -0.706600
      8 N7          3.6680   -0.1450   -0.3250 na        1 QUL     -0.154300
      9 C8          4.4760   -0.5410    2.0510 ca        1 QUL     -0.142000
     10 C9          4.0650   -0.6440    3.3850 ca        1 QUL     -0.087000
     11 C1'         3.0670    1.5180   -3.8040 c3        1 QUL      0.162800
     12 C10         2.7200   -0.5630    3.7450 ca        1 QUL     -0.146000
     13 C11         1.7250   -0.3770    2.7780 ca        1 QUL     -0.047000
     14 C1A         1.3470   -0.0910    0.2110 cp        1 QUL      0.483800
     15 C11A        2.1090   -0.2750    1.4520 cp        1 QUL     -0.194500
     16 C2'         3.3570    1.4210   -5.3230 c3        1 QUL      0.088800
     17 C2A        -0.3710    0.2090   -1.2880 ca        1 QUL      0.390600
     18 N3'         3.3610    2.7610   -5.9920 nx        1 QUL     -0.689400
     19 C4'         4.6620    3.4760   -5.7610 c3        1 QUL      0.109800
     20 C4X         3.0780    2.6220   -7.4620 c3        1 QUL      0.109800
     21 C5'         4.5640    4.9780   -5.9270 c3        1 QUL     -0.135100
     22 C5A         0.5210    0.2440   -2.4080 ca        1 QUL     -0.115300
     23 C5X         1.6100    2.4260   -7.7770 c3        1 QUL     -0.135100
     24 C6A         2.3570   -0.0620   -0.8690 ca        1 QUL     -0.175500
     25 C8A         3.4960   -0.3520    1.0810 ca        1 QUL     -0.038200
     26 H2         -2.4650    0.3160   -0.6630 ha        1 QUL      0.164000
     27 H3         -3.3460    0.5630   -2.9790 ha        1 QUL      0.149000
     28 H4         -1.7970    0.5640   -4.9200 ha        1 QUL      0.135000
     29 H5          0.6450    0.3500   -4.5820 ha        1 QUL      0.115000
     30 HN6         3.7280   -0.2560   -3.0490 hn        1 QUL      0.389800
     31 HN7         4.2990   -0.7730   -0.7770 hn        1 QUL      0.254700
     32 H8          5.5410   -0.6060    1.7880 ha        1 QUL      0.145000
     33 H9          4.8280   -0.7940    4.1670 ha        1 QUL      0.146000
     34 H1'         3.9240    2.0540   -3.3030 h1        1 QUL      0.059700
     35 H2'         2.5590    0.7890   -5.8140 hx        1 QUL      0.109200
     36 H4'         5.4190    3.0490   -6.4790 hx        1 QUL      0.102700
     37 H5'         5.5680    5.4160   -5.6920 hc        1 QUL      0.078200
     38 H1'A        2.1320    2.1290   -3.6410 h1        1 QUL      0.059700
     39 H2'A        4.3560    0.9350   -5.5020 hx        1 QUL      0.109200
     40 H4'A        4.9970    3.2400   -4.7090 hx        1 QUL      0.102700
     41 H5'A        4.2950    5.2700   -6.9710 hc        1 QUL      0.078200
     42 H5'B        3.8190    5.4250   -5.2230 hc        1 QUL      0.078200
     43 H10         2.4340   -0.6470    4.8040 ha        1 QUL      0.149000
     44 H11         0.6630   -0.3140    3.0620 ha        1 QUL      0.160000
     45 H4X         3.6830    1.7520   -7.8460 hx        1 QUL      0.102700
     46 H5X         0.9930    3.2870   -7.4210 hc        1 QUL      0.078200
     47 H4XA        3.4460    3.5620   -7.9680 hx        1 QUL      0.102700
     48 H5XA        1.2060    1.4840   -7.3330 hc        1 QUL      0.078200
     49 H5XB        1.5030    2.3580   -8.8900 hc        1 QUL      0.078200
     50 H3'1        2.6080    3.3280   -5.5780 hn        1 QUL      0.446800
@<TRIPOS>BOND
     1    1   14 ar  
     2    1   17 ar  
     3    2    3 ar  
     4    2   17 ar  
     5    2   26 1   
     6    3    4 ar  
     7    3   27 1   
     8    4    5 ar  
     9    4   28 1   
    10    5   22 ar  
    11    5   29 1   
    12    6    7 1   
    13    6   22 ar  
    14    6   24 ar  
    15    7   11 1   
    16    7   30 1   
    17    8   24 1   
    18    8   25 1   
    19    8   31 1   
    20    9   10 ar  
    21    9   25 ar  
    22    9   32 1   
    23   10   12 ar  
    24   10   33 1   
    25   11   16 1   
    26   11   34 1   
    27   11   38 1   
    28   12   13 ar  
    29   12   43 1   
    30   13   15 ar  
    31   13   44 1   
    32   14   15 1   
    33   14   24 ar  
    34   15   25 ar  
    35   16   18 1   
    36   16   35 1   
    37   16   39 1   
    38   17   22 ar  
    39   18   19 1   
    40   18   20 1   
    41   18   50 1   
    42   19   21 1   
    43   19   36 1   
    44   19   40 1   
    45   20   23 1   
    46   20   45 1   
    47   20   47 1   
    48   21   37 1   
    49   21   41 1   
    50   21   42 1   
    51   23   46 1   
    52   23   48 1   
    53   23   49 1   
@<TRIPOS>SUBSTRUCTURE
     1 QUL         1 TEMP              0 ****  ****    0 ROOT
