@<TRIPOS>MOLECULE
QUL
   49    52     1     0     0
SMALL
bcc


@<TRIPOS>ATOM
      1 N1         -2.6750    1.5240    0.3740 nb        1 QUL     -0.640000
      2 C2         -1.4630    3.5890    0.6790 ca        1 QUL     -0.168300
      3 C3         -0.3120    4.3300    0.5960 ca        1 QUL     -0.125000
      4 C4          0.8840    3.7460    0.1240 ca        1 QUL     -0.135000
      5 C5          0.9120    2.4210   -0.2410 ca        1 QUL     -0.104000
      6 C6         -0.2360    0.2110   -0.5200 ca        1 QUL      0.151600
      7 N6          0.9340   -0.3970   -1.0200 nh        1 QUL     -0.733600
      8 N7         -1.7760   -1.7990   -0.7960 na        1 QUL     -0.149300
      9 C8         -3.9370   -3.1160   -0.5870 ca        1 QUL     -0.154000
     10 C9         -5.2970   -3.0150   -0.2760 ca        1 QUL     -0.095000
     11 C1'         1.9980   -0.6460   -0.0670 c3        1 QUL      0.174800
     12 C10        -5.8630   -1.8140    0.1480 ca        1 QUL     -0.162000
     13 C11        -5.0850   -0.6580    0.2820 ca        1 QUL     -0.054000
     14 C1A        -2.6510    0.2550    0.0220 cp        1 QUL      0.480800
     15 C11A       -3.7360   -0.7350   -0.0150 cp        1 QUL     -0.190500
     16 C2'         3.3630   -0.7750   -0.7860 c3        1 QUL      0.170800
     17 C2A        -1.4720    2.2070    0.2980 ca        1 QUL      0.394600
     18 N3'         4.4470   -0.9940    0.1590 n3        1 QUL     -0.749600
     19 C4'         4.5950   -2.3940    0.5330 c3        1 QUL      0.176800
     20 C4X         5.7000   -0.3780   -0.2550 c3        1 QUL      0.176800
     21 C5'         5.2540   -2.6040    1.8880 c3        1 QUL     -0.094600
     22 C5A        -0.2500    1.6100   -0.1490 ca        1 QUL     -0.124300
     23 C5X         5.7240    1.1350   -0.0930 c3        1 QUL     -0.094600
     24 C6A        -1.4470   -0.4650   -0.4210 ca        1 QUL     -0.221500
     25 C8A        -3.1510   -1.9720   -0.4620 ca        1 QUL     -0.023200
     26 H2         -2.4000    4.0450    1.0370 ha        1 QUL      0.149000
     27 H3         -0.3110    5.3910    0.8900 ha        1 QUL      0.135000
     28 H4          1.7900    4.3650    0.0470 ha        1 QUL      0.133000
     29 H5          1.8490    1.9860   -0.6250 ha        1 QUL      0.146000
     30 HN6         0.7380   -1.2000   -1.5830 hn        1 QUL      0.390800
     31 HN7        -1.1530   -2.5160   -0.4950 hn        1 QUL      0.253700
     32 H8         -3.5100   -4.0690   -0.9250 ha        1 QUL      0.140000
     33 H9         -5.9310   -3.9100   -0.3710 ha        1 QUL      0.133000
     34 H1'         2.0460    0.2080    0.6660 h1        1 QUL      0.046200
     35 H2'         3.3010   -1.6090   -1.5460 h1        1 QUL      0.039200
     36 H4'         3.5660   -2.8550    0.5740 h1        1 QUL      0.028700
     37 H5'         5.2190   -3.6920    2.1360 hc        1 QUL      0.038867
     38 H1'A        1.7990   -1.5860    0.5270 h1        1 QUL      0.046200
     39 H2'A        3.5500    0.1800   -1.3520 h1        1 QUL      0.039200
     40 H4'A        5.1830   -2.9650   -0.2460 h1        1 QUL      0.028700
     41 H5'A        6.3220   -2.2790    1.8800 hc        1 QUL      0.038867
     42 H5'B        4.7200   -2.0370    2.6870 hc        1 QUL      0.038867
     43 H10        -6.9370   -1.7710    0.3820 ha        1 QUL      0.136000
     44 H11        -5.5320    0.2900    0.6150 ha        1 QUL      0.153000
     45 H4X         6.5260   -0.8080    0.3820 h1        1 QUL      0.028700
     46 H5X         6.7440    1.5050   -0.3590 hc        1 QUL      0.038867
     47 H4XA        5.9440   -0.6290   -1.3300 h1        1 QUL      0.028700
     48 H5XA        4.9820    1.6320   -0.7620 hc        1 QUL      0.038867
     49 H5XB        5.5000    1.4280    0.9600 hc        1 QUL      0.038867
@<TRIPOS>BOND
     1    1   14 ar  
     2    1   17 ar  
     3    2    3 ar  
     4    2   17 ar  
     5    2   26 1   
     6    3    4 ar  
     7    3   27 1   
     8    4    5 ar  
     9    4   28 1   
    10    5   22 ar  
    11    5   29 1   
    12    6    7 1   
    13    6   22 ar  
    14    6   24 ar  
    15    7   11 1   
    16    7   30 1   
    17    8   24 1   
    18    8   25 1   
    19    8   31 1   
    20    9   10 ar  
    21    9   25 ar  
    22    9   32 1   
    23   10   12 ar  
    24   10   33 1   
    25   11   16 1   
    26   11   34 1   
    27   11   38 1   
    28   12   13 ar  
    29   12   43 1   
    30   13   15 ar  
    31   13   44 1   
    32   14   15 1   
    33   14   24 ar  
    34   15   25 ar  
    35   16   18 1   
    36   16   35 1   
    37   16   39 1   
    38   17   22 ar  
    39   18   19 1   
    40   18   20 1   
    41   19   21 1   
    42   19   36 1   
    43   19   40 1   
    44   20   23 1   
    45   20   45 1   
    46   20   47 1   
    47   21   37 1   
    48   21   41 1   
    49   21   42 1   
    50   23   46 1   
    51   23   48 1   
    52   23   49 1   
@<TRIPOS>SUBSTRUCTURE
     1 QUL         1 TEMP              0 ****  ****    0 ROOT
