@<TRIPOS>MOLECULE
QUL
   49    42     1     0     0
SMALL
bcc


@<TRIPOS>ATOM
      1 N1         -2.5660    0.5810    3.0720 n1        1 QUL     -0.113000
      2 C2         -4.6720    0.6560    1.8730 c1        1 QUL     -0.116625
      3 C3         -5.3710    0.7440    0.6460 c1        1 QUL     -0.116625
      4 C4         -4.6500    0.8130   -0.5810 c1        1 QUL     -0.116625
      5 C5         -3.2520    0.7920   -0.5720 c1        1 QUL     -0.116625
      6 C6         -1.1730    0.7140    0.6820 c1        1 QUL      0.066000
      7 N6         -0.2480    0.8950   -0.4440 n2        1 QUL     -0.286000
      8 N7          0.8850    0.7560    2.1980 n2        1 QUL     -0.191000
      9 C8          2.1530    0.7870    4.4490 c1        1 QUL     -0.116625
     10 C9          1.9930    0.7250    5.8440 c1        1 QUL     -0.116625
     11 C1'         0.0220   -0.2520   -1.3990 c3        1 QUL     -0.064000
     12 C10         0.7150    0.6240    6.3970 c1        1 QUL     -0.116625
     13 C11        -0.4090    0.5850    5.5630 c1        1 QUL     -0.116625
     14 C1A        -1.1920    0.5930    3.0830 c1        1 QUL      0.045000
     15 C11A       -0.2510    0.6490    4.1530 c1        1 QUL     -0.084000
     16 C2'         0.8040    0.2550   -2.5900 c3        1 QUL     -0.066000
     17 C2A        -3.2460    0.6350    1.8800 c1        1 QUL      0.000000
     18 N3'         1.5410   -0.8410   -3.1830 n3        1 QUL     -0.274000
     19 C4'         0.8130   -1.3410   -4.3170 c3        1 QUL     -0.062500
     20 C4X         2.8530   -0.3650   -3.6180 c3        1 QUL     -0.062500
     21 C5'         1.2730   -2.7360   -4.6360 c3        1 QUL     -0.212000
     22 C5A        -2.5400    0.7020    0.6730 c1        1 QUL     -0.057000
     23 C5X         3.9280   -0.9710   -2.7490 c3        1 QUL     -0.212000
     24 C6A        -0.4870    0.6600    1.8880 c2        1 QUL     -0.106000
     25 C8A         1.0160    0.7490    3.6030 c1        1 QUL      0.024000
     26 H2         -5.1690    0.6070    2.7220 ha        1 QUL      0.140500
     27 H3         -6.3310    0.7590    0.6400 ha        1 QUL      0.140500
     28 H4         -5.1340    0.8750   -1.4310 ha        1 QUL      0.140500
     29 H5         -2.7470    0.8410   -1.4340 ha        1 QUL      0.140500
     30 HN6         0.1470    1.6960   -0.5780 hn        1 QUL      0.185000
     31 HN7         1.5650    0.7370    1.6040 DU        1 QUL      0.207000
     32 H8          3.0500    0.8580    4.0610 ha        1 QUL      0.140500
     33 H9          2.7970    0.7520    6.4410 ha        1 QUL      0.140500
     34 H1'        -0.8600   -0.6430   -1.7170 h1        1 QUL      0.085500
     35 H2'         1.4250    0.9460   -2.3020 h1        1 QUL      0.079000
     36 H4'        -0.1570   -1.3530   -4.1090 h1        1 QUL      0.069500
     37 H5'         2.0890   -2.6950   -5.2360 hc        1 QUL      0.077667
     38 H1'A        0.5290   -0.9300   -0.9500 h1        1 QUL      0.085500
     39 H2'A        0.2150    0.6090   -3.2210 h1        1 QUL      0.079000
     40 H4'A        0.9680   -0.7770   -5.0640 h1        1 QUL      0.069500
     41 H5'A        1.5030   -3.2060   -3.7980 hc        1 QUL      0.077667
     42 H5'B        0.5390   -3.2310   -5.1060 hc        1 QUL      0.077667
     43 H10         0.6010    0.5790    7.4010 ha        1 QUL      0.140500
     44 H11        -1.3230    0.5140    5.9610 ha        1 QUL      0.140500
     45 H4X         2.8870    0.6270   -3.5400 h1        1 QUL      0.069500
     46 H5X         4.2200   -0.3160   -2.0900 hc        1 QUL      0.077667
     47 H4XA        3.0100   -0.6360   -4.5910 h1        1 QUL      0.069500
     48 H5XA        3.5580   -1.7910   -2.2730 hc        1 QUL      0.077667
     49 H5XB        4.6810   -1.2300   -3.3030 hc        1 QUL      0.077667
@<TRIPOS>BOND
     1    1   17 1   
     2    2    3 1   
     3    2   26 1   
     4    3   27 1   
     5    4    5 1   
     6    4   28 1   
     7    5   29 1   
     8    6   22 1   
     9    6   24 1   
    10    7   11 1   
    11    7   30 1   
    12    8   24 1   
    13    8   25 1   
    14    9   10 1   
    15    9   32 1   
    16   10   33 1   
    17   11   16 1   
    18   11   34 1   
    19   11   38 1   
    20   12   13 1   
    21   12   43 1   
    22   13   44 1   
    23   14   24 1   
    24   15   25 1   
    25   16   18 1   
    26   16   35 1   
    27   16   39 1   
    28   17   22 1   
    29   18   19 1   
    30   18   20 1   
    31   19   21 1   
    32   19   36 1   
    33   19   40 1   
    34   20   23 1   
    35   20   45 1   
    36   20   47 1   
    37   21   37 1   
    38   21   41 1   
    39   21   42 1   
    40   23   46 1   
    41   23   48 1   
    42   23   49 1   
@<TRIPOS>SUBSTRUCTURE
     1 QUL         1 TEMP              0 ****  ****    0 ROOT
