@<TRIPOS>MOLECULE
QUL
   50    53     1     0     0
SMALL
bcc


@<TRIPOS>ATOM
      1 N1          0.0570    0.0720    0.0290 nb        1 QUL     -0.613000
      2 C2         -1.7760    0.3450   -1.5200 ca        1 QUL     -0.146300
      3 C3         -2.2610    0.4730   -2.7970 ca        1 QUL     -0.125000
      4 C4         -1.3790    0.4760   -3.9000 ca        1 QUL     -0.117000
      5 C5         -0.0230    0.3690   -3.7050 ca        1 QUL     -0.136000
      6 C6          1.9460    0.1410   -2.1700 ca        1 QUL      0.083600
      7 N6          2.8600    0.1900   -3.2600 nh        1 QUL     -0.706600
      8 N7          3.6700   -0.1280   -0.3170 na        1 QUL     -0.154300
      9 C8          4.4780   -0.5110    2.0620 ca        1 QUL     -0.142000
     10 C9          4.0670   -0.6060    3.3970 ca        1 QUL     -0.087000
     11 C1'         3.0680    1.5150   -3.8050 c3        1 QUL      0.162800
     12 C10         2.7220   -0.5240    3.7560 ca        1 QUL     -0.146000
     13 C11         1.7270   -0.3430    2.7880 ca        1 QUL     -0.047000
     14 C1A         1.3490   -0.0710    0.2190 cp        1 QUL      0.483800
     15 C11A        2.1110   -0.2490    1.4620 cp        1 QUL     -0.194500
     16 C2'         3.3570    1.4080   -5.3240 c3        1 QUL      0.088800
     17 C2A        -0.3680    0.2190   -1.2820 ca        1 QUL      0.390600
     18 N3'         3.3580    2.7440   -6.0020 n4        1 QUL     -0.689400
     19 C4'         4.6580    3.4630   -5.7760 c3        1 QUL      0.109800
     20 C4X         3.0750    2.5950   -7.4710 c3        1 QUL      0.109800
     21 C5'         4.5570    4.9640   -5.9520 c3        1 QUL     -0.135100
     22 C5A         0.5230    0.2480   -2.4020 ca        1 QUL     -0.115300
     23 C5X         1.6070    2.3950   -7.7830 c3        1 QUL     -0.135100
     24 C6A         2.3590   -0.0480   -0.8600 ca        1 QUL     -0.175500
     25 C8A         3.4980   -0.3270    1.0910 ca        1 QUL     -0.038200
     26 H2         -2.4630    0.3300   -0.6570 ha        1 QUL      0.164000
     27 H3         -3.3440    0.5630   -2.9740 ha        1 QUL      0.149000
     28 H4         -1.7950    0.5530   -4.9160 ha        1 QUL      0.135000
     29 H5          0.6480    0.3420   -4.5760 ha        1 QUL      0.115000
     30 HN6         3.7310   -0.2540   -3.0390 hn        1 QUL      0.389800
     31 HN7         4.3010   -0.7580   -0.7650 hn        1 QUL      0.254700
     32 H8          5.5430   -0.5760    1.8000 ha        1 QUL      0.145000
     33 H9          4.8300   -0.7510    4.1790 ha        1 QUL      0.146000
     34 H1'         2.1330    2.1260   -3.6460 h1        1 QUL      0.059700
     35 H2'         2.5600    0.7720   -5.8110 hx        1 QUL      0.109200
     36 H4'         4.9950    3.2340   -4.7230 hx        1 QUL      0.102700
     37 H5'         4.2870    5.2490   -6.9980 hc        1 QUL      0.078200
     38 H1'A        3.9250    2.0540   -3.3080 h1        1 QUL      0.059700
     39 H2'A        4.3570    0.9240   -5.5010 hx        1 QUL      0.109200
     40 H4'A        5.4160    3.0330   -6.4920 hx        1 QUL      0.102700
     41 H5'A        5.5610    5.4050   -5.7210 hc        1 QUL      0.078200
     42 H5'B        3.8120    5.4140   -5.2510 hc        1 QUL      0.078200
     43 H10         2.4350   -0.6020    4.8160 ha        1 QUL      0.149000
     44 H11         0.6650   -0.2790    3.0710 ha        1 QUL      0.160000
     45 H4X         3.4410    3.5330   -7.9830 hx        1 QUL      0.102700
     46 H5X         0.9880    3.2570   -7.4320 hc        1 QUL      0.078200
     47 H4XA        3.6800    1.7230   -7.8500 hx        1 QUL      0.102700
     48 H5XA        1.4990    2.3190   -8.8960 hc        1 QUL      0.078200
     49 H5XB        1.2050    1.4550   -7.3320 hc        1 QUL      0.078200
     50 H3'1        2.6050    3.3130   -5.5910 hn        1 QUL      0.446800
@<TRIPOS>BOND
     1    1   14 ar  
     2    1   17 ar  
     3    2    3 ar  
     4    2   17 ar  
     5    2   26 1   
     6    3    4 ar  
     7    3   27 1   
     8    4    5 ar  
     9    4   28 1   
    10    5   22 ar  
    11    5   29 1   
    12    6    7 1   
    13    6   22 ar  
    14    6   24 ar  
    15    7   11 1   
    16    7   30 1   
    17    8   24 1   
    18    8   25 1   
    19    8   31 1   
    20    9   10 ar  
    21    9   25 ar  
    22    9   32 1   
    23   10   12 ar  
    24   10   33 1   
    25   11   16 1   
    26   11   34 1   
    27   11   38 1   
    28   12   13 ar  
    29   12   43 1   
    30   13   15 ar  
    31   13   44 1   
    32   14   15 1   
    33   14   24 ar  
    34   15   25 ar  
    35   16   18 1   
    36   16   35 1   
    37   16   39 1   
    38   17   22 ar  
    39   18   19 1   
    40   18   20 1   
    41   18   50 1   
    42   19   21 1   
    43   19   36 1   
    44   19   40 1   
    45   20   23 1   
    46   20   45 1   
    47   20   47 1   
    48   21   37 1   
    49   21   41 1   
    50   21   42 1   
    51   23   46 1   
    52   23   48 1   
    53   23   49 1   
@<TRIPOS>SUBSTRUCTURE
     1 QUL         1 TEMP              0 ****  ****    0 ROOT
