@<TRIPOS>MOLECULE
QUL
   51    54     1     0     0
SMALL
bcc


@<TRIPOS>ATOM
      1 N1          0.0060    0.0470    0.1150 nb        1 QUL     -0.552000
      2 C2         -2.0690    0.1300   -1.1160 ca        1 QUL     -0.111300
      3 C3         -2.7650    0.1560   -2.3030 ca        1 QUL     -0.113000
      4 C4         -2.0780    0.1220   -3.5330 ca        1 QUL     -0.052000
      5 C5         -0.7000    0.0610   -3.5640 ca        1 QUL     -0.195000
      6 C6          1.4920   -0.0750   -2.3380 ca        1 QUL     -0.113400
      7 N6          2.2470   -0.0860   -3.5940 n4        1 QUL     -0.601400
      8 N7          3.5100   -0.1650   -0.7920 na        1 QUL     -0.166300
      9 C8          4.7130   -0.2410    1.4500 ca        1 QUL     -0.118000
     10 C9          4.5260   -0.1890    2.8400 ca        1 QUL     -0.073000
     11 C1'         2.4990    1.3140   -4.0530 c3        1 QUL      0.072800
     12 C10         3.2550   -0.0850    3.4030 ca        1 QUL     -0.119000
     13 C11         2.1070   -0.0290    2.5990 ca        1 QUL     -0.032000
     14 C1A         1.3100   -0.0520    0.1170 cp        1 QUL      0.484800
     15 C11A        2.2700   -0.0790    1.2260 cp        1 QUL     -0.195500
     16 C2'         3.2970    1.3740   -5.3700 c3        1 QUL      0.075800
     17 C2A        -0.6410    0.0620   -1.1130 ca        1 QUL      0.389600
     18 N3'         3.5030    2.7680   -5.8630 n4        1 QUL     -0.691400
     19 C4'         4.6180    3.4580   -5.1140 c3        1 QUL      0.112300
     20 C4X         3.7840    2.7680   -7.3480 c3        1 QUL      0.112300
     21 C5'         4.5160    4.9680   -5.1580 c3        1 QUL     -0.142100
     22 C5A         0.0520    0.0190   -2.3690 ca        1 QUL     -0.108300
     23 C5X         2.5460    2.5870   -8.1970 c3        1 QUL     -0.142100
     24 C6A         2.1450   -0.1490   -1.1180 ca        1 QUL     -0.072500
     25 C8A         3.5820   -0.1820    0.6470 ca        1 QUL     -0.063200
     26 H2         -2.6060    0.1560   -0.1490 ha        1 QUL      0.189000
     27 H3         -3.8680    0.2010   -2.3000 ha        1 QUL      0.179000
     28 H4         -2.6560    0.1410   -4.4730 ha        1 QUL      0.163000
     29 H5         -0.2100    0.0320   -4.5480 ha        1 QUL      0.097000
     30 HN6         1.6970   -0.5960   -4.3010 hn        1 QUL      0.459300
     31 HN7         4.1090   -0.8070   -1.2660 hn        1 QUL      0.267700
     32 H8          5.7240   -0.3260    1.0280 ha        1 QUL      0.155000
     33 H9          5.4110   -0.2340    3.4960 ha        1 QUL      0.167000
     34 H1'         3.0500    1.8450   -3.2210 hx        1 QUL      0.133700
     35 H2'         4.3140    0.9010   -5.2390 hx        1 QUL      0.117700
     36 H4'         4.5780    3.1120   -4.0420 hx        1 QUL      0.110450
     37 H5'         3.5580    5.3370   -4.7160 hc        1 QUL      0.089367
     38 H1'A        1.4870    1.8080   -4.1730 hx        1 QUL      0.133700
     39 H2'A        2.7430    0.8030   -6.1750 hx        1 QUL      0.117700
     40 H4'A        5.5940    3.1170   -5.5660 hx        1 QUL      0.110450
     41 H5'A        5.3610    5.3850   -4.5470 hc        1 QUL      0.089367
     42 H5'B        4.6170    5.3710   -6.1950 hc        1 QUL      0.089367
     43 H10         3.1460   -0.0480    4.5000 ha        1 QUL      0.171000
     44 H11         1.1050    0.0510    3.0490 ha        1 QUL      0.175000
     45 H4X         4.5360    1.9550   -7.5570 hx        1 QUL      0.110450
     46 H5X         2.0760    1.5840   -8.0590 hc        1 QUL      0.089367
     47 H4XA        4.2600    3.7650   -7.5900 hx        1 QUL      0.110450
     48 H5XA        2.8560    2.6730   -9.2740 hc        1 QUL      0.089367
     49 H5XB        1.7820    3.3800   -8.0010 hc        1 QUL      0.089367
     50 H62         3.1390   -0.5770   -3.4630 hn        1 QUL      0.459300
     51 H3'1        2.6360    3.3050   -5.7110 hn        1 QUL      0.452800
@<TRIPOS>BOND
     1    1   14 ar  
     2    1   17 ar  
     3    2    3 ar  
     4    2   17 ar  
     5    2   26 1   
     6    3    4 ar  
     7    3   27 1   
     8    4    5 ar  
     9    4   28 1   
    10    5   22 ar  
    11    5   29 1   
    12    6    7 1   
    13    6   22 ar  
    14    6   24 ar  
    15    7   11 1   
    16    7   30 1   
    17    7   50 1   
    18    8   24 1   
    19    8   25 1   
    20    8   31 1   
    21    9   10 ar  
    22    9   25 ar  
    23    9   32 1   
    24   10   12 ar  
    25   10   33 1   
    26   11   16 1   
    27   11   34 1   
    28   11   38 1   
    29   12   13 ar  
    30   12   43 1   
    31   13   15 ar  
    32   13   44 1   
    33   14   15 1   
    34   14   24 ar  
    35   15   25 ar  
    36   16   18 1   
    37   16   35 1   
    38   16   39 1   
    39   17   22 ar  
    40   18   19 1   
    41   18   20 1   
    42   18   51 1   
    43   19   21 1   
    44   19   36 1   
    45   19   40 1   
    46   20   23 1   
    47   20   45 1   
    48   20   47 1   
    49   21   37 1   
    50   21   41 1   
    51   21   42 1   
    52   23   46 1   
    53   23   48 1   
    54   23   49 1   
@<TRIPOS>SUBSTRUCTURE
     1 QUL         1 TEMP              0 ****  ****    0 ROOT
