@<TRIPOS>MOLECULE
QUM
   58    60     1     0     0
SMALL
bcc


@<TRIPOS>ATOM
      1 C2         -4.9430    2.1130   -0.4790 ca        1 QUM      0.086100
      2 C3         -5.9120    1.2670   -1.0290 ca        1 QUM     -0.156000
      3 C4         -6.4280    0.2300   -0.2610 ca        1 QUM     -0.153000
      4 C11        -5.9710    0.0170    1.0560 ca        1 QUM      0.133600
      5 C12        -4.9390    0.8400    1.5860 ca        1 QUM     -0.178900
      6 C1         -4.4580    1.9000    0.8210 ca        1 QUM     -0.108000
      7 N10        -6.5160   -1.0150    1.8400 na        1 QUM     -0.599000
      8 C14        -6.4780   -0.8540    3.2320 ca        1 QUM      0.167600
      9 C13        -5.4630   -0.0580    3.8260 ca        1 QUM     -0.172900
     10 C9         -4.4270    0.5530    2.9490 cc        1 QUM      0.552500
     11 C5         -7.4210   -1.5090    4.0550 ca        1 QUM     -0.190000
     12 C6         -7.3510   -1.3500    5.4370 ca        1 QUM      0.060400
     13 C7         -6.3710   -0.5440    6.0240 ca        1 QUM     -0.167000
     14 C8         -5.4340    0.0920    5.2150 ca        1 QUM     -0.047000
     15 N18        -3.2480    0.7030    3.4460 n2        1 QUM     -0.610900
     16 C19        -2.0750    1.2200    2.7830 c3        1 QUM      0.136500
     17 C20        -0.9010    1.2330    3.7720 c3        1 QUM     -0.080100
     18 C21        -1.6500    0.4470    1.5200 c3        1 QUM     -0.092400
     19 C22        -0.7560    1.2850    0.6340 c3        1 QUM     -0.076400
     20 C23        -0.4520    0.5900   -0.6940 c3        1 QUM      0.177800
     21 N24         0.3510   -0.6180   -0.5650 n3        1 QUM     -0.755600
     22 C27         1.7650   -0.3520   -0.3470 c3        1 QUM      0.166800
     23 C25         0.1080   -1.5820   -1.6290 c3        1 QUM      0.166800
     24 C28         2.4240   -1.4300    0.5130 c3        1 QUM      0.033500
     25 C26        -1.1430   -2.4200   -1.3660 c3        1 QUM      0.033500
     26 CL1        -8.4880   -2.1430    6.4220 cl        1 QUM     -0.092400
     27 O15        -4.3720    3.1870   -1.1410 os        1 QUM     -0.327900
     28 C17        -4.9300    3.5050   -2.4100 c3        1 QUM      0.113700
     29 CL2        -1.3900   -3.5570   -2.6810 cl        1 QUM     -0.197400
     30 CL3         4.1170   -1.0410    0.7690 cl        1 QUM     -0.197400
     31 H3         -6.2790    1.4150   -2.0540 ha        1 QUM      0.142000
     32 H4         -7.2030   -0.4210   -0.6930 ha        1 QUM      0.138000
     33 H1         -3.6970    2.5900    1.2150 ha        1 QUM      0.156000
     34 H10        -7.3270   -1.4640    1.4710 hn        1 QUM      0.426800
     35 H5         -8.2040   -2.1420    3.6110 ha        1 QUM      0.148000
     36 H7         -6.3340   -0.4180    7.1160 ha        1 QUM      0.151000
     37 H8         -4.6530    0.7150    5.6810 ha        1 QUM      0.159000
     38 H19        -2.2610    2.3010    2.4930 h1        1 QUM      0.041700
     39 H201       -0.6320    0.1970    4.0870 hc        1 QUM      0.039700
     40 H202       -1.1550    1.8260    4.6830 hc        1 QUM      0.039700
     41 H203       -0.0170    1.7000    3.2770 hc        1 QUM      0.039700
     42 H211       -2.5580    0.1410    0.9350 hc        1 QUM      0.057700
     43 H212       -1.1170   -0.4900    1.8260 hc        1 QUM      0.057700
     44 H221        0.1950    1.5350    1.1720 hc        1 QUM      0.045200
     45 H222       -1.2680    2.2540    0.3890 hc        1 QUM      0.045200
     46 H231       -1.4340    0.3120   -1.1730 h1        1 QUM      0.035200
     47 H232        0.0510    1.3410   -1.3730 h1        1 QUM      0.035200
     48 H271        2.3290   -0.2710   -1.3230 h1        1 QUM      0.047450
     49 H272        1.8730    0.6370    0.1830 h1        1 QUM      0.047450
     50 H251        0.0030   -1.0760   -2.6330 h1        1 QUM      0.047450
     51 H252        0.9910   -2.2810   -1.6990 h1        1 QUM      0.047450
     52 H281        2.3960   -2.4300    0.0200 h1        1 QUM      0.072950
     53 H282        1.9490   -1.4920    1.5210 h1        1 QUM      0.072950
     54 H261       -2.0620   -1.7900   -1.3100 h1        1 QUM      0.072950
     55 H262       -1.0410   -3.0210   -0.4310 h1        1 QUM      0.072950
     56 H171       -4.7470    2.6770   -3.1370 h1        1 QUM      0.045033
     57 H172       -4.3730    4.4270   -2.7150 h1        1 QUM      0.045033
     58 H173       -6.0240    3.7150   -2.3230 h1        1 QUM      0.045033
@<TRIPOS>BOND
     1    1    2 ar  
     2    1    6 ar  
     3    1   27 1   
     4    2    3 ar  
     5    2   31 1   
     6    3    4 ar  
     7    3   32 1   
     8    4    5 ar  
     9    4    7 1   
    10    5    6 ar  
    11    5   10 1   
    12    6   33 1   
    13    7    8 1   
    14    7   34 1   
    15    8    9 ar  
    16    8   11 ar  
    17    9   10 1   
    18    9   14 ar  
    19   10   15 2   
    20   11   12 ar  
    21   11   35 1   
    22   12   13 ar  
    23   12   26 1   
    24   13   14 ar  
    25   13   36 1   
    26   14   37 1   
    27   15   16 1   
    28   16   17 1   
    29   16   18 1   
    30   16   38 1   
    31   17   39 1   
    32   17   40 1   
    33   17   41 1   
    34   18   19 1   
    35   18   42 1   
    36   18   43 1   
    37   19   20 1   
    38   19   44 1   
    39   19   45 1   
    40   20   21 1   
    41   20   46 1   
    42   20   47 1   
    43   21   22 1   
    44   21   23 1   
    45   22   24 1   
    46   22   48 1   
    47   22   49 1   
    48   23   25 1   
    49   23   50 1   
    50   23   51 1   
    51   24   30 1   
    52   24   52 1   
    53   24   53 1   
    54   25   29 1   
    55   25   54 1   
    56   25   55 1   
    57   27   28 1   
    58   28   56 1   
    59   28   57 1   
    60   28   58 1   
@<TRIPOS>SUBSTRUCTURE
     1 QUM         1 TEMP              0 ****  ****    0 ROOT
