@<TRIPOS>MOLECULE
QUM
   59    61     1     0     0
SMALL
bcc


@<TRIPOS>ATOM
      1 C2          0.4140    0.6910   -0.0150 ca        1 QUM      0.010100
      2 C3          1.6570    1.3190    0.1560 ca        1 QUM     -0.102000
      3 C4          2.1830    1.4460    1.4300 ca        1 QUM     -0.180000
      4 C11         1.4630    0.9710    2.5580 ca        1 QUM      0.190600
      5 C12         0.1830    0.3750    2.3780 ca        1 QUM     -0.225900
      6 C1         -0.2910    0.1830    1.0770 ca        1 QUM     -0.099000
      7 N10         1.9960    1.1200    3.8340 na        1 QUM     -0.606000
      8 C14         1.5150    0.3020    4.8670 ca        1 QUM      0.165600
      9 C13         0.2370   -0.3010    4.7610 ca        1 QUM     -0.184900
     10 C9         -0.6060   -0.0150    3.5710 cc        1 QUM      0.575500
     11 C5          2.2970    0.0960    6.0260 ca        1 QUM     -0.181000
     12 C6          1.8070   -0.7170    7.0460 ca        1 QUM      0.067400
     13 C7          0.5580   -1.3400    6.9340 ca        1 QUM     -0.155000
     14 C8         -0.2150   -1.1260    5.7990 ca        1 QUM     -0.042000
     15 N18        -1.8860   -0.0800    3.7330 n2        1 QUM     -0.627900
     16 C19        -2.9210    0.1100    2.7540 c3        1 QUM      0.154500
     17 C20        -4.2960   -0.0820    3.4130 c3        1 QUM     -0.086100
     18 C21        -2.9290    1.4780    2.0370 c3        1 QUM     -0.122400
     19 C22        -3.7250    1.4130    0.7490 c3        1 QUM     -0.109400
     20 C23        -3.1150    2.2350   -0.3770 c3        1 QUM      0.096800
     21 N24        -2.9810    3.6990   -0.0620 n4        1 QUM     -0.685400
     22 C27        -4.3120    4.3860   -0.1290 c3        1 QUM      0.095300
     23 C25        -2.0020    4.3560   -0.9890 c3        1 QUM      0.095300
     24 C28        -4.3610    5.6820    0.6740 c3        1 QUM     -0.025000
     25 C26        -0.5480    4.1120   -0.6000 c3        1 QUM     -0.025000
     26 CL1         2.7470   -0.9590    8.4370 cl        1 QUM     -0.060400
     27 O15        -0.1980    0.6580   -1.2640 os        1 QUM     -0.386900
     28 C17         0.4130   -0.2550   -2.1810 c3        1 QUM      0.117700
     29 CL2         0.4780    5.0290   -1.6650 cl        1 QUM     -0.090900
     30 CL3        -5.9600    6.3540    0.5630 cl        1 QUM     -0.090900
     31 H3          2.2120    1.6890   -0.7200 ha        1 QUM      0.155000
     32 H4          3.1710    1.9130    1.5630 ha        1 QUM      0.153000
     33 H1         -1.2280   -0.3630    0.8910 ha        1 QUM      0.147000
     34 H10         2.9390    1.4360    3.9060 hn        1 QUM      0.446800
     35 H5          3.2860    0.5700    6.1260 ha        1 QUM      0.156000
     36 H7          0.1880   -1.9910    7.7400 ha        1 QUM      0.162000
     37 H8         -1.2010   -1.6140    5.7230 ha        1 QUM      0.163000
     38 H19        -2.8270   -0.7040    1.9680 h1        1 QUM      0.045700
     39 H201       -4.4670    0.6700    4.2190 hc        1 QUM      0.047700
     40 H202       -5.0860    0.0330    2.6330 hc        1 QUM      0.047700
     41 H203       -4.3770   -1.1020    3.8600 hc        1 QUM      0.047700
     42 H211       -3.3770    2.2400    2.7290 hc        1 QUM      0.052200
     43 H212       -1.8750    1.8000    1.8270 hc        1 QUM      0.052200
     44 H221       -3.7580    0.3550    0.3620 hc        1 QUM      0.083200
     45 H222       -4.7890    1.7130    0.9410 hc        1 QUM      0.083200
     46 H231       -3.7460    2.1430   -1.3060 hx        1 QUM      0.116700
     47 H232       -2.0780    1.8360   -0.6030 hx        1 QUM      0.116700
     48 H271       -4.5470    4.5880   -1.2140 hx        1 QUM      0.114200
     49 H272       -5.0910    3.6730    0.2730 hx        1 QUM      0.114200
     50 H251       -2.1930    3.9650   -2.0310 hx        1 QUM      0.114200
     51 H252       -2.2100    5.4660   -0.9840 hx        1 QUM      0.114200
     52 H281       -3.6510    6.4490    0.2770 h1        1 QUM      0.095450
     53 H282       -4.1480    5.5030    1.7570 h1        1 QUM      0.095450
     54 H261       -0.3370    4.4560    0.4430 h1        1 QUM      0.095450
     55 H262       -0.2590    3.0320   -0.7050 h1        1 QUM      0.095450
     56 H171        1.4860    0.0130   -2.3360 h1        1 QUM      0.050700
     57 H172       -0.1730   -0.1190   -3.1240 h1        1 QUM      0.050700
     58 H173        0.3220   -1.3000   -1.8000 h1        1 QUM      0.050700
     59 H241       -2.6240    3.7780    0.9020 hn        1 QUM      0.448800
@<TRIPOS>BOND
     1    1    2 ar  
     2    1    6 ar  
     3    1   27 1   
     4    2    3 ar  
     5    2   31 1   
     6    3    4 ar  
     7    3   32 1   
     8    4    5 ar  
     9    4    7 1   
    10    5    6 ar  
    11    5   10 1   
    12    6   33 1   
    13    7    8 1   
    14    7   34 1   
    15    8    9 ar  
    16    8   11 ar  
    17    9   10 1   
    18    9   14 ar  
    19   10   15 2   
    20   11   12 ar  
    21   11   35 1   
    22   12   13 ar  
    23   12   26 1   
    24   13   14 ar  
    25   13   36 1   
    26   14   37 1   
    27   15   16 1   
    28   16   17 1   
    29   16   18 1   
    30   16   38 1   
    31   17   39 1   
    32   17   40 1   
    33   17   41 1   
    34   18   19 1   
    35   18   42 1   
    36   18   43 1   
    37   19   20 1   
    38   19   44 1   
    39   19   45 1   
    40   20   21 1   
    41   20   46 1   
    42   20   47 1   
    43   21   22 1   
    44   21   23 1   
    45   21   59 1   
    46   22   24 1   
    47   22   48 1   
    48   22   49 1   
    49   23   25 1   
    50   23   50 1   
    51   23   51 1   
    52   24   30 1   
    53   24   52 1   
    54   24   53 1   
    55   25   29 1   
    56   25   54 1   
    57   25   55 1   
    58   27   28 1   
    59   28   56 1   
    60   28   57 1   
    61   28   58 1   
@<TRIPOS>SUBSTRUCTURE
     1 QUM         1 TEMP              0 ****  ****    0 ROOT
