@<TRIPOS>MOLECULE
QUM
   59    61     1     0     0
SMALL
bcc


@<TRIPOS>ATOM
      1 C2          0.4080    0.6850   -0.0170 ca        1 QUM      0.010100
      2 C3          1.6520    1.3110    0.1490 ca        1 QUM     -0.102000
      3 C4          2.1820    1.4420    1.4200 ca        1 QUM     -0.180000
      4 C11         1.4650    0.9710    2.5520 ca        1 QUM      0.190600
      5 C12         0.1830    0.3760    2.3780 ca        1 QUM     -0.225900
      6 C1         -0.2950    0.1820    1.0790 ca        1 QUM     -0.099000
      7 N10         2.0010    1.1220    3.8260 na        1 QUM     -0.606000
      8 C14         1.5230    0.3080    4.8630 ca        1 QUM      0.165600
      9 C13         0.2440   -0.2930    4.7620 ca        1 QUM     -0.184900
     10 C9         -0.6030   -0.0090    3.5740 cc        1 QUM      0.575500
     11 C5          2.3070    0.1040    6.0200 ca        1 QUM     -0.181000
     12 C6          1.8200   -0.7050    7.0440 ca        1 QUM      0.067400
     13 C7          0.5700   -1.3260    6.9360 ca        1 QUM     -0.155000
     14 C8         -0.2070   -1.1150    5.8030 ca        1 QUM     -0.042000
     15 N18        -1.8820   -0.0720    3.7400 n2        1 QUM     -0.627900
     16 C19        -2.9200    0.1180    2.7630 c3        1 QUM      0.154500
     17 C20        -4.2930   -0.0700    3.4270 c3        1 QUM     -0.086100
     18 C21        -2.9280    1.4840    2.0430 c3        1 QUM     -0.122400
     19 C22        -3.7280    1.4160    0.7580 c3        1 QUM     -0.109400
     20 C23        -3.1200    2.2340   -0.3730 c3        1 QUM      0.096800
     21 N24        -2.9820    3.6990   -0.0620 nx        1 QUM     -0.685400
     22 C27        -4.3120    4.3880   -0.1270 c3        1 QUM      0.095300
     23 C25        -2.0050    4.3510   -0.9940 c3        1 QUM      0.095300
     24 C28        -4.3570    5.6870    0.6720 c3        1 QUM     -0.025000
     25 C26        -0.5500    4.1070   -0.6090 c3        1 QUM     -0.025000
     26 Cl1         2.7630   -0.9460    8.4320 cl        1 QUM     -0.060400
     27 O15        -0.2080    0.6500   -1.2640 os        1 QUM     -0.386900
     28 C17         0.3990   -0.2660   -2.1800 c3        1 QUM      0.117700
     29 Cl2         0.4740    5.0180   -1.6790 cl        1 QUM     -0.090900
     30 Cl3        -5.9550    6.3610    0.5650 cl        1 QUM     -0.090900
     31 H3          2.2050    1.6790   -0.7300 ha        1 QUM      0.155000
     32 H4          3.1720    1.9080    1.5490 ha        1 QUM      0.153000
     33 H1         -1.2330   -0.3640    0.8960 ha        1 QUM      0.147000
     34 H10         2.9450    1.4380    3.8950 hn        1 QUM      0.446800
     35 H5          3.2970    0.5770    6.1160 ha        1 QUM      0.156000
     36 H7          0.2010   -1.9750    7.7460 ha        1 QUM      0.162000
     37 H8         -1.1940   -1.6010    5.7320 ha        1 QUM      0.163000
     38 H19        -2.8300   -0.6990    1.9790 h1        1 QUM      0.045700
     39 H201       -5.0860    0.0440    2.6490 hc        1 QUM      0.047700
     40 H202       -4.4600    0.6850    4.2310 hc        1 QUM      0.047700
     41 H203       -4.3750   -1.0880    3.8770 hc        1 QUM      0.047700
     42 H211       -3.3720    2.2480    2.7340 hc        1 QUM      0.052200
     43 H212       -1.8730    1.8030    1.8280 hc        1 QUM      0.052200
     44 H221       -4.7910    1.7190    0.9510 hc        1 QUM      0.083200
     45 H222       -3.7640    0.3570    0.3740 hc        1 QUM      0.083200
     46 H231       -2.0840    1.8330   -0.6000 hx        1 QUM      0.116700
     47 H232       -3.7530    2.1410   -1.3000 hx        1 QUM      0.116700
     48 H271       -5.0920    3.6770    0.2790 hx        1 QUM      0.114200
     49 H272       -4.5500    4.5880   -1.2120 hx        1 QUM      0.114200
     50 H251       -2.2110    5.4620   -0.9910 hx        1 QUM      0.114200
     51 H252       -2.2000    3.9580   -2.0340 hx        1 QUM      0.114200
     52 H281       -3.6470    6.4510    0.2700 h1        1 QUM      0.095450
     53 H282       -4.1410    5.5100    1.7560 h1        1 QUM      0.095450
     54 H261       -0.2630    3.0260   -0.7110 h1        1 QUM      0.095450
     55 H262       -0.3350    4.4540    0.4320 h1        1 QUM      0.095450
     56 H171        0.3070   -1.3110   -1.7960 h1        1 QUM      0.050700
     57 H172       -0.1900   -0.1330   -3.1220 h1        1 QUM      0.050700
     58 H173        1.4720   -0.0020   -2.3390 h1        1 QUM      0.050700
     59 H241       -2.6220    3.7800    0.9000 hn        1 QUM      0.448800
@<TRIPOS>BOND
     1    1    2 ar  
     2    1    6 ar  
     3    1   27 1   
     4    2    3 ar  
     5    2   31 1   
     6    3    4 ar  
     7    3   32 1   
     8    4    5 ar  
     9    4    7 1   
    10    5    6 ar  
    11    5   10 1   
    12    6   33 1   
    13    7    8 1   
    14    7   34 1   
    15    8    9 ar  
    16    8   11 ar  
    17    9   10 1   
    18    9   14 ar  
    19   10   15 2   
    20   11   12 ar  
    21   11   35 1   
    22   12   13 ar  
    23   12   26 1   
    24   13   14 ar  
    25   13   36 1   
    26   14   37 1   
    27   15   16 1   
    28   16   17 1   
    29   16   18 1   
    30   16   38 1   
    31   17   39 1   
    32   17   40 1   
    33   17   41 1   
    34   18   19 1   
    35   18   42 1   
    36   18   43 1   
    37   19   20 1   
    38   19   44 1   
    39   19   45 1   
    40   20   21 1   
    41   20   46 1   
    42   20   47 1   
    43   21   22 1   
    44   21   23 1   
    45   21   59 1   
    46   22   24 1   
    47   22   48 1   
    48   22   49 1   
    49   23   25 1   
    50   23   50 1   
    51   23   51 1   
    52   24   30 1   
    53   24   52 1   
    54   24   53 1   
    55   25   29 1   
    56   25   54 1   
    57   25   55 1   
    58   27   28 1   
    59   28   56 1   
    60   28   57 1   
    61   28   58 1   
@<TRIPOS>SUBSTRUCTURE
     1 QUM         1 TEMP              0 ****  ****    0 ROOT
