@<TRIPOS>MOLECULE
QUN
   60    62     1     0     0
SMALL
bcc


@<TRIPOS>ATOM
      1 C1          0.1820   -0.2990    0.1210 ca        1 QUN      0.225100
      2 C2          1.6100   -0.2170    0.0920 ca        1 QUN     -0.187000
      3 C3          2.3040   -0.0520    1.2500 ca        1 QUN     -0.076300
      4 C4          1.6230    0.0400    2.5280 ca        1 QUN      0.377600
      5 C5          0.1790   -0.0500    2.5420 ca        1 QUN     -0.043300
      6 C6         -0.5140   -0.2140    1.3160 ca        1 QUN     -0.282000
      7 N1          2.3590    0.1970    3.6430 nb        1 QUN     -0.554000
      8 C7          1.7400    0.2850    4.8450 ca        1 QUN      0.398600
      9 C8          0.3050    0.2160    4.9920 ca        1 QUN     -0.071300
     10 C9         -0.4500    0.0250    3.8070 ca        1 QUN     -0.077400
     11 C10         2.5560    0.4490    6.0250 ca        1 QUN     -0.124300
     12 C11         1.9730    0.5410    7.2620 ca        1 QUN      0.006400
     13 C12         0.5530    0.4880    7.3990 ca        1 QUN     -0.025000
     14 C13        -0.2470    0.3360    6.2990 ca        1 QUN     -0.198000
     15 CL          2.9130    0.7260    8.6500 cl        1 QUN     -0.004400
     16 O          -0.5910   -0.4530   -0.9990 os        1 QUN     -0.339900
     17 C14         0.0960   -0.5720   -2.2520 c3        1 QUN      0.106700
     18 N2         -1.9040   -0.1410    3.8840 n4        1 QUN     -0.624400
     19 C15        -2.6650    1.1200    3.5270 c3        1 QUN      0.130500
     20 C16        -2.6390    2.1200    4.6760 c3        1 QUN     -0.133100
     21 C17        -4.1180    0.8140    3.1460 c3        1 QUN     -0.117400
     22 C18        -4.2670    0.2850    1.7320 c3        1 QUN     -0.113400
     23 C19        -5.7460    0.3140    1.3460 c3        1 QUN      0.103800
     24 N3         -6.0210   -0.1090   -0.0640 n4        1 QUN     -0.693400
     25 C20        -6.0220   -1.6080   -0.1930 c3        1 QUN      0.111800
     26 C21        -7.3300    0.4660   -0.5450 c3        1 QUN      0.111800
     27 C22        -5.7600   -2.0910   -1.6030 c3        1 QUN     -0.137600
     28 C23        -7.2370    1.9200   -0.9520 c3        1 QUN     -0.137600
     29 H21         2.1440   -0.2880   -0.8700 ha        1 QUN      0.177000
     30 H31         3.4090    0.0150    1.2440 ha        1 QUN      0.191000
     31 H61        -1.6100   -0.2720    1.2760 ha        1 QUN      0.112000
     32 H101        3.6550    0.4960    5.9040 ha        1 QUN      0.197000
     33 H121        0.1120    0.5760    8.4090 ha        1 QUN      0.178000
     34 H131       -1.3360    0.3250    6.4560 ha        1 QUN      0.122000
     35 H141       -0.7410   -0.7030   -2.9850 h1        1 QUN      0.068700
     36 H142        0.7620   -1.4680   -2.2470 h1        1 QUN      0.068700
     37 H143        0.6700    0.3610   -2.4690 h1        1 QUN      0.068700
     38 HN21       -2.1730   -0.8880    3.2320 hn        1 QUN      0.451300
     39 H151       -2.1220    1.5670    2.6370 hx        1 QUN      0.122700
     40 H161       -3.0510    3.0950    4.3130 hc        1 QUN      0.085033
     41 H162       -1.5930    2.3000    5.0320 hc        1 QUN      0.085033
     42 H163       -3.2610    1.7690    5.5360 hc        1 QUN      0.085033
     43 H171       -4.6840    1.7830    3.2400 hc        1 QUN      0.089700
     44 H172       -4.5830    0.1000    3.8770 hc        1 QUN      0.089700
     45 H181       -3.8670   -0.7610    1.6630 hc        1 QUN      0.069200
     46 H182       -3.6700    0.9230    1.0240 hc        1 QUN      0.069200
     47 H191       -6.3370   -0.3580    2.0310 hx        1 QUN      0.110200
     48 H192       -6.1330    1.3690    1.4670 hx        1 QUN      0.110200
     49 H201       -7.0220   -1.9830    0.1700 hx        1 QUN      0.105450
     50 H202       -5.2210   -2.0080    0.4930 hx        1 QUN      0.105450
     51 H211       -7.6570   -0.1500   -1.4350 hx        1 QUN      0.105450
     52 H212       -8.0880    0.3310    0.2780 hx        1 QUN      0.105450
     53 H221       -6.5600   -1.7720   -2.3150 hc        1 QUN      0.083367
     54 H222       -5.7440   -3.2120   -1.5860 hc        1 QUN      0.083367
     55 H223       -4.7720   -1.7360   -1.9880 hc        1 QUN      0.083367
     56 H231       -6.9830    2.5860   -0.0920 hc        1 QUN      0.083367
     57 H232       -8.2440    2.2310   -1.3400 hc        1 QUN      0.083367
     58 H233       -6.4920    2.0790   -1.7690 hc        1 QUN      0.083367
     59 H22        -2.1620   -0.4320    4.8350 hn        1 QUN      0.451300
     60 H311       -5.2750    0.2640   -0.6670 hn        1 QUN      0.446800
@<TRIPOS>BOND
     1    1    2 ar  
     2    1    6 ar  
     3    1   16 1   
     4    2    3 ar  
     5    2   29 1   
     6    3    4 ar  
     7    3   30 1   
     8    4    5 ar  
     9    4    7 ar  
    10    5    6 ar  
    11    5   10 ar  
    12    6   31 1   
    13    7    8 ar  
    14    8    9 ar  
    15    8   11 ar  
    16    9   10 ar  
    17    9   14 ar  
    18   10   18 1   
    19   11   12 ar  
    20   11   32 1   
    21   12   13 ar  
    22   12   15 1   
    23   13   14 ar  
    24   13   33 1   
    25   14   34 1   
    26   16   17 1   
    27   17   35 1   
    28   17   36 1   
    29   17   37 1   
    30   18   19 1   
    31   18   38 1   
    32   18   59 1   
    33   19   20 1   
    34   19   21 1   
    35   19   39 1   
    36   20   40 1   
    37   20   41 1   
    38   20   42 1   
    39   21   22 1   
    40   21   43 1   
    41   21   44 1   
    42   22   23 1   
    43   22   45 1   
    44   22   46 1   
    45   23   24 1   
    46   23   47 1   
    47   23   48 1   
    48   24   25 1   
    49   24   26 1   
    50   24   60 1   
    51   25   27 1   
    52   25   49 1   
    53   25   50 1   
    54   26   28 1   
    55   26   51 1   
    56   26   52 1   
    57   27   53 1   
    58   27   54 1   
    59   27   55 1   
    60   28   56 1   
    61   28   57 1   
    62   28   58 1   
@<TRIPOS>SUBSTRUCTURE
     1 QUN         1 TEMP              0 ****  ****    0 ROOT
