@<TRIPOS>MOLECULE
QUN
   59    61     1     0     0
SMALL
bcc


@<TRIPOS>ATOM
      1 C1          0.0600    0.0150    0.0390 ca        1 QUN      0.119100
      2 C2          1.4820   -0.1240    0.0230 ca        1 QUN     -0.167000
      3 C3          2.1660   -0.1970    1.1980 ca        1 QUN     -0.127300
      4 C4          1.4820   -0.1310    2.4730 ca        1 QUN      0.404600
      5 C5          0.0530    0.0370    2.4740 ca        1 QUN     -0.115300
      6 C6         -0.6320    0.0940    1.2260 ca        1 QUN     -0.168000
      7 N1          2.2160   -0.2410    3.6030 nb        1 QUN     -0.643000
      8 C7          1.5830   -0.1660    4.7950 ca        1 QUN      0.429600
      9 C8          0.1630    0.0460    4.9150 ca        1 QUN     -0.169300
     10 C9         -0.6120    0.1250    3.7290 ca        1 QUN      0.142600
     11 C10         2.3730   -0.2970    6.0000 ca        1 QUN     -0.160300
     12 C11         1.7800   -0.1950    7.2260 ca        1 QUN      0.022400
     13 C12         0.3780    0.0560    7.3460 ca        1 QUN     -0.104000
     14 C13        -0.3930    0.1720    6.2280 ca        1 QUN     -0.127000
     15 Cl          2.6920   -0.3530    8.6460 cl        1 QUN     -0.063400
     16 O          -0.7150    0.0660   -1.1090 os        1 QUN     -0.353900
     17 C14        -0.0070    0.0940   -2.3450 c3        1 QUN      0.113700
     18 N2         -2.0310    0.2030    3.7670 nu        1 QUN     -0.721600
     19 C15        -2.6080    1.5120    3.4650 c3        1 QUN      0.180500
     20 C16        -2.5490    2.5120    4.6210 c3        1 QUN     -0.134100
     21 C17        -4.0820    1.3750    3.0340 c3        1 QUN     -0.074400
     22 C18        -4.2080    0.6140    1.7320 c3        1 QUN     -0.108400
     23 C19        -5.6770    0.4980    1.3420 c3        1 QUN      0.104800
     24 N3         -5.8810   -0.2470    0.0540 nx        1 QUN     -0.691400
     25 C20        -5.7970   -1.7310    0.2740 c3        1 QUN      0.109800
     26 C21        -7.1870    0.1280   -0.5840 c3        1 QUN      0.109800
     27 C22        -5.4440   -2.5070   -0.9780 c3        1 QUN     -0.134100
     28 C23        -7.1460    1.4550   -1.3120 c3        1 QUN     -0.134100
     29 H21         2.0180   -0.1750   -0.9360 ha        1 QUN      0.150000
     30 H31         3.2640   -0.3110    1.2020 ha        1 QUN      0.166000
     31 H61        -1.7260    0.1840    1.2030 ha        1 QUN      0.132000
     32 H101        3.4570   -0.4790    5.8990 ha        1 QUN      0.175000
     33 H121       -0.0600    0.1560    8.3520 ha        1 QUN      0.156000
     34 H131       -1.4660    0.3920    6.3490 ha        1 QUN      0.127000
     35 H141        0.6810    0.9730   -2.3890 h1        1 QUN      0.049700
     36 H142        0.5570   -0.8590   -2.4950 h1        1 QUN      0.049700
     37 H143       -0.8200    0.1930   -3.1080 h1        1 QUN      0.049700
     38 HN21       -2.3880   -0.1450    4.6380 hn        1 QUN      0.381800
     39 H151       -2.0270    1.9440    2.5950 h1        1 QUN      0.077700
     40 H161       -3.1920    2.1800    5.4710 hc        1 QUN      0.052700
     41 H162       -1.4990    2.6190    4.9900 hc        1 QUN      0.052700
     42 H163       -2.9040    3.5110    4.2730 hc        1 QUN      0.052700
     43 H171       -4.6710    0.8630    3.8390 hc        1 QUN      0.055700
     44 H172       -4.5000    2.4090    2.9130 hc        1 QUN      0.055700
     45 H181       -3.7510   -0.4050    1.8480 hc        1 QUN      0.077200
     46 H182       -3.6380    1.1570    0.9290 hc        1 QUN      0.077200
     47 H191       -6.1130    1.5310    1.2150 hx        1 QUN      0.099200
     48 H192       -6.2560   -0.0360    2.1470 hx        1 QUN      0.099200
     49 H201       -6.7900   -2.0730    0.6830 hx        1 QUN      0.102950
     50 H202       -5.0060   -1.9150    1.0590 hx        1 QUN      0.102950
     51 H211       -7.9710    0.1490    0.2260 hx        1 QUN      0.102950
     52 H212       -7.4550   -0.6890   -1.3160 hx        1 QUN      0.102950
     53 H221       -6.2230   -2.4050   -1.7710 hc        1 QUN      0.077367
     54 H222       -5.3690   -3.5900   -0.7010 hc        1 QUN      0.077367
     55 H223       -4.4570   -2.1890   -1.3960 hc        1 QUN      0.077367
     56 H231       -6.9430    2.3080   -0.6210 hc        1 QUN      0.077367
     57 H232       -6.3770    1.4580   -2.1240 hc        1 QUN      0.077367
     58 H233       -8.1490    1.6210   -1.7830 hc        1 QUN      0.077367
     59 H311       -5.1220    0.0210   -0.5900 hn        1 QUN      0.448800
@<TRIPOS>BOND
     1    1    2 ar  
     2    1    6 ar  
     3    1   16 1   
     4    2    3 ar  
     5    2   29 1   
     6    3    4 ar  
     7    3   30 1   
     8    4    5 ar  
     9    4    7 ar  
    10    5    6 ar  
    11    5   10 ar  
    12    6   31 1   
    13    7    8 ar  
    14    8    9 ar  
    15    8   11 ar  
    16    9   10 ar  
    17    9   14 ar  
    18   10   18 1   
    19   11   12 ar  
    20   11   32 1   
    21   12   13 ar  
    22   12   15 1   
    23   13   14 ar  
    24   13   33 1   
    25   14   34 1   
    26   16   17 1   
    27   17   35 1   
    28   17   36 1   
    29   17   37 1   
    30   18   19 1   
    31   18   38 1   
    32   19   20 1   
    33   19   21 1   
    34   19   39 1   
    35   20   40 1   
    36   20   41 1   
    37   20   42 1   
    38   21   22 1   
    39   21   43 1   
    40   21   44 1   
    41   22   23 1   
    42   22   45 1   
    43   22   46 1   
    44   23   24 1   
    45   23   47 1   
    46   23   48 1   
    47   24   25 1   
    48   24   26 1   
    49   24   59 1   
    50   25   27 1   
    51   25   49 1   
    52   25   50 1   
    53   26   28 1   
    54   26   51 1   
    55   26   52 1   
    56   27   53 1   
    57   27   54 1   
    58   27   55 1   
    59   28   56 1   
    60   28   57 1   
    61   28   58 1   
@<TRIPOS>SUBSTRUCTURE
     1 QUN         1 TEMP              0 ****  ****    0 ROOT
