@<TRIPOS>MOLECULE
QUN
   59    61     1     0     0
SMALL
bcc


@<TRIPOS>ATOM
      1 C1          0.0600    0.0080    0.0380 ca        1 QUN      0.119100
      2 C2          1.4810   -0.1340    0.0220 ca        1 QUN     -0.167000
      3 C3          2.1650   -0.2100    1.1970 ca        1 QUN     -0.127300
      4 C4          1.4810   -0.1430    2.4720 ca        1 QUN      0.404600
      5 C5          0.0520    0.0290    2.4740 ca        1 QUN     -0.115300
      6 C6         -0.6320    0.0870    1.2260 ca        1 QUN     -0.168000
      7 N1          2.2150   -0.2560    3.6030 nb        1 QUN     -0.643000
      8 C7          1.5820   -0.1800    4.7950 ca        1 QUN      0.429600
      9 C8          0.1630    0.0340    4.9150 ca        1 QUN     -0.169300
     10 C9         -0.6130    0.1160    3.7280 ca        1 QUN      0.142600
     11 C10         2.3720   -0.3140    6.0000 ca        1 QUN     -0.160300
     12 C11         1.7780   -0.2110    7.2260 ca        1 QUN      0.022400
     13 C12         0.3770    0.0420    7.3460 ca        1 QUN     -0.104000
     14 C13        -0.3940    0.1610    6.2280 ca        1 QUN     -0.127000
     15 CL          2.6910   -0.3720    8.6460 cl        1 QUN     -0.063400
     16 O          -0.7150    0.0610   -1.1090 os        1 QUN     -0.353900
     17 C14        -0.0070    0.0900   -2.3450 c3        1 QUN      0.113700
     18 N2         -2.0310    0.1970    3.7660 nh        1 QUN     -0.721600
     19 C15        -2.6060    1.5080    3.4650 c3        1 QUN      0.180500
     20 C16        -2.5440    2.5070    4.6220 c3        1 QUN     -0.134100
     21 C17        -4.0790    1.3750    3.0340 c3        1 QUN     -0.074400
     22 C18        -4.2070    0.6140    1.7320 c3        1 QUN     -0.108400
     23 C19        -5.6760    0.5020    1.3420 c3        1 QUN      0.104800
     24 N3         -5.8820   -0.2440    0.0540 n4        1 QUN     -0.691400
     25 C20        -5.8030   -1.7280    0.2750 c3        1 QUN      0.109800
     26 C21        -7.1860    0.1350   -0.5850 c3        1 QUN      0.109800
     27 C22        -5.4500   -2.5060   -0.9750 c3        1 QUN     -0.134100
     28 C23        -7.1400    1.4610   -1.3140 c3        1 QUN     -0.134100
     29 H21         2.0180   -0.1860   -0.9370 ha        1 QUN      0.150000
     30 H31         3.2630   -0.3260    1.2020 ha        1 QUN      0.166000
     31 H61        -1.7260    0.1800    1.2020 ha        1 QUN      0.132000
     32 H101        3.4550   -0.4980    5.8990 ha        1 QUN      0.175000
     33 H121       -0.0610    0.1420    8.3520 ha        1 QUN      0.156000
     34 H131       -1.4660    0.3820    6.3490 ha        1 QUN      0.127000
     35 H141       -0.8200    0.1920   -3.1080 h1        1 QUN      0.049700
     36 H142        0.6820    0.9680   -2.3870 h1        1 QUN      0.049700
     37 H143        0.5560   -0.8630   -2.4970 h1        1 QUN      0.049700
     38 HN21       -2.3890   -0.1500    4.6370 hn        1 QUN      0.381800
     39 H151       -2.0230    1.9390    2.5960 h1        1 QUN      0.077700
     40 H161       -2.8970    3.5070    4.2750 hc        1 QUN      0.052700
     41 H162       -3.1880    2.1760    5.4710 hc        1 QUN      0.052700
     42 H163       -1.4940    2.6120    4.9910 hc        1 QUN      0.052700
     43 H171       -4.6700    0.8640    3.8390 hc        1 QUN      0.055700
     44 H172       -4.4950    2.4100    2.9130 hc        1 QUN      0.055700
     45 H181       -3.6360    1.1560    0.9290 hc        1 QUN      0.077200
     46 H182       -3.7520   -0.4060    1.8480 hc        1 QUN      0.077200
     47 H191       -6.1090    1.5360    1.2140 hx        1 QUN      0.099200
     48 H192       -6.2570   -0.0300    2.1470 hx        1 QUN      0.099200
     49 H201       -6.7970   -2.0670    0.6840 hx        1 QUN      0.102950
     50 H202       -5.0130   -1.9140    1.0620 hx        1 QUN      0.102950
     51 H211       -7.9710    0.1590    0.2250 hx        1 QUN      0.102950
     52 H212       -7.4560   -0.6830   -1.3160 hx        1 QUN      0.102950
     53 H221       -5.3790   -3.5890   -0.6970 hc        1 QUN      0.077367
     54 H222       -4.4620   -2.1910   -1.3930 hc        1 QUN      0.077367
     55 H223       -6.2290   -2.4020   -1.7690 hc        1 QUN      0.077367
     56 H231       -6.3720    1.4600   -2.1260 hc        1 QUN      0.077367
     57 H232       -6.9350    2.3140   -0.6240 hc        1 QUN      0.077367
     58 H233       -8.1430    1.6300   -1.7860 hc        1 QUN      0.077367
     59 H311       -5.1220    0.0210   -0.5900 hn        1 QUN      0.448800
@<TRIPOS>BOND
     1    1    2 ar  
     2    1    6 ar  
     3    1   16 1   
     4    2    3 ar  
     5    2   29 1   
     6    3    4 ar  
     7    3   30 1   
     8    4    5 ar  
     9    4    7 ar  
    10    5    6 ar  
    11    5   10 ar  
    12    6   31 1   
    13    7    8 ar  
    14    8    9 ar  
    15    8   11 ar  
    16    9   10 ar  
    17    9   14 ar  
    18   10   18 1   
    19   11   12 ar  
    20   11   32 1   
    21   12   13 ar  
    22   12   15 1   
    23   13   14 ar  
    24   13   33 1   
    25   14   34 1   
    26   16   17 1   
    27   17   35 1   
    28   17   36 1   
    29   17   37 1   
    30   18   19 1   
    31   18   38 1   
    32   19   20 1   
    33   19   21 1   
    34   19   39 1   
    35   20   40 1   
    36   20   41 1   
    37   20   42 1   
    38   21   22 1   
    39   21   43 1   
    40   21   44 1   
    41   22   23 1   
    42   22   45 1   
    43   22   46 1   
    44   23   24 1   
    45   23   47 1   
    46   23   48 1   
    47   24   25 1   
    48   24   26 1   
    49   24   59 1   
    50   25   27 1   
    51   25   49 1   
    52   25   50 1   
    53   26   28 1   
    54   26   51 1   
    55   26   52 1   
    56   27   53 1   
    57   27   54 1   
    58   27   55 1   
    59   28   56 1   
    60   28   57 1   
    61   28   58 1   
@<TRIPOS>SUBSTRUCTURE
     1 QUN         1 TEMP              0 ****  ****    0 ROOT
