@<TRIPOS>MOLECULE
QUN
   58    60     1     0     0
SMALL
bcc


@<TRIPOS>ATOM
      1 C1          3.0070   -0.2080    0.7990 ca        1 QUN      0.105100
      2 C2          3.9920   -0.1980   -0.2340 ca        1 QUN     -0.159000
      3 C3          3.6070   -0.0810   -1.5350 ca        1 QUN     -0.151300
      4 C4          2.2110    0.0210   -1.8980 ca        1 QUN      0.411600
      5 C5          1.2270   -0.0430   -0.8510 ca        1 QUN     -0.129300
      6 C6          1.6640   -0.1260    0.5020 ca        1 QUN     -0.145000
      7 N1          1.8960    0.1830   -3.2060 nb        1 QUN     -0.670000
      8 C7          0.5930    0.2730   -3.5470 ca        1 QUN      0.433600
      9 C8         -0.4790    0.1650   -2.5910 ca        1 QUN     -0.195300
     10 C9         -0.1510    0.0100   -1.2170 ca        1 QUN      0.181600
     11 C10         0.2630    0.4730   -4.9430 ca        1 QUN     -0.167300
     12 C11        -1.0420    0.5310   -5.3380 ca        1 QUN      0.025400
     13 C12        -2.1070    0.3860   -4.3980 ca        1 QUN     -0.130000
     14 C13        -1.8250    0.2070   -3.0760 ca        1 QUN     -0.104000
     15 CL         -1.4410    0.7720   -6.9740 cl        1 QUN     -0.089400
     16 O           3.3170   -0.3100    2.1440 os        1 QUN     -0.324900
     17 C14         4.6950   -0.2280    2.4830 c3        1 QUN      0.113700
     18 N2         -1.1430   -0.0040   -0.2130 nh        1 QUN     -0.716600
     19 C15        -1.3730   -1.2700    0.4810 c3        1 QUN      0.182500
     20 C16        -2.1180   -2.3100   -0.3590 c3        1 QUN     -0.132100
     21 C17        -2.1570   -1.0530    1.7860 c3        1 QUN     -0.075400
     22 C18        -1.3470   -0.3090    2.8250 c3        1 QUN     -0.084400
     23 C19        -2.1840   -0.1330    4.0950 c3        1 QUN      0.175800
     24 N3         -1.4390    0.4400    5.2080 n3        1 QUN     -0.741600
     25 C20        -1.2230    1.8740    5.0630 c3        1 QUN      0.173300
     26 C21        -2.0020    0.0840    6.5040 c3        1 QUN      0.173300
     27 C22        -0.0130    2.3930    5.8240 c3        1 QUN     -0.093100
     28 C23        -1.7140   -1.3480    6.9290 c3        1 QUN     -0.093100
     29 H21         5.0580   -0.2800    0.0240 ha        1 QUN      0.142000
     30 H31         4.3570   -0.0600   -2.3430 ha        1 QUN      0.154000
     31 H61         0.9340   -0.1010    1.3280 ha        1 QUN      0.166000
     32 H101        1.0890    0.5760   -5.6660 ha        1 QUN      0.166000
     33 H121       -3.1460    0.4160   -4.7590 ha        1 QUN      0.149000
     34 H131       -2.6650    0.0760   -2.3760 ha        1 QUN      0.129000
     35 H141        4.6870   -0.2440    3.6030 h1        1 QUN      0.044367
     36 H142        5.2510   -1.1110    2.0840 h1        1 QUN      0.044367
     37 H143        5.1450    0.7220    2.1060 h1        1 QUN      0.044367
     38 HN21       -2.0080    0.3930   -0.5280 hn        1 QUN      0.384800
     39 H151       -0.3590   -1.6990    0.7450 h1        1 QUN      0.076700
     40 H161       -3.1610   -1.9750   -0.5750 hc        1 QUN      0.043700
     41 H162       -1.5930   -2.4870   -1.3280 hc        1 QUN      0.043700
     42 H163       -2.1640   -3.2750    0.1990 hc        1 QUN      0.043700
     43 H171       -2.4380   -2.0640    2.1830 hc        1 QUN      0.043700
     44 H172       -3.1100   -0.5010    1.5750 hc        1 QUN      0.043700
     45 H181       -1.0340    0.6890    2.4240 hc        1 QUN      0.058200
     46 H182       -0.4120   -0.8830    3.0610 hc        1 QUN      0.058200
     47 H191       -2.5580   -1.1500    4.4070 h1        1 QUN      0.027200
     48 H192       -3.0910    0.4910    3.8400 h1        1 QUN      0.027200
     49 H201       -2.1330    2.4600    5.3910 h1        1 QUN      0.028450
     50 H202       -1.0630    2.0970    3.9690 h1        1 QUN      0.028450
     51 H211       -1.5540    0.7700    7.2790 h1        1 QUN      0.028450
     52 H212       -3.1210    0.2470    6.5240 h1        1 QUN      0.028450
     53 H221        0.1350    3.4700    5.5680 hc        1 QUN      0.037533
     54 H222       -0.1550    2.3110    6.9280 hc        1 QUN      0.037533
     55 H223        0.9090    1.8290    5.5450 hc        1 QUN      0.037533
     56 H231       -2.0810   -1.4900    7.9740 hc        1 QUN      0.037533
     57 H232       -2.2330   -2.0840    6.2710 hc        1 QUN      0.037533
     58 H233       -0.6190   -1.5620    6.9010 hc        1 QUN      0.037533
@<TRIPOS>BOND
     1    1    2 ar  
     2    1    6 ar  
     3    1   16 1   
     4    2    3 ar  
     5    2   29 1   
     6    3    4 ar  
     7    3   30 1   
     8    4    5 ar  
     9    4    7 ar  
    10    5    6 ar  
    11    5   10 ar  
    12    6   31 1   
    13    7    8 ar  
    14    8    9 ar  
    15    8   11 ar  
    16    9   10 ar  
    17    9   14 ar  
    18   10   18 1   
    19   11   12 ar  
    20   11   32 1   
    21   12   13 ar  
    22   12   15 1   
    23   13   14 ar  
    24   13   33 1   
    25   14   34 1   
    26   16   17 1   
    27   17   35 1   
    28   17   36 1   
    29   17   37 1   
    30   18   19 1   
    31   18   38 1   
    32   19   20 1   
    33   19   21 1   
    34   19   39 1   
    35   20   40 1   
    36   20   41 1   
    37   20   42 1   
    38   21   22 1   
    39   21   43 1   
    40   21   44 1   
    41   22   23 1   
    42   22   45 1   
    43   22   46 1   
    44   23   24 1   
    45   23   47 1   
    46   23   48 1   
    47   24   25 1   
    48   24   26 1   
    49   25   27 1   
    50   25   49 1   
    51   25   50 1   
    52   26   28 1   
    53   26   51 1   
    54   26   52 1   
    55   27   53 1   
    56   27   54 1   
    57   27   55 1   
    58   28   56 1   
    59   28   57 1   
    60   28   58 1   
@<TRIPOS>SUBSTRUCTURE
     1 QUN         1 TEMP              0 ****  ****    0 ROOT
