@<TRIPOS>MOLECULE
QUO
   57    60     1     0     0
SMALL
bcc


@<TRIPOS>ATOM
      1 P          -2.4690    0.5430    1.8550 p5        1 QUO      1.351900
      2 OP1        -1.7140    0.8640    0.5760 o         1 QUO     -0.927500
      3 OP2        -3.8740    0.0770    1.6100 o         1 QUO     -0.927500
      4 OP3        -2.1360    1.5020    2.9670 o         1 QUO     -0.927500
      5 O5'        -1.6050   -0.8170    2.4600 os        1 QUO     -0.571200
      6 C5'        -0.4150   -1.1460    1.8650 c3        1 QUO      0.214400
      7 C4'         0.8090   -0.4920    2.5500 c3        1 QUO      0.063100
      8 O4'         2.0090   -0.8840    1.8410 os        1 QUO     -0.434600
      9 C1'         2.5980    0.2380    1.1850 c3        1 QUO      0.213800
     10 N9          2.2690    0.2570   -0.2350 na        1 QUO     -0.043100
     11 C4          3.1120   -0.1660   -1.2680 cc        1 QUO      0.120100
     12 N3          4.4510   -0.5290   -1.1830 nc        1 QUO     -0.623100
     13 C2          5.0340   -0.8530   -2.3430 cd        1 QUO      0.567800
     14 N2          6.4390   -1.1940   -2.3700 nh        1 QUO     -0.862800
     15 N1          4.3780   -0.8730   -3.5910 n         1 QUO     -0.495400
     16 C6          3.0150   -0.5030   -3.7260 c         1 QUO      0.744100
     17 O6          2.5480   -0.5280   -4.8830 o         1 QUO     -0.670500
     18 C5          2.3560   -0.1500   -2.4970 cd        1 QUO     -0.235600
     19 C7          1.0240    0.2580   -2.1670 cd        1 QUO     -0.119300
     20 C8          1.0060    0.5010   -0.7830 cc        1 QUO     -0.098300
     21 C10        -0.1320    0.3110   -3.0920 c3        1 QUO      0.241100
     22 N11        -1.1950    1.2290   -2.7160 n3        1 QUO     -0.832200
     23 C12        -2.5100    0.7910   -3.1680 c3        1 QUO      0.177500
     24 C13        -3.1870   -0.2530   -2.2310 c3        1 QUO      0.087100
     25 O13        -3.8480   -1.2140   -3.0430 oh        1 QUO     -0.641800
     26 C14        -4.1420    0.5750   -1.3480 c3        1 QUO      0.100100
     27 O14        -5.2470   -0.2000   -0.9320 oh        1 QUO     -0.667800
     28 C15        -4.6030    1.7430   -2.2210 c3        1 QUO     -0.087400
     29 C16        -3.5060    1.9750   -3.2490 c3        1 QUO     -0.064400
     30 C2'         2.0920    1.5140    1.9400 c3        1 QUO      0.111100
     31 O2'         3.0870    1.9020    2.8660 oh        1 QUO     -0.617800
     32 C3'         0.7650    1.0510    2.5630 c3        1 QUO      0.078100
     33 O3'         0.6350    1.5460    3.8760 oh        1 QUO     -0.661800
     34 H5'        -0.4170   -0.8720    0.7740 h1        1 QUO      0.008700
     35 H5''       -0.2660   -2.2630    1.9540 h1        1 QUO      0.008700
     36 H4'         0.9350   -0.8920    3.5900 h1        1 QUO      0.055700
     37 H1'         3.7120    0.1080    1.2950 h2        1 QUO      0.092700
     38 HN21        6.8870   -0.9030   -1.5210 hn        1 QUO      0.372300
     39 HN22        6.5400   -2.1860   -2.4780 hn        1 QUO      0.372300
     40 H1          4.8930   -1.0760   -4.4150 hn        1 QUO      0.317500
     41 H8          0.1430    0.8240   -0.1510 h4        1 QUO      0.290000
     42 H101        0.2370    0.6280   -4.1120 h1        1 QUO      0.035700
     43 H102       -0.5120   -0.7530   -3.1990 h1        1 QUO      0.035700
     44 H11        -1.2240    1.3750   -1.7140 hn        1 QUO      0.421800
     45 H12        -2.4060    0.3370   -4.1950 h1        1 QUO      0.041700
     46 H13        -2.4410   -0.7960   -1.5890 h1        1 QUO      0.079700
     47 HO13       -4.6630   -1.4460   -2.5790 ho        1 QUO      0.411000
     48 H14        -3.5480    0.9380   -0.4480 h1        1 QUO      0.154700
     49 HO14       -5.1050   -0.3690    0.0210 ho        1 QUO      0.479000
     50 H151       -4.7700    2.6510   -1.5930 hc        1 QUO      0.028200
     51 H152       -5.5710    1.4890   -2.7210 hc        1 QUO      0.028200
     52 H161       -2.9950    2.9530   -3.0620 hc        1 QUO      0.025700
     53 H162       -3.9360    2.0140   -4.2800 hc        1 QUO      0.025700
     54 H2'         1.9500    2.3910    1.2560 h1        1 QUO      0.082700
     55 HO2'        2.8050    1.5960    3.7380 ho        1 QUO      0.423000
     56 H3'        -0.1150    1.4030    1.9300 h1        1 QUO      0.156700
     57 HO3'       -0.3310    1.6840    4.0000 ho        1 QUO      0.492000
@<TRIPOS>BOND
     1    1    2 1   
     2    1    3 1   
     3    1    4 1   
     4    1    5 1   
     5    5    6 1   
     6    6    7 1   
     7    6   34 1   
     8    6   35 1   
     9    7    8 1   
    10    7   32 1   
    11    7   36 1   
    12    8    9 1   
    13    9   10 1   
    14    9   30 1   
    15    9   37 1   
    16   10   11 1   
    17   10   20 1   
    18   11   12 1   
    19   11   18 2   
    20   12   13 2   
    21   13   14 1   
    22   13   15 1   
    23   14   38 1   
    24   14   39 1   
    25   15   16 1   
    26   15   40 1   
    27   16   17 2   
    28   16   18 1   
    29   18   19 1   
    30   19   20 2   
    31   19   21 1   
    32   20   41 1   
    33   21   22 1   
    34   21   42 1   
    35   21   43 1   
    36   22   23 1   
    37   22   44 1   
    38   23   24 1   
    39   23   29 1   
    40   23   45 1   
    41   24   25 1   
    42   24   26 1   
    43   24   46 1   
    44   25   47 1   
    45   26   27 1   
    46   26   28 1   
    47   26   48 1   
    48   27   49 1   
    49   28   29 1   
    50   28   50 1   
    51   28   51 1   
    52   29   52 1   
    53   29   53 1   
    54   30   31 1   
    55   30   32 1   
    56   30   54 1   
    57   31   55 1   
    58   32   33 1   
    59   32   56 1   
    60   33   57 1   
@<TRIPOS>SUBSTRUCTURE
     1 QUO         1 TEMP              0 ****  ****    0 ROOT
