@<TRIPOS>MOLECULE
QUP
   40    43     1     0     0
SMALL
bcc


@<TRIPOS>ATOM
      1 Cl          0.2270    0.9080   -0.2400 cl        1 QUP     -0.044400
      2 C19         1.8480    0.4240   -0.1770 ca        1 QUP      0.016400
      3 C18         2.5300    0.4710    1.0390 ca        1 QUP     -0.100000
      4 C21         2.4930   -0.0220   -1.3370 ca        1 QUP     -0.080000
      5 C22         3.8230   -0.4220   -1.2730 ca        1 QUP     -0.112000
      6 C23         4.5410   -0.3880   -0.0710 ca        1 QUP     -0.037300
      7 C24         5.9530   -0.8340   -0.0460 c3        1 QUP     -0.067800
      8 C17         3.8810    0.0720    1.0920 ca        1 QUP     -0.077200
      9 N16         4.5620    0.1080    2.3440 na        1 QUP      0.088800
     10 C12         5.1470    1.2490    2.9520 cc        1 QUP     -0.293900
     11 C13         5.1610    2.5440    2.3520 c         1 QUP      0.599700
     12 N15         5.7380    3.6410    3.2490 nz        1 QUP     -0.759400
     13 O14         4.8000    2.9550    1.2570 o         1 QUP     -0.435100
     14 C11         5.6920    0.8420    4.2080 cd        1 QUP     -0.071000
     15 C25         4.7230   -0.9600    3.1830 cc        1 QUP      0.014700
     16 C1          5.4350   -0.5370    4.3520 cd        1 QUP     -0.215500
     17 C2          5.7610   -1.4020    5.4730 cd        1 QUP      0.561800
     18 N10         4.9670   -2.4360    5.7540 nc        1 QUP     -0.692000
     19 C9          5.3300   -3.2030    6.8620 cc        1 QUP      0.592900
     20 N8          6.3770   -3.0290    7.6770 nd        1 QUP     -0.472800
     21 N7          7.1800   -2.0060    7.3860 na        1 QUP      0.198200
     22 C3          6.9390   -1.1250    6.2620 cd        1 QUP     -0.244600
     23 C6          8.3520   -1.5960    8.0160 cd        1 QUP     -0.094100
     24 C5          8.8630   -0.4840    7.3150 cc        1 QUP     -0.170000
     25 C4          7.9930   -0.1930    6.2280 cc        1 QUP     -0.158000
     26 H18         2.0070    0.8130    1.9470 ha        1 QUP      0.161000
     27 H21         1.9490   -0.0580   -2.2960 ha        1 QUP      0.172000
     28 H22         4.3260   -0.7780   -2.1890 ha        1 QUP      0.163000
     29 H241        6.6270    0.0090    0.2470 hc        1 QUP      0.059367
     30 H242        6.2770   -1.2040   -1.0510 hc        1 QUP      0.059367
     31 H243        6.0900   -1.6670    0.6900 hc        1 QUP      0.059367
     32 H25         4.3390   -1.9620    2.9470 h4        1 QUP      0.226000
     33 H11         6.2070    1.4710    4.9320 ha        1 QUP      0.163000
     34 H151        5.6850    4.5420    2.7580 hn        1 QUP      0.464800
     35 H152        5.2020    3.6940    4.1190 hn        1 QUP      0.464800
     36 H9          4.6600   -4.0580    7.0940 h5        1 QUP      0.083100
     37 H6          8.7390   -2.1120    8.8980 h4        1 QUP      0.203000
     38 H4          8.1350    0.5870    5.4880 ha        1 QUP      0.139000
     39 H5          9.7760    0.0490    7.5710 ha        1 QUP      0.172000
     40 H153        6.7140    3.4330    3.4710 hn        1 QUP      0.464800
@<TRIPOS>BOND
     1    1    2 1   
     2    2    3 ar  
     3    2    4 ar  
     4    3    8 ar  
     5    3   26 1   
     6    4    5 ar  
     7    4   27 1   
     8    5    6 ar  
     9    5   28 1   
    10    6    7 1   
    11    6    8 ar  
    12    7   29 1   
    13    7   30 1   
    14    7   31 1   
    15    8    9 1   
    16    9   10 1   
    17    9   15 1   
    18   10   11 1   
    19   10   14 2   
    20   11   12 1   
    21   11   13 2   
    22   12   34 1   
    23   12   35 1   
    24   12   40 1   
    25   14   16 1   
    26   14   33 1   
    27   15   16 2   
    28   15   32 1   
    29   16   17 1   
    30   17   18 2   
    31   17   22 1   
    32   18   19 1   
    33   19   20 2   
    34   19   36 1   
    35   20   21 1   
    36   21   22 1   
    37   21   23 1   
    38   22   25 2   
    39   23   24 2   
    40   23   37 1   
    41   24   25 1   
    42   24   39 1   
    43   25   38 1   
@<TRIPOS>SUBSTRUCTURE
     1 QUP         1 TEMP              0 ****  ****    0 ROOT
