@<TRIPOS>MOLECULE
QUP
   40    43     1     0     0
SMALL
bcc


@<TRIPOS>ATOM
      1 CL          0.2320    0.9270   -0.2420 cl        1 QUP     -0.044400
      2 C19         1.8500    0.4340   -0.1770 ca        1 QUP      0.016400
      3 C18         2.5330    0.4810    1.0380 ca        1 QUP     -0.100000
      4 C21         2.4920   -0.0180   -1.3370 ca        1 QUP     -0.080000
      5 C22         3.8200   -0.4250   -1.2720 ca        1 QUP     -0.112000
      6 C23         4.5390   -0.3910   -0.0710 ca        1 QUP     -0.037300
      7 C24         5.9480   -0.8460   -0.0440 c3        1 QUP     -0.067800
      8 C17         3.8810    0.0740    1.0910 ca        1 QUP     -0.077200
      9 N16         4.5630    0.1110    2.3430 na        1 QUP      0.088800
     10 C12         5.1540    1.2500    2.9480 cc        1 QUP     -0.293900
     11 C13         5.1750    2.5430    2.3450 c         1 QUP      0.599700
     12 N15         5.7580    3.6390    3.2390 n4        1 QUP     -0.759400
     13 O14         4.8150    2.9530    1.2500 o         1 QUP     -0.435100
     14 C11         5.6970    0.8420    4.2050 cd        1 QUP     -0.071000
     15 C25         4.7180   -0.9570    3.1850 cc        1 QUP      0.014700
     16 C1          5.4320   -0.5340    4.3530 cd        1 QUP     -0.215500
     17 C2          5.7550   -1.3990    5.4760 cd        1 QUP      0.561800
     18 N10         4.9550   -2.4280    5.7600 nc        1 QUP     -0.692000
     19 C9          5.3140   -3.1940    6.8690 cc        1 QUP      0.592900
     20 N8          6.3620   -3.0240    7.6840 nd        1 QUP     -0.472800
     21 N7          7.1700   -2.0050    7.3910 na        1 QUP      0.198200
     22 C3          6.9340   -1.1250    6.2640 cd        1 QUP     -0.244600
     23 C6          8.3440   -1.5990    8.0190 cd        1 QUP     -0.094100
     24 C5          8.8610   -0.4920    7.3160 cc        1 QUP     -0.170000
     25 C4          7.9930   -0.2000    6.2290 cc        1 QUP     -0.158000
     26 H18         2.0110    0.8280    1.9450 ha        1 QUP      0.161000
     27 H21         1.9480   -0.0540   -2.2950 ha        1 QUP      0.172000
     28 H22         4.3210   -0.7860   -2.1870 ha        1 QUP      0.163000
     29 H241        6.6270   -0.0050    0.2460 hc        1 QUP      0.059367
     30 H242        6.0810   -1.6770    0.6930 hc        1 QUP      0.059367
     31 H243        6.2700   -1.2190   -1.0480 hc        1 QUP      0.059367
     32 H25         4.3290   -1.9570    2.9510 h4        1 QUP      0.226000
     33 H11         6.2150    1.4700    4.9280 ha        1 QUP      0.163000
     34 H151        5.7100    4.5380    2.7460 hn        1 QUP      0.464800
     35 H152        6.7330    3.4260    3.4610 hn        1 QUP      0.464800
     36 H9          4.6400   -4.0450    7.1040 h5        1 QUP      0.083100
     37 H6          8.7290   -2.1160    8.9030 h4        1 QUP      0.203000
     38 H4          8.1390    0.5780    5.4860 ha        1 QUP      0.139000
     39 H5          9.7770    0.0360    7.5710 ha        1 QUP      0.172000
     40 H153        5.2240    3.6970    4.1090 hn        1 QUP      0.464800
@<TRIPOS>BOND
     1    1    2 1   
     2    2    3 ar  
     3    2    4 ar  
     4    3    8 ar  
     5    3   26 1   
     6    4    5 ar  
     7    4   27 1   
     8    5    6 ar  
     9    5   28 1   
    10    6    7 1   
    11    6    8 ar  
    12    7   29 1   
    13    7   30 1   
    14    7   31 1   
    15    8    9 1   
    16    9   10 1   
    17    9   15 1   
    18   10   11 1   
    19   10   14 2   
    20   11   12 1   
    21   11   13 2   
    22   12   34 1   
    23   12   35 1   
    24   12   40 1   
    25   14   16 1   
    26   14   33 1   
    27   15   16 2   
    28   15   32 1   
    29   16   17 1   
    30   17   18 2   
    31   17   22 1   
    32   18   19 1   
    33   19   20 2   
    34   19   36 1   
    35   20   21 1   
    36   21   22 1   
    37   21   23 1   
    38   22   25 2   
    39   23   24 2   
    40   23   37 1   
    41   24   25 1   
    42   24   39 1   
    43   25   38 1   
@<TRIPOS>SUBSTRUCTURE
     1 QUP         1 TEMP              0 ****  ****    0 ROOT
