@<TRIPOS>MOLECULE
QUS
   20    17     1     0     0
SMALL
bcc


@<TRIPOS>ATOM
      1 C01        -0.4730    0.5090    0.1960 c1        1 QUS      0.483000
      2 C02         1.0970    1.4910   -0.9180 c1        1 QUS     -0.214000
      3 C03         2.7960   -0.9960    2.8130 c1        1 QUS     -0.034000
      4 C04         4.5540    0.2490    1.4270 c2        1 QUS      0.338000
      5 C05         6.1840   -0.1100    2.9870 c2        1 QUS      0.382000
      6 NP3         0.7720    1.8430   -2.1160 n8        1 QUS     -0.192000
      7 N14         3.9820   -0.5150    2.5510 n         1 QUS     -0.083000
      8 N15         5.9110    0.4760    1.7420 ns        1 QUS     -0.384000
      9 O16        -1.3980    0.6930   -0.5520 o         1 QUS     -0.311500
     10 O17         0.1510    0.1280    1.1490 o         1 QUS     -0.311500
     11 O20         4.9910   -0.7130    3.4630 os        1 QUS     -0.101000
     12 H02         2.3110   -0.8160   -0.8370 ha        1 QUS      0.002500
     13 H031        2.0150   -0.8030    2.0480 ha        1 QUS      0.134000
     14 H032        1.9040   -0.7910   -0.2950 ha        1 QUS      0.002500
     15 HP31        1.3680    2.2880   -2.7830 hn        1 QUS      0.209500
     16 HP32        2.1090    1.6690   -0.5210 ha        1 QUS      0.124000
     17 H15         6.5630    0.9620    1.1810 hn        1 QUS      0.293000
     18 O19         7.1880   -0.1890    3.6790 o         1 QUS     -0.256000
     19 HP33       -0.1630    1.6640   -2.4290 hn        1 QUS      0.209500
     20 O18         3.9570    0.6080    0.4090 o         1 QUS     -0.289000
@<TRIPOS>BOND
     1    1    9 1   
     2    1   10 1   
     3    2    6 1   
     4    2   16 1   
     5    3    7 1   
     6    3   13 1   
     7    4    7 1   
     8    4    8 1   
     9    4   20 1   
    10    5    8 1   
    11    5   11 1   
    12    5   18 1   
    13    6   15 1   
    14    6   19 1   
    15    7   11 1   
    16    8   17 1   
    17   12   14 1   
@<TRIPOS>SUBSTRUCTURE
     1 QUS         1 TEMP              0 ****  ****    0 ROOT
