@<TRIPOS>MOLECULE
QUS
   20    17     1     0     0
SMALL
bcc


@<TRIPOS>ATOM
      1 C01        -1.1900    0.5220   -1.0200 c1        1 QUS      0.477000
      2 C02         0.9470    0.7630   -0.4630 c1        1 QUS     -0.210000
      3 C03         3.1600   -0.5240    3.1870 c1        1 QUS     -0.008000
      4 C04         4.6710    0.6650    1.5000 c2        1 QUS      0.347000
      5 C05         6.5160    0.4420    2.8270 c2        1 QUS      0.382000
      6 NP3         1.6560    1.3760   -1.3510 n3        1 QUS     -0.197000
      7 N14         4.2900   -0.0380    2.7400 n         1 QUS     -0.092000
      8 N15         6.0480    0.9390    1.5990 n         1 QUS     -0.377000
      9 O16        -1.1640    1.1530   -2.0430 o         1 QUS     -0.293500
     10 O17        -1.5570   -0.1490   -0.0990 o         1 QUS     -0.293500
     11 O20         5.4190   -0.1530    3.5090 os        1 QUS     -0.095000
     12 H02         0.3450   -1.6140   -0.7690 ha        1 QUS      0.002000
     13 H031        2.2960   -0.3880    2.5020 ha        1 QUS      0.096000
     14 H032        0.9950   -1.8080   -0.7810 ha        1 QUS      0.002000
     15 HP31        1.4290    0.4130    0.4660 ha        1 QUS      0.087000
     16 HP32        2.6350    1.5730   -1.2870 hn        1 QUS      0.212000
     17 H15         6.5990    1.4030    0.9210 hn        1 QUS      0.298000
     18 O19         7.6080    0.4290    3.3720 o         1 QUS     -0.241000
     19 HP33        1.2040    1.6930   -2.1870 hn        1 QUS      0.212000
     20 O18         3.9110    0.9480    0.5690 o         1 QUS     -0.309000
@<TRIPOS>BOND
     1    1    9 1   
     2    1   10 1   
     3    2    6 1   
     4    2   15 1   
     5    3    7 1   
     6    3   13 1   
     7    4    7 1   
     8    4    8 1   
     9    4   20 1   
    10    5    8 1   
    11    5   11 1   
    12    5   18 1   
    13    6   16 1   
    14    6   19 1   
    15    7   11 1   
    16    8   17 1   
    17   12   14 1   
@<TRIPOS>SUBSTRUCTURE
     1 QUS         1 TEMP              0 ****  ****    0 ROOT
