@<TRIPOS>MOLECULE
QUS
   19    19     1     0     0
SMALL
bcc


@<TRIPOS>ATOM
      1 C01         2.7190   -0.2190    0.1550 c         1 QUS      0.901600
      2 C02         1.1610   -0.1800    0.3320 c3        1 QUS     -0.022500
      3 C03         0.5310   -0.5250   -1.0270 c3        1 QUS      0.029000
      4 C04        -1.4430    0.9200   -0.8540 c         1 QUS      0.743500
      5 C05        -2.3760   -0.4970    0.6700 c         1 QUS      0.804600
      6 NP3         0.6340    1.0660    0.8710 n3        1 QUS     -0.922800
      7 N14        -0.9380   -0.4460   -1.1190 n         1 QUS     -0.177300
      8 N15        -2.3940    0.8350    0.2190 n         1 QUS     -0.574500
      9 O16         3.3850    0.6870    0.7250 o         1 QUS     -0.826800
     10 O17         3.1930   -1.1620   -0.5310 o         1 QUS     -0.826800
     11 O20        -1.5340   -1.2490   -0.1760 os        1 QUS     -0.254200
     12 H02         0.9010   -1.0010    1.0610 h1        1 QUS      0.056700
     13 H031        0.9170    0.1680   -1.8240 h1        1 QUS      0.096200
     14 H032        0.8260   -1.5810   -1.2810 h1        1 QUS      0.096200
     15 HP31        1.0230    1.1880    1.7900 hn        1 QUS      0.348800
     16 HP32        0.9850    1.8260    0.3120 hn        1 QUS      0.348800
     17 H15        -2.5190    1.5910    0.8470 hn        1 QUS      0.350500
     18 O18        -1.2150    1.9400   -1.5100 o         1 QUS     -0.576500
     19 O19        -2.9890   -1.0910    1.5530 o         1 QUS     -0.594500
@<TRIPOS>BOND
     1    1    2 1   
     2    1    9 1   
     3    1   10 1   
     4    2    3 1   
     5    2    6 1   
     6    2   12 1   
     7    3    7 1   
     8    3   13 1   
     9    3   14 1   
    10    4    7 1   
    11    4    8 1   
    12    4   18 2   
    13    5    8 1   
    14    5   11 1   
    15    5   19 2   
    16    6   15 1   
    17    6   16 1   
    18    7   11 1   
    19    8   17 1   
@<TRIPOS>SUBSTRUCTURE
     1 QUS         1 TEMP              0 ****  ****    0 ROOT
