@<TRIPOS>MOLECULE
QUZ
   16    17     1     0     0
SMALL
bcc


@<TRIPOS>ATOM
      1 C01        -2.4280    0.7110   -0.0010 ca        1 QUZ     -0.131000
      2 C02        -2.4240   -0.7030   -0.0000 ca        1 QUZ     -0.108000
      3 C03        -1.2470   -1.4110   -0.0000 ca        1 QUZ     -0.172300
      4 C04         0.0030   -0.7180    0.0000 ca        1 QUZ      0.411600
      5 N05         1.2040   -1.4120    0.0000 nb        1 QUZ     -0.678000
      6 C06         2.3130   -0.6760    0.0000 ca        1 QUZ      0.630900
      7 N07         2.4100    0.7110    0.0000 nb        1 QUZ     -0.696000
      8 C08         1.2650    1.3710   -0.0000 ca        1 QUZ      0.455200
      9 C09        -0.0140    0.7120   -0.0000 ca        1 QUZ     -0.273600
     10 C10        -1.2430    1.4090   -0.0010 ca        1 QUZ     -0.093000
     11 H01        -3.3910    1.2440   -0.0010 ha        1 QUZ      0.139000
     12 H02        -3.3880   -1.2360   -0.0000 ha        1 QUZ      0.139000
     13 H03        -1.2480   -2.5130    0.0000 ha        1 QUZ      0.155000
     14 H06         3.2820   -1.2180    0.0010 h5        1 QUZ      0.055100
     15 H08         1.3120    2.4760   -0.0000 h4        1 QUZ      0.028100
     16 H10        -1.2320    2.5090   -0.0010 ha        1 QUZ      0.138000
@<TRIPOS>BOND
     1    1    2 ar  
     2    1   10 ar  
     3    1   11 1   
     4    2    3 ar  
     5    2   12 1   
     6    3    4 ar  
     7    3   13 1   
     8    4    5 ar  
     9    4    9 ar  
    10    5    6 ar  
    11    6    7 ar  
    12    6   14 1   
    13    7    8 ar  
    14    8    9 ar  
    15    8   15 1   
    16    9   10 ar  
    17   10   16 1   
@<TRIPOS>SUBSTRUCTURE
     1 QUZ         1 TEMP              0 ****  ****    0 ROOT
