@<TRIPOS>MOLECULE
QV6
   71    73     1     0     0
SMALL
bcc


@<TRIPOS>ATOM
      1 CAA         1.7240   -1.2710    0.5550 c3        1 QV6     -0.192000
      2 CAC         2.2320    3.5580   -0.5020 c3        1 QV6     -0.190000
      3 CAD         5.2080    0.7160   -6.3480 c3        1 QV6     -0.256000
      4 CAE         3.5670   -0.3120  -10.8370 c2        1 QV6     -0.168000
      5 OAF         3.6460   -3.8880   -1.4680 o         1 QV6     -0.302000
      6 OAG         4.0190   -5.8700   -6.2320 o         1 QV6     -0.212000
      7 OAH         3.5130    2.6860   -4.3100 o         1 QV6     -1.044333
      8 OAI         2.2710    4.3710   -3.1670 o         1 QV6     -1.044333
      9 OAJ         6.4890   -1.3170   -7.6500 o         1 QV6     -0.955000
     10 OAK         5.9110   -1.6900   -9.9330 o         1 QV6     -0.955000
     11 OAL         1.1940    2.7640   -4.5630 o         1 QV6     -1.044333
     12 OAM         4.7080   -2.8130   -8.2290 oh        1 QV6     -0.789000
     13 CAN         9.8100   -7.0010   -4.9550 c2        1 QV6     -0.160000
     14 CAO         7.5040   -6.3020   -5.1650 c1        1 QV6     -0.020000
     15 CAP         1.3360   -1.9350   -4.6040 c2        1 QV6     -0.209000
     16 CAQ         1.3550   -2.5630   -5.8780 c1        1 QV6     -0.041000
     17 CAR         8.6680   -6.9180   -5.6460 c2        1 QV6     -0.086000
     18 CAS         6.4950   -5.7770   -4.7770 c1        1 QV6     -0.163000
     19 CAT         1.9360    1.1100   -0.1040 c2        1 QV6      0.067000
     20 CAU         2.9550    1.2970   -7.2180 ca        1 QV6     -0.178000
     21 CAV         1.9360    0.5390   -2.8770 c3        1 QV6     -0.170000
     22 NAW         1.9670   -1.8620   -2.2370 n3        1 QV6     -0.215000
     23 NAX         0.9150   -0.5510   -9.6080 n2        1 QV6     -0.208000
     24 CAY         1.8510   -0.2140   -0.4800 c2        1 QV6     -0.219000
     25 CAZ         1.8530    1.0480   -7.9610 ca        1 QV6     -0.030000
     26 CBA         2.0900    2.1820   -1.0370 c2        1 QV6     -0.069000
     27 CBB         4.1790    0.5480   -7.4010 ca        1 QV6      0.190000
     28 CBC         3.3030   -0.2240   -9.5240 ca        1 QV6     -0.032000
     29 CBD         1.9170   -0.5600   -1.8730 c2        1 QV6      0.231000
     30 CBE         2.1020   -2.3770   -3.5480 c2        1 QV6      0.113000
     31 CBF         2.3450   -3.5770   -6.1440 c3        1 QV6     -0.234000
     32 CBG         1.9150    0.0480   -9.0590 ca        1 QV6      0.042000
     33 CBH         2.1000    1.9040   -2.3660 c2        1 QV6     -0.568000
     34 CBI         4.3320   -0.2900   -8.4790 ca        1 QV6     -0.945000
     35 CBJ         3.9300   -3.9830   -2.6710 ca        1 QV6      0.304000
     36 CBK         4.1740   -5.0910   -5.2920 ca        1 QV6      0.274000
     37 CBL         5.3190   -5.1570   -4.3400 ca        1 QV6      0.053000
     38 CBM         5.1760   -4.6390   -3.1020 ca        1 QV6     -0.180000
     39 CBN         3.0610   -3.4690   -3.7610 ca        1 QV6     -0.178000
     40 CBO         3.1830   -4.0120   -5.0080 ca        1 QV6     -0.030000
     41 SBP         2.2930    3.1190   -3.7650 s6        1 QV6      2.877000
     42 SBQ         5.5220   -1.4000   -8.6360 s6        1 QV6      2.892000
     43 HAA         2.6120   -1.9550    0.5410 hc        1 QV6      0.097667
     44 HAAA        1.6580   -0.8210    1.5770 hc        1 QV6      0.097667
     45 HAAB        0.8000   -1.8800    0.3910 hc        1 QV6      0.097667
     46 HAB         0.2520    2.3200   -8.5920 hc        1 QV6      0.109333
     47 HABA       -0.2320    0.9790   -7.4670 hc        1 QV6      0.109333
     48 HABB        0.6480    2.4190   -6.8140 hc        1 QV6      0.109333
     49 HAC         2.2070    3.5700    0.6140 hc        1 QV6      0.107333
     50 HACA        1.4090    4.2120   -0.8940 hc        1 QV6      0.107333
     51 HACB        3.1960    4.0110   -0.8500 hc        1 QV6      0.107333
     52 HAD         4.8970    1.4790   -5.5850 hc        1 QV6      0.130000
     53 HADA        6.1780    1.0420   -6.8050 hc        1 QV6      0.130000
     54 HADB        5.4000   -0.2570   -5.8270 hc        1 QV6      0.130000
     55 HAE         4.6780   -3.4890   -8.9030 ho        1 QV6      0.273000
     56 HAEA        2.7700   -0.2400  -11.5910 ha        1 QV6      0.142000
     57 HAEB        4.5770   -0.4720  -11.2410 ha        1 QV6      0.142000
     58 HAN        10.7000   -7.4910   -5.3750 ha        1 QV6      0.125000
     59 HAO         9.9320   -6.5890   -3.9450 ha        1 QV6      0.125000
     60 HAP         3.0200   -3.1820   -6.9870 hc        1 QV6      0.224000
     61 HAQ         0.6200   -1.1010   -4.4950 ha        1 QV6      0.166000
     62 HAR         5.9760   -4.6960   -2.3450 ha        1 QV6      0.177000
     63 HAS         8.5790   -7.3410   -6.6660 ha        1 QV6      0.152000
     64 HAT         1.8940    1.3610    0.9730 ha        1 QV6      0.154000
     65 HAU         2.9350    2.0440   -6.3990 ha        1 QV6      0.189000
     66 HAV         2.7400    0.3490   -3.6570 hc        1 QV6      0.201000
     67 HNAW        0.9490    0.5470   -3.4510 hc        1 QV6      0.201000
     68 HNAX        1.8430   -4.4760   -6.6200 hc        1 QV6      0.224000
     69 HAW2        2.0400   -2.5530   -1.5020 hn        1 QV6      0.285000
     70 HAX2        0.0150   -0.2990   -9.2520 hn        1 QV6      0.147000
     71 CAB         0.5670    1.7290   -7.6960 c3        1 QV6     -0.218000
@<TRIPOS>BOND
     1    1   24 1   
     2    1   43 1   
     3    1   44 1   
     4    1   45 1   
     5    2   26 1   
     6    2   49 1   
     7    2   50 1   
     8    2   51 1   
     9    3   27 1   
    10    3   52 1   
    11    3   53 1   
    12    3   54 1   
    13    4   28 1   
    14    4   56 1   
    15    4   57 1   
    16    5   35 1   
    17    6   36 1   
    18    7   41 1   
    19    8   41 1   
    20    9   42 1   
    21   10   42 1   
    22   11   41 1   
    23   12   42 1   
    24   12   55 1   
    25   13   17 1   
    26   13   58 1   
    27   13   59 1   
    28   14   17 1   
    29   14   18 1   
    30   15   16 1   
    31   15   30 1   
    32   15   61 1   
    33   16   31 1   
    34   17   63 1   
    35   18   37 1   
    36   19   24 1   
    37   19   26 1   
    38   19   64 1   
    39   20   25 1   
    40   20   27 1   
    41   20   65 1   
    42   21   29 1   
    43   21   33 1   
    44   21   66 1   
    45   21   67 1   
    46   22   29 1   
    47   22   30 1   
    48   22   69 1   
    49   23   32 1   
    50   23   70 1   
    51   24   29 1   
    52   25   32 1   
    53   25   71 1   
    54   26   33 1   
    55   27   34 1   
    56   28   32 1   
    57   28   34 1   
    58   30   39 1   
    59   31   40 1   
    60   31   60 1   
    61   31   68 1   
    62   33   41 1   
    63   34   42 1   
    64   35   38 1   
    65   35   39 1   
    66   36   37 1   
    67   36   40 1   
    68   37   38 1   
    69   38   62 1   
    70   39   40 1   
    71   46   71 1   
    72   47   71 1   
    73   48   71 1   
@<TRIPOS>SUBSTRUCTURE
     1 QV6         1 TEMP              0 ****  ****    0 ROOT
