@<TRIPOS>MOLECULE
QV6
   69    73     1     0     0
SMALL
bcc


@<TRIPOS>ATOM
      1 CAA         4.0690    1.0470    2.4000 c3        1 QV6     -0.054800
      2 CAC         7.5620    2.9800   -0.5750 c3        1 QV6     -0.087800
      3 CAD        -5.4310    2.9900    1.4850 c3        1 QV6     -0.056800
      4 CAE        -4.5320   -1.2040   -1.0690 c3        1 QV6     -0.096800
      5 OAF         2.0980   -2.4480    2.1430 o         1 QV6     -0.579100
      6 OAG        -2.1290   -2.7340   -0.4640 o         1 QV6     -0.521100
      7 OAH         6.2260    0.1940   -3.7620 o         1 QV6     -0.745200
      8 OAI         8.2440    0.8420   -2.6990 o         1 QV6     -0.745200
      9 OAJ        -6.6130    0.7270    2.2330 o         1 QV6     -0.749200
     10 OAK        -5.6000   -1.2830    1.5510 o         1 QV6     -0.749200
     11 OAL         6.7440    2.4890   -3.4770 o         1 QV6     -0.745200
     12 OAM        -7.2170   -0.2300    0.1650 o         1 QV6     -0.749200
     13 CAN        -1.4080   -2.4080    4.5380 ca        1 QV6     -0.141000
     14 CAO        -2.6260   -2.3840    3.8620 ca        1 QV6     -0.115000
     15 CAP         1.7660    0.2510   -1.3080 ca        1 QV6     -0.185000
     16 CAQ         0.4990    0.4050   -1.8160 ca        1 QV6     -0.058000
     17 CAR        -0.2060   -2.3070    3.8320 ca        1 QV6     -0.105000
     18 CAS        -2.6620   -2.2800    2.4680 ca        1 QV6     -0.069000
     19 CAT         5.7890    1.9690    0.8550 ca        1 QV6     -0.166000
     20 CAU        -3.4610    2.7600    0.0150 ca        1 QV6     -0.173000
     21 CAV         5.0220    0.2650   -1.1970 ca        1 QV6     -0.034000
     22 NAW         3.3330   -0.7730    0.2560 nh        1 QV6     -0.613000
     23 NAX        -1.9050   -0.0860   -1.8390 nh        1 QV6     -0.591000
     24 CAY         4.7400    1.0770    1.0790 ca        1 QV6     -0.082300
     25 CAZ        -2.5750    2.0410   -0.7850 ca        1 QV6     -0.056300
     26 CBA         6.4520    2.0180   -0.3750 ca        1 QV6      0.022700
     27 CBB        -4.5820    2.1600    0.5940 ca        1 QV6      0.002700
     28 CBC        -4.0600    0.1240   -0.5930 ca        1 QV6     -0.005300
     29 CBD         4.3430    0.2050    0.0360 ca        1 QV6      0.054600
     30 CBE         2.0300   -0.5870   -0.1810 ca        1 QV6      0.235600
     31 CBF        -0.6100   -0.2860   -1.2580 ca        1 QV6      0.081600
     32 CBG        -2.8330    0.6760   -1.0540 ca        1 QV6      0.051600
     33 CBH         6.0680    1.1580   -1.4110 ca        1 QV6     -0.258500
     34 CBI        -4.8770    0.8210    0.3140 ca        1 QV6     -0.259500
     35 CBJ         1.0330   -2.0080    1.6760 c         1 QV6      0.602300
     36 CBK        -1.4090   -2.0770    0.2960 c         1 QV6      0.593300
     37 CBL        -0.2280   -2.1750    2.4430 ca        1 QV6     -0.135600
     38 CBM        -1.4600   -2.1860    1.7660 ca        1 QV6     -0.132600
     39 CBN         0.9270   -1.2620    0.4090 ca        1 QV6     -0.236600
     40 CBO        -0.3480   -1.1660   -0.2010 ca        1 QV6     -0.110600
     41 SBP         6.8970    1.1690   -2.9910 s6        1 QV6      1.457100
     42 SBQ        -6.1990   -0.0620    1.1350 s6        1 QV6      1.458100
     43 HAA         2.9690    1.2180    2.2870 hc        1 QV6      0.038033
     44 HAAA        4.2190    0.0540    2.8950 hc        1 QV6      0.038033
     45 HAAB        4.4760    1.8370    3.0780 hc        1 QV6      0.038033
     46 HAB        -0.4630    2.4230   -0.8130 hc        1 QV6      0.037367
     47 HABA       -1.2830    2.5420   -2.4290 hc        1 QV6      0.037367
     48 HABB       -1.4970    3.8570   -1.2030 hc        1 QV6      0.037367
     49 HAC         8.4980    2.4240   -0.8480 hc        1 QV6      0.058033
     50 HACA        7.3160    3.6660   -1.4280 hc        1 QV6      0.058033
     51 HACB        7.7510    3.5880    0.3420 hc        1 QV6      0.058033
     52 HAD        -6.5080    2.8980    1.1990 hc        1 QV6      0.047033
     53 HADA       -5.3370    2.6360    2.5440 hc        1 QV6      0.047033
     54 HADB       -5.1360    4.0670    1.4360 hc        1 QV6      0.047033
     55 HAE        -4.2290   -2.0050   -0.3440 hc        1 QV6      0.064033
     56 HAEA       -5.6530   -1.2160   -1.1340 hc        1 QV6      0.064033
     57 HAEB       -4.1510   -1.4670   -2.0840 hc        1 QV6      0.064033
     58 HAN        -1.3870   -2.4980    5.6330 ha        1 QV6      0.119000
     59 HAO        -3.5740   -2.4370    4.4190 ha        1 QV6      0.144000
     60 HAP         2.6080    0.7840   -1.7840 ha        1 QV6      0.164000
     61 HAQ         0.3410    1.0680   -2.6840 ha        1 QV6      0.148000
     62 HAR         0.7600   -2.3260    4.3580 ha        1 QV6      0.139000
     63 HAS        -3.6380   -2.2370    1.9360 ha        1 QV6      0.222000
     64 HAT         6.0970    2.6470    1.6650 ha        1 QV6      0.112000
     65 HAU        -3.2590    3.8250    0.2070 ha        1 QV6      0.110000
     66 HAV         4.7330   -0.4130   -2.0240 ha        1 QV6      0.170000
     67 HNAW        3.4410   -1.2630    1.1240 hn        1 QV6      0.440800
     68 HNAX       -2.2910   -0.9880   -2.0700 hn        1 QV6      0.393800
     69 CAB        -1.3960    2.7510   -1.3370 c3        1 QV6     -0.046800
@<TRIPOS>BOND
     1    1   24 1   
     2    1   43 1   
     3    1   44 1   
     4    1   45 1   
     5    2   26 1   
     6    2   49 1   
     7    2   50 1   
     8    2   51 1   
     9    3   27 1   
    10    3   52 1   
    11    3   53 1   
    12    3   54 1   
    13    4   28 1   
    14    4   55 1   
    15    4   56 1   
    16    4   57 1   
    17    5   35 2   
    18    6   36 2   
    19    7   41 1   
    20    8   41 1   
    21    9   42 1   
    22   10   42 1   
    23   11   41 1   
    24   12   42 1   
    25   13   14 ar  
    26   13   17 ar  
    27   13   58 1   
    28   14   18 ar  
    29   14   59 1   
    30   15   16 ar  
    31   15   30 ar  
    32   15   60 1   
    33   16   31 ar  
    34   16   61 1   
    35   17   37 ar  
    36   17   62 1   
    37   18   38 ar  
    38   18   63 1   
    39   19   24 ar  
    40   19   26 ar  
    41   19   64 1   
    42   20   25 ar  
    43   20   27 ar  
    44   20   65 1   
    45   21   29 ar  
    46   21   33 ar  
    47   21   66 1   
    48   22   29 1   
    49   22   30 1   
    50   22   67 1   
    51   23   31 1   
    52   23   32 1   
    53   23   68 1   
    54   24   29 ar  
    55   25   32 ar  
    56   25   69 1   
    57   26   33 ar  
    58   27   34 ar  
    59   28   32 ar  
    60   28   34 ar  
    61   30   39 ar  
    62   31   40 ar  
    63   33   41 1   
    64   34   42 1   
    65   35   37 1   
    66   35   39 1   
    67   36   38 1   
    68   36   40 1   
    69   37   38 ar  
    70   39   40 ar  
    71   46   69 1   
    72   47   69 1   
    73   48   69 1   
@<TRIPOS>SUBSTRUCTURE
     1 QV6         1 TEMP              0 ****  ****    0 ROOT
