@<TRIPOS>MOLECULE
QV6
   69    64     1     0     0
SMALL
bcc


@<TRIPOS>ATOM
      1 CAA        -3.5300   -0.0870    5.1670 c3        1 QV6     -0.174000
      2 CAB        -1.7010    1.7270   -3.6240 c3        1 QV6     -0.173000
      3 CAC        -0.8140    2.8370    7.6010 c3        1 QV6     -0.212000
      4 CAD        -0.1950   -0.4250   -7.4690 c3        1 QV6     -0.187000
      5 CAE         3.3230   -0.2010   -4.0400 c3        1 QV6     -0.212000
      6 OAF        -1.2060   -2.0860    2.7710 o         1 QV6     -0.324500
      7 OAG         1.7660   -1.8970   -1.6870 o         1 QV6     -0.324500
      8 OAH         2.4170    3.0440    5.1700 o         1 QV6     -1.068000
      9 OAI         1.0270    4.9350    5.9870 o         1 QV6     -1.068000
     10 OAJ         2.6870    0.5150   -7.7890 o         1 QV6     -1.067333
     11 OAK         2.2550   -1.9370   -7.6040 o         1 QV6     -1.067333
     12 OAL         1.1640    4.6050    3.6900 o         1 QV6     -1.068000
     13 OAM         3.9670   -1.0110   -6.3060 o         1 QV6     -1.067333
     14 CAN         0.5940   -5.6710    1.4410 c1        1 QV6     -0.113000
     15 CAO         1.4540   -5.6000    0.3480 c1        1 QV6     -0.113000
     16 CAP        -1.0060    1.6050    0.6380 c1        1 QV6     -0.135000
     17 CAQ        -0.1820    1.6630   -0.4910 c1        1 QV6     -0.133000
     18 CAR        -0.0860   -4.5500    1.8560 c1        1 QV6     -0.113000
     19 CAS         1.6250   -4.4050   -0.3200 c1        1 QV6     -0.113000
     20 CAT        -2.0550    1.3580    6.0740 c1        1 QV6     -0.171000
     21 CAU        -0.7360    0.6200   -5.2020 c1        1 QV6     -0.180000
     22 CAV        -0.6180    2.1090    3.8000 c1        1 QV6     -0.061000
     23 NAW        -2.0860    0.7130    2.3650 n3        1 QV6     -0.245000
     24 NAX         1.2300    1.0270   -2.0720 n3        1 QV6     -0.239000
     25 CAY        -2.3500    0.7850    4.8380 c1        1 QV6     -0.048000
     26 CAZ        -0.4040    0.9060   -3.8730 c1        1 QV6     -0.044000
     27 CBA        -1.0340    2.3140    6.1790 c2        1 QV6      0.031000
     28 CBB         0.2010   -0.0050   -6.0370 c2        1 QV6      0.026000
     29 CBC         1.7890   -0.0510   -4.2040 c2        1 QV6      0.022000
     30 CBD        -1.6280    1.1630    3.6980 c1        1 QV6     -0.029000
     31 CBE        -1.1310    0.4260    1.3460 c2        1 QV6      0.119000
     32 CBF         0.5100    0.5370   -0.9020 c2        1 QV6      0.116000
     33 CBG         0.8680    0.5650   -3.3780 c2        1 QV6     -0.037000
     34 CBH        -0.3180    2.6900    5.0530 c2        1 QV6     -0.698000
     35 CBI         1.4550   -0.3390   -5.5430 c2        1 QV6     -0.691000
     36 CBJ        -0.6010   -2.0650    1.6930 c1        1 QV6      0.314500
     37 CBK         1.1070   -1.9300   -0.6560 c1        1 QV6      0.314500
     38 CBL         0.0850   -3.3330    1.1780 c1        1 QV6     -0.099000
     39 CBM         0.9310   -3.2620    0.1030 c1        1 QV6     -0.099000
     40 CBN        -0.4260   -0.7310    0.9300 c1        1 QV6     -0.183000
     41 CBO         0.3830   -0.6770   -0.1770 c1        1 QV6     -0.182000
     42 SBP         1.1420    3.8250    4.9790 s6        1 QV6      2.870000
     43 SBQ         2.6120   -0.6620   -6.8540 s6        1 QV6      2.867000
     44 HAA        -3.2480   -0.8000    5.7820 hc        1 QV6      0.077333
     45 HAAA       -3.8830   -0.4880    4.3360 hc        1 QV6      0.077333
     46 HAAB       -4.2300    0.4520    5.5920 hc        1 QV6      0.077333
     47 HAB        -1.4780    2.5570   -3.1110 hc        1 QV6      0.077000
     48 HABA       -2.3660    1.1630   -3.0880 hc        1 QV6      0.077000
     49 HABB       -2.0910    1.9670   -4.4620 hc        1 QV6      0.077000
     50 HAC        -0.8220    3.8100    7.5950 hc        1 QV6      0.097333
     51 HACA        0.0910    2.5060    7.9510 hc        1 QV6      0.097333
     52 HACB       -1.5380    2.5040    8.1910 hc        1 QV6      0.097333
     53 HAD         0.2860   -1.2590   -7.7120 hc        1 QV6      0.090000
     54 HADA       -1.1630   -0.5820   -7.5110 hc        1 QV6      0.090000
     55 HADB        0.0530    0.3010   -8.1100 hc        1 QV6      0.090000
     56 HAE         3.7870    0.4880   -4.5980 hc        1 QV6      0.099000
     57 HAEA        3.5930   -1.0820   -4.3270 hc        1 QV6      0.099000
     58 HAEB        3.5640   -0.0770   -3.1050 hc        1 QV6      0.099000
     59 HAN         0.4760   -6.5090    1.9110 ha        1 QV6      0.138500
     60 HAO         1.9260   -6.3850    0.0590 ha        1 QV6      0.138500
     61 HAP        -1.4460    2.4090    0.9560 ha        1 QV6      0.159000
     62 HAQ        -0.0940    2.5180   -1.0010 ha        1 QV6      0.160000
     63 HAR        -0.7330   -4.6160    2.5900 ha        1 QV6      0.138500
     64 HAS         2.2310   -4.3540   -1.0880 ha        1 QV6      0.138500
     65 HAT        -2.6380    1.1180    6.9150 ha        1 QV6      0.113000
     66 HAU        -1.6410    0.6690   -5.6470 ha        1 QV6      0.112000
     67 HAV        -0.1100    2.3750    3.0000 ha        1 QV6      0.161000
     68 HNAW       -2.9690    0.7040    2.1710 hn        1 QV6      0.238000
     69 HNAX        1.9590    1.5680   -1.9650 hn        1 QV6      0.237000
@<TRIPOS>BOND
     1    1   25 1   
     2    1   44 1   
     3    1   45 1   
     4    1   46 1   
     5    2   26 1   
     6    2   47 1   
     7    2   48 1   
     8    2   49 1   
     9    3   27 1   
    10    3   50 1   
    11    3   51 1   
    12    3   52 1   
    13    4   28 1   
    14    4   53 1   
    15    4   54 1   
    16    4   55 1   
    17    5   29 1   
    18    5   56 1   
    19    5   57 1   
    20    5   58 1   
    21    6   36 1   
    22    7   37 1   
    23    8   42 1   
    24    9   42 1   
    25   10   43 1   
    26   11   43 1   
    27   12   42 1   
    28   13   43 1   
    29   14   18 1   
    30   14   59 1   
    31   15   19 1   
    32   15   60 1   
    33   16   31 1   
    34   16   61 1   
    35   17   32 1   
    36   17   62 1   
    37   18   63 1   
    38   19   64 1   
    39   20   27 1   
    40   20   65 1   
    41   21   28 1   
    42   21   66 1   
    43   22   34 1   
    44   22   67 1   
    45   23   30 1   
    46   23   31 1   
    47   23   68 1   
    48   24   32 1   
    49   24   33 1   
    50   24   69 1   
    51   25   30 1   
    52   26   33 1   
    53   27   34 1   
    54   28   35 1   
    55   29   33 1   
    56   29   35 1   
    57   31   40 1   
    58   32   41 1   
    59   34   42 1   
    60   35   43 1   
    61   36   38 1   
    62   37   39 1   
    63   38   39 1   
    64   40   41 1   
@<TRIPOS>SUBSTRUCTURE
     1 QV6         1 TEMP              0 ****  ****    0 ROOT
