@<TRIPOS>MOLECULE
QV6
   69    87     1     0     0
SMALL
bcc


@<TRIPOS>ATOM
      1 CAA         0.0000    0.0000    0.0000 c3        1 QV6     -0.246000
      2 CAC         4.3320   -0.0010    2.5040 c3        1 QV6     -0.222000
      3 CAD         2.4460   -2.4770  -11.7820 c3        1 QV6     -0.003000
      4 CAE         6.1920   -0.4290   -9.1730 c3        1 QV6     -0.477000
      5 OAF         2.1290   -2.4280   -2.3780 o         1 QV6     -0.231000
      6 OAG         4.7940   -2.0800   -6.9670 o         1 QV6     -0.206000
      7 OAH         6.4950   -0.7300   -1.2490 o         1 QV6     -0.949333
      8 OAI         6.4350   -0.8130    1.1070 o         1 QV6     -0.949333
      9 OAJ         4.6390   -2.1000  -12.9690 o         1 QV6     -0.957667
     10 OAK         5.8480   -3.2520  -11.3050 o         1 QV6     -0.957667
     11 OAL         6.4420    1.3530   -0.1430 o         1 QV6     -0.949333
     12 OAM         6.3140   -0.8620  -11.8680 o         1 QV6     -0.957667
     13 CAN         3.9360   -5.8820   -3.8720 c3        1 QV6      0.082000
     14 CAO         4.6230   -5.7930   -5.0680 DU        1 QV6     -0.018000
     15 CAP         2.2850    1.2920   -4.2960 c3        1 QV6     -0.254000
     16 CAQ         2.9640    1.3810   -5.4760 c2        1 QV6     -0.385000
     17 CAR         3.3190   -4.7680   -3.3330 c2        1 QV6     -0.224000
     18 CAS         4.7090   -4.5870   -5.7400 c2        1 QV6      0.000000
     19 CAT         2.1990    0.0000    1.1960 c2        1 QV6     -0.450000
     20 CAU         2.0300   -1.3140   -9.6060 c2        1 QV6     -0.538000
     21 CAV         3.5920   -0.0010   -1.1980 c2        1 QV6     -0.004000
     22 NAW         1.5070    0.0000   -2.4140 n7        1 QV6     -0.370000
     23 NAX         4.2740    0.3600   -7.2260 n7        1 QV6     -0.093000
     24 CAY         1.5080    0.0000    0.0000 c3        1 QV6      0.101000
     25 CAZ         2.4720   -0.6260   -8.4930 DU        1 QV6     -0.160000
     26 CBA         3.5820   -0.0000    1.1970 c3        1 QV6      0.119000
     27 CBB         2.9320   -1.7200  -10.5730 c3        1 QV6      0.264000
     28 CBC         4.7250   -0.7410   -9.3250 c3        1 QV6      0.062000
     29 CBD         2.2030   -0.0000   -1.2020 c3        1 QV6     -0.280000
     30 CBE         2.2000    0.0760   -3.6110 c3        1 QV6     -0.033000
     31 CBF         3.5890    0.2560   -6.0250 c2        1 QV6      0.209000
     32 CBG         3.8240   -0.3370   -8.3490 c2        1 QV6     -0.169000
     33 CBH         4.2780   -0.0010    0.0010 c2        1 QV6     -0.678000
     34 CBI         4.2770   -1.4340  -10.4330 c2        1 QV6     -0.737000
     35 CBJ         2.7350   -2.3490   -3.4290 c2        1 QV6      0.399000
     36 CBK         4.1810   -2.1610   -5.9200 c2        1 QV6      0.322000
     37 CBL         3.3910   -3.5460   -3.9970 c2        1 QV6     -0.260000
     38 CBM         4.0990   -3.4530   -5.2090 c3        1 QV6      0.018000
     39 CBN         2.8170   -1.0650   -4.1390 c2        1 QV6     -0.236000
     40 CBO         3.5190   -0.9730   -5.3590 c2        1 QV6     -0.276000
     41 SBP         6.0390   -0.0020    0.0090 s6        1 QV6      2.419000
     42 SBQ         5.4190   -1.9480  -11.6710 s6        1 QV6      2.447000
     43 HAA         0.1960    0.0660   -1.0630 hc        1 QV6      0.131000
     44 HAAA       -0.3610    0.0340    1.0210 hc        1 QV6      0.131000
     45 HAAB       -0.3610   -0.9010   -0.4800 hc        1 QV6      0.131000
     46 HAB         1.2120   -0.0300   -6.4020 hc        1 QV6      0.180000
     47 HABA        1.0120    0.0820   -8.3700 hc        1 QV6      0.180000
     48 HABB        1.6980    0.1830   -8.4330 DU        1 QV6      0.344000
     49 HAC         4.0900    0.1360    1.4570 DU        1 QV6      0.257000
     50 HACA        5.1130    0.7490    2.4720 hc        1 QV6      0.073000
     51 HACB        3.6480    0.2240    3.3130 hc        1 QV6      0.073000
     52 HAD         2.6180   -2.3670  -10.7180 DU        1 QV6      0.081000
     53 HADA        1.4150   -2.7750  -11.6320 hc        1 QV6      0.060000
     54 HADB        3.0590   -3.3580  -11.9270 hc        1 QV6      0.060000
     55 HAE         5.4350   -0.7200   -9.8910 DU        1 QV6      0.378000
     56 HAEA        6.4740    0.3350   -9.8860 hc        1 QV6      0.125000
     57 HAEB        6.3830   -0.0740   -8.1680 hc        1 QV6      0.125000
     58 HAN         4.3360   -5.2390   -4.6460 DU        1 QV6     -0.209000
     59 HAO         4.2450   -6.3210   -4.2010 DU        1 QV6      0.171000
     60 HAP         2.6430    0.2810   -4.4460 DU        1 QV6      0.477000
     61 HAQ         2.3740    1.7870   -4.6630 DU        1 QV6      0.237000
     62 HAR         3.2760   -3.7540   -3.7130 ha        1 QV6      0.313000
     63 HAS         4.1560   -4.6630   -4.8110 DU        1 QV6     -0.053000
     64 HAT         2.5440   -0.5110    0.3060 DU        1 QV6      0.265000
     65 HAU         1.9960   -1.1930   -8.5300 DU        1 QV6      0.314000
     66 HAV         3.2970   -0.2440   -2.2110 ha        1 QV6      0.106000
     67 HNAW        2.5020   -0.0000   -2.3090 DU        1 QV6      0.381000
     68 HNAX        3.6360    0.3000   -6.4570 hn        1 QV6      0.135000
     69 CAB         1.4900   -0.1890   -7.4370 c3        1 QV6     -0.633000
@<TRIPOS>BOND
     1    1   24 1   
     2    1   43 1   
     3    1   44 1   
     4    1   45 1   
     5    2   26 1   
     6    2   49 1   
     7    2   50 1   
     8    2   51 1   
     9    3   27 1   
    10    3   52 1   
    11    3   53 1   
    12    3   54 1   
    13    4   28 1   
    14    4   55 1   
    15    4   56 1   
    16    4   57 1   
    17    5   35 1   
    18    6   36 1   
    19    7   41 1   
    20    8   41 1   
    21    9   42 1   
    22   10   42 1   
    23   11   41 1   
    24   12   42 1   
    25   13   14 1   
    26   13   17 1   
    27   13   58 1   
    28   13   59 1   
    29   14   18 1   
    30   14   58 1   
    31   14   59 1   
    32   14   63 1   
    33   15   16 1   
    34   15   30 1   
    35   15   60 1   
    36   15   61 1   
    37   16   31 1   
    38   16   61 1   
    39   17   37 1   
    40   17   62 1   
    41   18   38 1   
    42   18   63 1   
    43   19   24 1   
    44   19   26 1   
    45   19   64 1   
    46   20   25 1   
    47   20   27 1   
    48   20   65 1   
    49   21   29 1   
    50   21   33 1   
    51   21   66 1   
    52   22   29 1   
    53   22   30 1   
    54   22   67 1   
    55   23   31 1   
    56   23   32 1   
    57   23   68 1   
    58   24   29 1   
    59   24   64 1   
    60   25   32 1   
    61   25   48 1   
    62   25   65 1   
    63   25   69 1   
    64   26   33 1   
    65   26   49 1   
    66   27   34 1   
    67   27   52 1   
    68   28   32 1   
    69   28   34 1   
    70   28   55 1   
    71   29   67 1   
    72   30   39 1   
    73   30   60 1   
    74   31   40 1   
    75   33   41 1   
    76   34   42 1   
    77   35   37 1   
    78   35   39 1   
    79   36   38 1   
    80   36   40 1   
    81   37   38 1   
    82   38   63 1   
    83   39   40 1   
    84   46   69 1   
    85   47   69 1   
    86   48   69 1   
    87   58   63 1   
@<TRIPOS>SUBSTRUCTURE
     1 QV6         1 TEMP              0 ****  ****    0 ROOT
