@<TRIPOS>MOLECULE
QV7
   55    56     1     0     0
SMALL
bcc


@<TRIPOS>ATOM
      1 OAA        -1.0200    0.4240   -0.5450 o         1 QV7     -1.067000
      2 OAB         0.6730   -0.8680   -1.5580 o         1 QV7     -1.067000
      3 OAC         5.2250   16.2490   -1.0620 o         1 QV7     -1.081333
      4 OAD         6.8390   17.5730   -2.1930 o         1 QV7     -1.081333
      5 OAE         7.3670    7.5010   -6.6500 o         1 QV7     -1.070333
      6 OAF         5.7040    8.8590   -7.6520 o         1 QV7     -1.070333
      7 OAG         7.9880   16.5920   -9.5940 o         1 QV7     -1.070333
      8 OAH         5.6810   17.1080   -9.7720 o         1 QV7     -1.070333
      9 OAJ         0.2150    1.3080   -2.3520 o         1 QV7     -1.067000
     10 OAK         7.5030   15.6550   -1.0080 o         1 QV7     -1.081333
     11 OAL         5.3540    6.5340   -7.3900 o         1 QV7     -1.070333
     12 OAM         6.6880   15.6360  -11.3090 o         1 QV7     -1.070333
     13 CAN         4.0360    8.0340   -2.6950 c1        1 QV7     -0.129000
     14 CAO         1.6210   -0.3840    2.0700 c1        1 QV7     -0.322000
     15 CAP         2.2390    3.1580   -1.2320 c2        1 QV7     -0.165000
     16 CAQ         4.4170    9.2740   -3.3520 c3        1 QV7     -0.194000
     17 CAR         1.5200    0.2880    1.0820 c1        1 QV7     -0.022000
     18 CAS         2.1710    2.1900   -0.1570 c2        1 QV7      0.005000
     19 CAT         7.0780   14.1370   -3.3360 c2        1 QV7      0.067000
     20 CAU         6.8750   13.2040   -4.4110 c2        1 QV7     -0.203000
     21 CAV         4.8430    6.7790   -4.6190 c2        1 QV7      0.124000
     22 CAW         5.3170   15.5710   -4.1460 c1        1 QV7     -0.049000
     23 CAX         6.3180   14.8150   -8.9770 c1        1 QV7     -0.647000
     24 NAZ         4.0850    5.5450   -2.6720 n2        1 QV7     -0.042000
     25 NBA         5.6460   10.3870   -5.2150 n2        1 QV7     -0.066000
     26 NBB         4.9840   11.1770   -5.8730 n2        1 QV7     -0.000000
     27 CBC         3.0590    4.2240   -1.0970 c2        1 QV7     -0.099000
     28 CBD         4.2830    6.8030   -3.3460 c2        1 QV7     -0.204000
     29 CBE         5.6770   12.6150   -7.7050 c2        1 QV7      0.228000
     30 CBF         5.0780    9.1820   -4.6950 c2        1 QV7      0.119000
     31 CBG         1.4040    1.0820   -0.0750 c2        1 QV7     -0.651000
     32 CBH         6.2920   15.2400   -3.1700 c2        1 QV7     -0.823000
     33 CBI         5.2520    7.9620   -5.3010 c2        1 QV7     -0.797000
     34 CBJ         6.0340   13.8400   -8.3290 c1        1 QV7     -0.068000
     35 CBK         5.5700   12.4110   -6.3520 c2        1 QV7     -0.189000
     36 CBL         5.1200   14.6830   -5.2930 c3        1 QV7     -0.202000
     37 CBM         5.9090   13.4220   -5.3420 c2        1 QV7      0.008000
     38 SBN         0.2100    0.4330   -1.2460 s6        1 QV7      2.872000
     39 SBP         5.9950    7.6970   -6.9020 s6        1 QV7      2.889000
     40 HOAI        5.4030   10.7650   -8.2580 ho        1 QV7      0.288000
     41 HAN         3.4770    9.8970   -3.4520 hc        1 QV7      0.165000
     42 HAO         3.6760    4.3400   -0.1800 h4        1 QV7      0.120000
     43 HAP         1.6070    2.9850   -2.1230 ha        1 QV7      0.198000
     44 HAQ         5.0860    9.8300   -2.6280 hc        1 QV7      0.165000
     45 HAR         1.6840   -1.0000    2.9240 ha        1 QV7      0.192000
     46 HAS         2.8480    2.4170    0.6940 ha        1 QV7      0.078000
     47 HAT         7.8860   13.9160   -2.6120 ha        1 QV7      0.146000
     48 HAU         7.5040   12.3010   -4.4350 ha        1 QV7      0.136000
     49 HAV         4.9810    5.8260   -5.1720 ha        1 QV7      0.167000
     50 HAW         4.0210   14.4480   -5.3690 hc        1 QV7      0.159000
     51 HAX         5.3730   15.3030   -6.2100 hc        1 QV7      0.159000
     52 SBO         6.4570   16.2780   -1.7650 s6        1 QV7      2.881000
     53 OAI         5.4270   11.6580   -8.6560 oh        1 QV7     -0.264000
     54 NAY         3.1280    5.3830   -1.9220 n2        1 QV7     -0.058000
     55 SBQ         6.7020   16.1490   -9.9840 s6        1 QV7      2.897000
@<TRIPOS>BOND
     1    1   38 1   
     2    2   38 1   
     3    3   52 1   
     4    4   52 1   
     5    5   39 1   
     6    6   39 1   
     7    7   55 1   
     8    8   55 1   
     9    9   38 1   
    10   10   52 1   
    11   11   39 1   
    12   12   55 1   
    13   13   16 1   
    14   13   28 1   
    15   14   17 1   
    16   14   45 1   
    17   15   18 1   
    18   15   27 1   
    19   15   43 1   
    20   16   30 1   
    21   16   41 1   
    22   16   44 1   
    23   17   31 1   
    24   18   31 1   
    25   18   46 1   
    26   19   20 1   
    27   19   32 1   
    28   19   47 1   
    29   20   37 1   
    30   20   48 1   
    31   21   28 1   
    32   21   33 1   
    33   21   49 1   
    34   22   32 1   
    35   22   36 1   
    36   23   34 1   
    37   23   55 1   
    38   24   28 1   
    39   24   54 1   
    40   25   26 1   
    41   25   30 1   
    42   26   35 1   
    43   27   42 1   
    44   27   54 1   
    45   29   34 1   
    46   29   35 1   
    47   29   53 1   
    48   30   33 1   
    49   31   38 1   
    50   32   52 1   
    51   33   39 1   
    52   35   37 1   
    53   36   37 1   
    54   36   50 1   
    55   36   51 1   
    56   40   53 1   
@<TRIPOS>SUBSTRUCTURE
     1 QV7         1 TEMP              0 ****  ****    0 ROOT
