@<TRIPOS>MOLECULE
QV7
   55    56     1     0     0
SMALL
bcc


@<TRIPOS>ATOM
      1 OAA         3.7220   -1.0590    0.4380 o         1 QV7     -1.065667
      2 OAB         3.2500    0.2300    2.3560 o         1 QV7     -1.065667
      3 OAC         2.4610   17.3590   -3.6150 o         1 QV7     -1.081667
      4 OAD         4.5000   18.5700   -3.6990 o         1 QV7     -1.081667
      5 OAE         4.9880    6.9210   -7.7920 o         1 QV7     -1.070333
      6 OAF         4.9090    9.2850   -7.8800 o         1 QV7     -1.070333
      7 OAG        10.4490   15.7710   -7.3210 o         1 QV7     -1.068667
      8 OAH         9.1210   16.1080   -9.2550 o         1 QV7     -1.068667
      9 OAJ         4.5640    1.1380    0.6180 o         1 QV7     -1.065667
     10 OAK         4.0610   17.1190   -1.9030 o         1 QV7     -1.081667
     11 OAL         2.9120    8.0190   -7.7290 o         1 QV7     -1.070333
     12 OAM        10.6850   14.3480   -9.1810 o         1 QV7     -1.068667
     13 CAN         4.2600    7.7270   -2.7960 c1        1 QV7     -0.123000
     14 CAO        -0.0310   -0.6650    0.6670 c1        1 QV7     -0.313000
     15 CAP         2.8290    2.9360   -0.9750 c2        1 QV7     -0.119000
     16 CAQ         4.8520    8.9360   -3.3470 c3        1 QV7     -0.194000
     17 CAR         0.9210    0.0300    0.4500 c1        1 QV7     -0.028000
     18 CAS         1.8510    1.9450   -0.5740 c2        1 QV7     -0.012000
     19 CAT         5.2130   15.0270   -3.3810 c2        1 QV7      0.069000
     20 CAU         5.7180   13.8330   -4.0020 c2        1 QV7     -0.205000
     21 CAV         3.7890    6.9580   -5.0550 c2        1 QV7      0.127000
     22 CAW         4.5620   15.9470   -5.5110 c1        1 QV7     -0.048000
     23 CAX         8.6110   14.1230   -7.8030 c1        1 QV7     -0.633000
     24 NAZ         2.9990    5.6110   -3.2210 n2        1 QV7     -0.073000
     25 NBA         5.6480   10.1950   -5.3340 n2        1 QV7     -0.108000
     26 NBB         5.1610   11.3070   -5.5160 n2        1 QV7      0.018000
     27 CBC         2.4420    3.9420   -1.7950 c2        1 QV7     -0.128000
     28 CBD         3.7240    6.7610   -3.6770 c2        1 QV7     -0.194000
     29 CBE         6.9430   12.2790   -6.9730 c2        1 QV7      0.243000
     30 CBF         4.8930    9.0930   -4.8400 c2        1 QV7      0.133000
     31 CBG         2.0370    0.8500    0.1920 c2        1 QV7     -0.636000
     32 CBH         4.5970   16.0140   -4.0950 c2        1 QV7     -0.822000
     33 CBI         4.3620    8.1190   -5.6500 c2        1 QV7     -0.803000
     34 CBJ         7.8030   13.3300   -7.3930 c1        1 QV7     -0.083000
     35 CBK         5.9900   12.3840   -5.9870 c2        1 QV7     -0.199000
     36 CBL         5.1060   14.7710   -6.1910 c3        1 QV7     -0.202000
     37 CBM         5.6410   13.6670   -5.3490 c2        1 QV7      0.036000
     38 SBN         3.5380    0.2390    0.9710 s6        1 QV7      2.871000
     39 SBP         4.2910    8.0960   -7.4310 s6        1 QV7      2.888000
     40 HOAI        6.4650   10.5210   -7.6660 ho        1 QV7      0.292000
     41 HAN         4.2760    9.8090   -2.9120 hc        1 QV7      0.160000
     42 HAO         1.3880    3.9740   -2.1480 h4        1 QV7      0.106000
     43 HAP         3.8630    2.8260   -0.5920 ha        1 QV7      0.200000
     44 HAQ         5.8980    9.0020   -2.9240 hc        1 QV7      0.160000
     45 HAR        -0.8460   -1.3000    0.8790 ha        1 QV7      0.193000
     46 HAS         0.8290    2.1420   -0.9630 ha        1 QV7      0.083000
     47 HAT         5.3100   15.1130   -2.2820 ha        1 QV7      0.144000
     48 HAU         6.1300   13.0490   -3.3500 ha        1 QV7      0.118000
     49 HAV         3.3890    6.2030   -5.7620 ha        1 QV7      0.154000
     50 HAW         4.3060   14.3680   -6.8760 hc        1 QV7      0.160000
     51 HAX         5.9370   15.1530   -6.8620 hc        1 QV7      0.160000
     52 SBO         3.8440   17.3820   -3.2960 s6        1 QV7      2.881000
     53 OAI         7.2310   11.1320   -7.6600 oh        1 QV7     -0.260000
     54 NAY         3.3070    5.0150   -2.1870 n2        1 QV7     -0.048000
     55 SBQ         9.8090   15.1810   -8.4360 s6        1 QV7      2.896000
@<TRIPOS>BOND
     1    1   38 1   
     2    2   38 1   
     3    3   52 1   
     4    4   52 1   
     5    5   39 1   
     6    6   39 1   
     7    7   55 1   
     8    8   55 1   
     9    9   38 1   
    10   10   52 1   
    11   11   39 1   
    12   12   55 1   
    13   13   16 1   
    14   13   28 1   
    15   14   17 1   
    16   14   45 1   
    17   15   18 1   
    18   15   27 1   
    19   15   43 1   
    20   16   30 1   
    21   16   41 1   
    22   16   44 1   
    23   17   31 1   
    24   18   31 1   
    25   18   46 1   
    26   19   20 1   
    27   19   32 1   
    28   19   47 1   
    29   20   37 1   
    30   20   48 1   
    31   21   28 1   
    32   21   33 1   
    33   21   49 1   
    34   22   32 1   
    35   22   36 1   
    36   23   34 1   
    37   23   55 1   
    38   24   28 1   
    39   24   54 1   
    40   25   26 1   
    41   25   30 1   
    42   26   35 1   
    43   27   42 1   
    44   27   54 1   
    45   29   34 1   
    46   29   35 1   
    47   29   53 1   
    48   30   33 1   
    49   31   38 1   
    50   32   52 1   
    51   33   39 1   
    52   35   37 1   
    53   36   37 1   
    54   36   50 1   
    55   36   51 1   
    56   40   53 1   
@<TRIPOS>SUBSTRUCTURE
     1 QV7         1 TEMP              0 ****  ****    0 ROOT
