@<TRIPOS>MOLECULE
QV7
   55    58     1     0     0
SMALL
bcc


@<TRIPOS>ATOM
      1 OAA       -11.4070    1.4610   -1.0820 o         1 QV7     -0.753867
      2 OAB       -11.2290    2.5290    1.0160 o         1 QV7     -0.753867
      3 OAC         7.1870    4.7050   -1.8010 o         1 QV7     -0.760533
      4 OAD         7.7980    4.4900    0.4680 o         1 QV7     -0.760533
      5 OAE        -0.9070   -4.2810   -0.2090 o         1 QV7     -0.744867
      6 OAF         0.9170   -3.2690   -1.3440 o         1 QV7     -0.744867
      7 OAG         5.8940   -3.6450    2.1260 o         1 QV7     -0.751533
      8 OAH         7.7720   -2.6520    1.1350 o         1 QV7     -0.751533
      9 OAJ       -11.5310    0.1790    0.8980 o         1 QV7     -0.753867
     10 OAK         5.8360    5.6760   -0.1310 o         1 QV7     -0.760533
     11 OAL        -1.1940   -3.4550   -2.3890 o         1 QV7     -0.744867
     12 OAM         6.3930   -4.0260   -0.1700 o         1 QV7     -0.751533
     13 CAN        -2.1460    0.6350    0.4620 ca        1 QV7     -0.089000
     14 CAO        -7.0190    2.0720    0.2540 ca        1 QV7     -0.147500
     15 CAP        -7.3050   -0.3310    0.1740 ca        1 QV7     -0.147500
     16 CAQ        -0.7740    0.4440    0.5020 ca        1 QV7     -0.183000
     17 CAR        -8.4020    2.2210    0.2740 ca        1 QV7     -0.055000
     18 CAS        -8.6870   -0.1520    0.2000 ca        1 QV7     -0.055000
     19 CAT         4.4060    3.1650   -0.6030 ca        1 QV7     -0.042000
     20 CAU         3.6310    2.0310   -0.5320 ca        1 QV7     -0.177000
     21 CAV        -2.3920   -1.5430   -0.5580 ca        1 QV7      0.011000
     22 CAW         6.3600    1.9320   -0.0040 ca        1 QV7      0.005000
     23 CAX         6.2070   -0.4970    0.4250 ca        1 QV7      0.007000
     24 NAZ        -4.4200   -0.2830   -0.1450 ne        1 QV7     -0.186400
     25 NBA         1.2120   -0.9960    0.2650 ne        1 QV7     -0.225400
     26 NBB         2.0380   -0.3080   -0.3320 nf        1 QV7     -0.164400
     27 CBC        -6.4440    0.7830    0.2050 ca        1 QV7      0.130400
     28 CBD        -2.9910   -0.3630   -0.0660 ca        1 QV7      0.025400
     29 CBE         4.1120   -1.6530    0.2000 ca        1 QV7      0.293100
     30 CBF        -0.1920   -0.7570    0.0350 ca        1 QV7      0.246400
     31 CBG        -9.2590    1.1190    0.2470 ca        1 QV7     -0.276500
     32 CBH         5.7950    3.1420   -0.3410 ca        1 QV7     -0.327500
     33 CBI        -1.0150   -1.7560   -0.5140 ca        1 QV7     -0.259500
     34 CBJ         5.5180   -1.6780    0.4860 ca        1 QV7     -0.307500
     35 CBK         3.4400   -0.4480   -0.0850 ca        1 QV7     -0.070600
     36 CBL         5.5950    0.7380    0.0760 ca        1 QV7     -0.135000
     37 CBM         4.2030    0.7730   -0.1910 ca        1 QV7      0.083000
     38 SBN       -11.0020    1.3390    0.2730 s6        1 QV7      1.456100
     39 SBP        -0.4810   -3.3360   -1.1690 s6        1 QV7      1.465100
     40 HOAI        2.6640   -2.8780   -0.2440 ho        1 QV7      0.486000
     41 HAN        -2.5640    1.5790    0.8430 ha        1 QV7      0.126000
     42 HAO        -6.3750    2.9630    0.2780 ha        1 QV7      0.131000
     43 HAP        -6.8910   -1.3500    0.1350 ha        1 QV7      0.131000
     44 HAQ        -0.1330    1.2420    0.9070 ha        1 QV7      0.132000
     45 HAR        -8.8420    3.2310    0.3280 ha        1 QV7      0.136000
     46 HAS        -9.3510   -1.0320    0.1930 ha        1 QV7      0.136000
     47 HAT         3.9470    4.1350   -0.8590 ha        1 QV7      0.129000
     48 HAU         2.5570    2.1000   -0.7520 ha        1 QV7      0.129000
     49 HAV        -3.0210   -2.3360   -1.0070 ha        1 QV7      0.156000
     50 HAW         7.4390    1.8790    0.2240 ha        1 QV7      0.135000
     51 HAX         7.2920   -0.4930    0.6500 ha        1 QV7      0.158000
     52 SBO         6.7250    4.6110   -0.4590 s6        1 QV7      1.457100
     53 OAI         3.5150   -2.8720    0.2390 oh        1 QV7     -0.488100
     54 NAY        -5.0070    0.7200    0.2660 nf        1 QV7     -0.253400
     55 SBQ         6.4440   -3.1360    0.9270 s6        1 QV7      1.459100
@<TRIPOS>BOND
     1    1   38 1   
     2    2   38 1   
     3    3   52 1   
     4    4   52 1   
     5    5   39 1   
     6    6   39 1   
     7    7   55 1   
     8    8   55 1   
     9    9   38 1   
    10   10   52 1   
    11   11   39 1   
    12   12   55 1   
    13   13   16 ar  
    14   13   28 ar  
    15   13   41 1   
    16   14   17 ar  
    17   14   27 ar  
    18   14   42 1   
    19   15   18 ar  
    20   15   27 ar  
    21   15   43 1   
    22   16   30 ar  
    23   16   44 1   
    24   17   31 ar  
    25   17   45 1   
    26   18   31 ar  
    27   18   46 1   
    28   19   20 ar  
    29   19   32 ar  
    30   19   47 1   
    31   20   37 ar  
    32   20   48 1   
    33   21   28 ar  
    34   21   33 ar  
    35   21   49 1   
    36   22   32 ar  
    37   22   36 ar  
    38   22   50 1   
    39   23   34 ar  
    40   23   36 ar  
    41   23   51 1   
    42   24   28 1   
    43   24   54 2   
    44   25   26 2   
    45   25   30 1   
    46   26   35 1   
    47   27   54 1   
    48   29   34 ar  
    49   29   35 ar  
    50   29   53 1   
    51   30   33 ar  
    52   31   38 1   
    53   32   52 1   
    54   33   39 1   
    55   34   55 1   
    56   35   37 ar  
    57   36   37 ar  
    58   40   53 1   
@<TRIPOS>SUBSTRUCTURE
     1 QV7         1 TEMP              0 ****  ****    0 ROOT
