@<TRIPOS>MOLECULE
QV7
   55    56     1     0     0
SMALL
bcc


@<TRIPOS>ATOM
      1 OAA         3.7120   -0.9780    0.6150 o         1 QV7     -1.065667
      2 OAB         3.0600    0.3380    2.4620 o         1 QV7     -1.065667
      3 OAC         2.1950   17.2960   -3.9690 o         1 QV7     -1.081667
      4 OAD         4.1980   18.5670   -3.9370 o         1 QV7     -1.081667
      5 OAE         5.3180    6.8510   -7.7010 o         1 QV7     -1.070333
      6 OAF         5.1790    9.2090   -7.8520 o         1 QV7     -1.070333
      7 OAG        10.8830   14.4190   -8.8610 o         1 QV7     -1.068667
      8 OAH        10.4720   15.8750   -7.0580 o         1 QV7     -1.068667
      9 OAJ         4.4700    1.2500    0.8010 o         1 QV7     -1.065667
     10 OAK         3.6730   17.1430   -2.1430 o         1 QV7     -1.081667
     11 OAL         3.2130    7.8890   -7.8110 o         1 QV7     -1.070333
     12 OAM         9.2770   16.1280   -9.0890 o         1 QV7     -1.068667
     13 CAN         4.2150    7.7440   -2.7900 c1        1 QV7     -0.123000
     14 CAO        -0.0590   -0.7030    0.5610 c1        1 QV7     -0.313000
     15 CAP         2.8010    2.9520   -0.9580 c2        1 QV7     -0.119000
     16 CAQ         4.8080    8.9590   -3.3260 c3        1 QV7     -0.194000
     17 CAR         0.8850    0.0180    0.3960 c1        1 QV7     -0.028000
     18 CAS         1.8270    1.9390   -0.6050 c2        1 QV7     -0.012000
     19 CAT         4.9910   15.0560   -3.4830 c2        1 QV7      0.069000
     20 CAU         5.5740   13.8650   -4.0370 c2        1 QV7     -0.205000
     21 CAV         3.9290    6.9120   -5.0570 c2        1 QV7      0.127000
     22 CAW         4.4680   15.9090   -5.6760 c1        1 QV7     -0.048000
     23 CAX         8.7230   14.1600   -7.6290 c1        1 QV7     -0.633000
     24 NAZ         3.0510    5.5800   -3.2520 n2        1 QV7     -0.073000
     25 NBA         5.7070   10.1980   -5.2820 n2        1 QV7     -0.108000
     26 NBB         5.2010   11.2900   -5.5260 n2        1 QV7      0.018000
     27 CBC         2.4430    3.9260   -1.8290 c2        1 QV7     -0.128000
     28 CBD         3.7720    6.7430   -3.6830 c2        1 QV7     -0.194000
     29 CBE         7.0540   12.2840   -6.8750 c2        1 QV7      0.243000
     30 CBF         4.9510    9.0850   -4.8170 c2        1 QV7      0.133000
     31 CBG         1.9910    0.8680    0.2000 c2        1 QV7     -0.636000
     32 CBH         4.3990   16.0070   -4.2630 c2        1 QV7     -0.822000
     33 CBI         4.5080    8.0770   -5.6380 c2        1 QV7     -0.803000
     34 CBJ         7.9110   13.3510   -7.2580 c1        1 QV7     -0.083000
     35 CBK         6.0300   12.3820   -5.9620 c2        1 QV7     -0.199000
     36 CBL         5.0940   14.7350   -6.2860 c3        1 QV7     -0.202000
     37 CBM         5.5980   13.6670   -5.3820 c2        1 QV7      0.036000
     38 SBN         3.4490    0.3250    1.1010 s6        1 QV7      2.871000
     39 SBP         4.5640    8.0130   -7.4190 s6        1 QV7      2.888000
     40 HOAI        6.6790   10.4980   -7.5570 ho        1 QV7      0.292000
     41 HAN         4.1770    9.8220   -2.9540 hc        1 QV7      0.160000
     42 HAO         1.4180    3.9160   -2.2580 h4        1 QV7      0.106000
     43 HAP         3.8070    2.8850   -0.4990 ha        1 QV7      0.200000
     44 HAQ         5.8190    9.0660   -2.8320 hc        1 QV7      0.160000
     45 HAR        -0.8670   -1.3600    0.7300 ha        1 QV7      0.193000
     46 HAS         0.8310    2.0930   -1.0720 ha        1 QV7      0.083000
     47 HAT         5.0050   15.1690   -2.3820 ha        1 QV7      0.144000
     48 HAU         5.9610   13.1090   -3.3390 ha        1 QV7      0.118000
     49 HAV         3.6030    6.1290   -5.7730 ha        1 QV7      0.154000
     50 HAW         4.3570   14.2930   -7.0170 hc        1 QV7      0.160000
     51 HAX         5.9600   15.1270   -6.9050 hc        1 QV7      0.160000
     52 SBO         3.5500   17.3680   -3.5530 s6        1 QV7      2.881000
     53 OAI         7.4240   11.1310   -7.5120 oh        1 QV7     -0.260000
     54 NAY         3.3020    5.0180   -2.1850 n2        1 QV7     -0.048000
     55 SBQ         9.9310   15.2410   -8.2010 s6        1 QV7      2.896000
@<TRIPOS>BOND
     1    1   38 1   
     2    2   38 1   
     3    3   52 1   
     4    4   52 1   
     5    5   39 1   
     6    6   39 1   
     7    7   55 1   
     8    8   55 1   
     9    9   38 1   
    10   10   52 1   
    11   11   39 1   
    12   12   55 1   
    13   13   16 1   
    14   13   28 1   
    15   14   17 1   
    16   14   45 1   
    17   15   18 1   
    18   15   27 1   
    19   15   43 1   
    20   16   30 1   
    21   16   41 1   
    22   16   44 1   
    23   17   31 1   
    24   18   31 1   
    25   18   46 1   
    26   19   20 1   
    27   19   32 1   
    28   19   47 1   
    29   20   37 1   
    30   20   48 1   
    31   21   28 1   
    32   21   33 1   
    33   21   49 1   
    34   22   32 1   
    35   22   36 1   
    36   23   34 1   
    37   23   55 1   
    38   24   28 1   
    39   24   54 1   
    40   25   26 1   
    41   25   30 1   
    42   26   35 1   
    43   27   42 1   
    44   27   54 1   
    45   29   34 1   
    46   29   35 1   
    47   29   53 1   
    48   30   33 1   
    49   31   38 1   
    50   32   52 1   
    51   33   39 1   
    52   35   37 1   
    53   36   37 1   
    54   36   50 1   
    55   36   51 1   
    56   40   53 1   
@<TRIPOS>SUBSTRUCTURE
     1 QV7         1 TEMP              0 ****  ****    0 ROOT
