@<TRIPOS>MOLECULE
QV8
   39    50     1     0     0
SMALL
bcc


@<TRIPOS>ATOM
      1 OAA         0.0000    0.0000    0.0000 o         1 QV8     -0.217000
      2 OAB         2.4200   -0.0080    4.6600 o         1 QV8     -0.243000
      3 OAC        -4.3830    1.1800    2.0250 o         1 QV8     -0.927333
      4 OAD        -3.9630    3.2790    3.0110 o         1 QV8     -0.927333
      5 OAE        -4.4500    1.5180    4.5010 o         1 QV8     -0.927333
      6 CAF         2.8260    4.1950    7.0100 c3        1 QV8      0.411000
      7 CAG         2.2570    4.1690    5.7490 c3        1 QV8     -0.199000
      8 CAH         2.6000    3.1580    7.8960 c2        1 QV8      0.041000
      9 CAI         4.1960    0.0000    0.0000 c3        1 QV8      0.085000
     10 CAJ         4.8340    0.0000    1.2270 DU        1 QV8     -0.122000
     11 CAK         1.4550    3.1080    5.3750 c2        1 QV8     -0.350000
     12 CAL         1.8040    2.0920    7.5250 c2        1 QV8     -0.331000
     13 CAM         2.8170    0.0800   -0.0740 c2        1 QV8     -0.120000
     14 CAN         4.1010    0.0770    2.3990 c2        1 QV8      0.034000
     15 CAO        -1.5590    1.3350    4.5510 ca        1 QV8      0.107000
     16 CAP        -1.4960    0.9850    2.1750 ca        1 QV8      0.117000
     17 NAQ         0.4160    0.9900    5.8860 nu        1 QV8     -0.330000
     18 CAR         1.2210    2.0670    6.2650 c2        1 QV8      0.230000
     19 CAS        -2.1880    1.3400    3.3250 ca        1 QV8     -0.385000
     20 CAT        -0.2140    0.9950    4.6500 ca        1 QV8      0.502000
     21 CAU         0.5900    0.2390    1.0350 c2        1 QV8      0.375000
     22 CAV         1.9130    0.2410    3.5830 c2        1 QV8      0.334000
     23 CAW         2.0660    0.1530    1.0940 c3        1 QV8     -0.001000
     24 CAX         2.7140    0.1570    2.3420 c3        1 QV8     -0.133000
     25 CAY        -0.1590    0.6200    2.2530 ca        1 QV8     -0.262000
     26 CAZ         0.4940    0.6290    3.5000 ca        1 QV8     -0.249000
     27 HAF         1.9280    3.8830    6.4900 DU        1 QV8      0.069500
     28 HAG         2.8620    4.6050    6.5350 DU        1 QV8      0.069500
     29 HAH         2.5500    3.7420    6.9850 ha        1 QV8     -0.439000
     30 HAI         4.0660    0.3620    1.0130 DU        1 QV8     -0.085000
     31 HAJ         4.8090   -0.0310    0.1450 DU        1 QV8      0.165000
     32 HAK         2.1620    2.6060    4.7250 ha        1 QV8      0.128000
     33 HAL         1.5480    2.4110    6.5220 ha        1 QV8      0.205000
     34 HAM         2.6610    0.2360    0.9870 DU        1 QV8      0.120000
     35 HAN         3.6050    0.1030    1.4360 DU        1 QV8     -0.121000
     36 HAO        -0.5190    1.1080    4.3500 ha        1 QV8     -0.358000
     37 HAP        -1.6950    1.1800    3.2220 ha        1 QV8      0.040000
     38 HNAQ       -0.0430    0.9930    4.9970 hn        1 QV8      0.271000
     39 SBA        -3.8920    1.7730    3.2190 s6        1 QV8      2.425000
@<TRIPOS>BOND
     1    1   21 1   
     2    2   22 1   
     3    3   39 1   
     4    4   39 1   
     5    5   39 1   
     6    6    7 1   
     7    6    8 1   
     8    6   27 1   
     9    6   28 1   
    10    7   11 1   
    11    7   27 1   
    12    7   28 1   
    13    8   12 1   
    14    8   29 1   
    15    9   10 1   
    16    9   13 1   
    17    9   30 1   
    18    9   31 1   
    19   10   14 1   
    20   10   30 1   
    21   10   31 1   
    22   10   35 1   
    23   11   18 1   
    24   11   32 1   
    25   12   18 1   
    26   12   33 1   
    27   13   23 1   
    28   13   34 1   
    29   14   24 1   
    30   14   35 1   
    31   15   19 1   
    32   15   20 1   
    33   15   36 1   
    34   16   19 1   
    35   16   25 1   
    36   16   37 1   
    37   17   18 1   
    38   17   20 1   
    39   17   38 1   
    40   19   39 1   
    41   20   26 1   
    42   21   23 1   
    43   21   25 1   
    44   22   24 1   
    45   22   26 1   
    46   23   24 1   
    47   23   34 1   
    48   24   35 1   
    49   25   26 1   
    50   30   35 1   
@<TRIPOS>SUBSTRUCTURE
     1 QV8         1 TEMP              0 ****  ****    0 ROOT
