@<TRIPOS>MOLECULE
QV8
   40    36     1     0     0
SMALL
bcc


@<TRIPOS>ATOM
      1 OAA         0.1470   -0.4280    0.7980 o         1 QV8     -0.255000
      2 OAB         3.7710    1.5400    4.2690 o         1 QV8     -0.356000
      3 OAC        -2.5670    3.5230    1.7010 o         1 QV8     -0.995000
      4 OAD        -2.0370    3.1770    3.9720 o         1 QV8     -0.995000
      5 OAE        -3.4080    1.6380    2.8350 o         1 QV8     -0.995000
      6 CAF         4.5860    2.8080    6.8770 c1        1 QV8      0.383500
      7 CAG        -0.6340    4.7460    7.9650 c3        1 QV8     -0.184000
      8 CAH         5.8470    2.6780    7.0670 c1        1 QV8     -0.758000
      9 CAI         4.8330   -2.3230   -1.7790 c2        1 QV8     -0.527000
     10 CAJ         5.6640    0.5690    2.9940 c1        1 QV8      0.276000
     11 CAK        -0.1500    3.9820    6.8000 c2        1 QV8     -0.171000
     12 CAL         7.1200    2.5300    7.2260 c1        1 QV8      0.383500
     13 CAM         4.7670   -1.6060   -0.6960 c1        1 QV8      0.135000
     14 CAN         4.7340    0.1770    2.1380 c2        1 QV8     -0.492000
     15 CAO        -5.3820   -0.9410    3.3500 c1        1 QV8     -0.230500
     16 CAP        -0.6510    1.6730    2.4880 c1        1 QV8     -0.054000
     17 NAQ         1.6780    2.7500    5.7000 n3        1 QV8     -0.190000
     18 CAR         1.1030    3.4900    6.7480 c2        1 QV8     -0.094000
     19 CAS        -6.0890   -1.8690    3.6140 c1        1 QV8     -0.230500
     20 CAT         0.9850    2.2690    4.6590 c2        1 QV8      0.126000
     21 CAU         0.9840    0.1520    1.4950 ca        1 QV8      0.325000
     22 CAV         2.8930    1.2060    3.4440 ca        1 QV8      0.313000
     23 CAW         2.4210   -0.0660    1.3660 ca        1 QV8     -0.209000
     24 CAX         3.3140    0.4110    2.2530 ca        1 QV8      0.035000
     25 CAY         0.5580    1.1520    2.5360 ca        1 QV8     -0.156000
     26 CAZ         1.4970    1.5450    3.5740 ca        1 QV8     -0.332000
     27 HAF        -1.5190    4.2280    8.4160 hc        1 QV8      0.088667
     28 HAG        -0.9590    5.7660    7.6390 hc        1 QV8      0.088667
     29 HAH         0.1480    4.8600    8.7560 hc        1 QV8      0.088667
     30 HAI         4.9860   -1.8990   -2.7860 ha        1 QV8      0.201000
     31 HAJ         4.7380   -3.4220   -1.7930 ha        1 QV8      0.201000
     32 HAK        -0.8890    3.8500    5.9860 ha        1 QV8      0.171000
     33 HAL         1.8280    3.6500    7.5730 h4        1 QV8      0.158000
     34 HAM         2.7400   -0.6700    0.4950 ha        1 QV8      0.180000
     35 HAN         5.0560   -0.3990    1.2330 ha        1 QV8      0.233000
     36 HAO        -0.1160    2.4790    4.6810 h4        1 QV8      0.191000
     37 HAP        -6.7150   -2.6910    3.8470 ha        1 QV8      0.230000
     38 HNAQ       -4.7510   -0.1130    3.1140 ha        1 QV8      0.230000
     39 HAQ2        2.6760    2.5940    5.7660 hn        1 QV8      0.292000
     40 SBA        -2.5620    2.7050    2.7880 s4        1 QV8      2.895000
@<TRIPOS>BOND
     1    1   21 1   
     2    2   22 1   
     3    3   40 1   
     4    4   40 1   
     5    5   40 1   
     6    6    8 1   
     7    7   11 1   
     8    7   27 1   
     9    7   28 1   
    10    7   29 1   
    11    8   12 1   
    12    9   13 1   
    13    9   30 1   
    14    9   31 1   
    15   10   14 1   
    16   11   18 1   
    17   11   32 1   
    18   14   24 1   
    19   14   35 1   
    20   15   19 1   
    21   15   38 1   
    22   16   25 1   
    23   17   18 1   
    24   17   20 1   
    25   17   39 1   
    26   18   33 1   
    27   19   37 1   
    28   20   26 1   
    29   20   36 1   
    30   21   23 1   
    31   21   25 1   
    32   22   24 1   
    33   22   26 1   
    34   23   24 1   
    35   23   34 1   
    36   25   26 1   
@<TRIPOS>SUBSTRUCTURE
     1 QV8         1 TEMP              0 ****  ****    0 ROOT
