@<TRIPOS>MOLECULE
QV8
   39    42     1     0     0
SMALL
bcc


@<TRIPOS>ATOM
      1 OAA        -0.0490   -3.9830    0.3750 o         1 QV8     -0.528100
      2 OAB         2.7090    0.2900    1.6990 o         1 QV8     -0.573100
      3 OAC        -4.2470   -1.4860   -0.5480 o         1 QV8     -0.734867
      4 OAD        -3.6250    0.2160   -2.0700 o         1 QV8     -0.734867
      5 OAE        -4.3250    0.7940    0.1100 o         1 QV8     -0.734867
      6 CAF         0.8300    5.5290   -1.3650 ca        1 QV8     -0.184000
      7 CAG         0.1420    4.4170   -1.8470 ca        1 QV8     -0.098000
      8 CAH         1.4660    5.4540   -0.1280 ca        1 QV8     -0.098000
      9 CAI         4.1390   -4.0890   -0.2420 ca        1 QV8     -0.128000
     10 CAJ         4.8600   -2.9410    0.0850 ca        1 QV8     -0.131000
     11 CAK         0.0830    3.2390   -1.1110 ca        1 QV8     -0.187000
     12 CAL         1.4170    4.2890    0.6280 ca        1 QV8     -0.187000
     13 CAM         2.7480   -4.0890   -0.1540 ca        1 QV8     -0.094000
     14 CAN         4.1910   -1.7910    0.5010 ca        1 QV8     -0.094000
     15 CAO        -1.3500    0.8630    0.1800 ca        1 QV8     -0.054000
     16 CAP        -1.3870   -1.5200   -0.0770 ca        1 QV8     -0.014000
     17 NAQ         0.6420    2.0220    0.9750 nh        1 QV8     -0.637000
     18 CAR         0.7090    3.1540    0.1530 ca        1 QV8      0.173600
     19 CAS        -2.0360   -0.2840   -0.1590 ca        1 QV8     -0.203500
     20 CAT         0.0160    0.8260    0.5800 ca        1 QV8      0.164600
     21 CAU         0.5910   -2.9230    0.3260 c         1 QV8      0.586300
     22 CAV         2.0890   -0.5540    1.0280 c         1 QV8      0.598300
     23 CAW         2.0710   -2.9340    0.2490 ca        1 QV8     -0.120600
     24 CAX         2.7940   -1.7800    0.5800 ca        1 QV8     -0.123600
     25 CAY        -0.0500   -1.5950    0.3030 ca        1 QV8     -0.154600
     26 CAZ         0.6770   -0.4260    0.6340 ca        1 QV8     -0.178600
     27 HAF         0.8690    6.4550   -1.9540 ha        1 QV8      0.120000
     28 HAG        -0.3630    4.4630   -2.8240 ha        1 QV8      0.124000
     29 HAH         2.0150    6.3250    0.2610 ha        1 QV8      0.124000
     30 HAI         4.6670   -4.9970   -0.5680 ha        1 QV8      0.129000
     31 HAJ         5.9570   -2.9410    0.0170 ha        1 QV8      0.128000
     32 HAK        -0.4600    2.3740   -1.5270 ha        1 QV8      0.144000
     33 HAL         1.9270    4.2550    1.6020 ha        1 QV8      0.144000
     34 HAM         2.1650   -4.9920   -0.3980 ha        1 QV8      0.155000
     35 HAN         4.7500   -0.8820    0.7770 ha        1 QV8      0.151000
     36 HAO        -1.8870    1.8300    0.1600 ha        1 QV8      0.168000
     37 HAP        -1.9520   -2.4430   -0.3090 ha        1 QV8      0.179000
     38 HNAQ        1.4130    1.9170    1.6040 hn        1 QV8      0.443800
     39 SBA        -3.7500   -0.1820   -0.7250 s6        1 QV8      1.458100
@<TRIPOS>BOND
     1    1   21 2   
     2    2   22 2   
     3    3   39 1   
     4    4   39 1   
     5    5   39 1   
     6    6    7 ar  
     7    6    8 ar  
     8    6   27 1   
     9    7   11 ar  
    10    7   28 1   
    11    8   12 ar  
    12    8   29 1   
    13    9   10 ar  
    14    9   13 ar  
    15    9   30 1   
    16   10   14 ar  
    17   10   31 1   
    18   11   18 ar  
    19   11   32 1   
    20   12   18 ar  
    21   12   33 1   
    22   13   23 ar  
    23   13   34 1   
    24   14   24 ar  
    25   14   35 1   
    26   15   19 ar  
    27   15   20 ar  
    28   15   36 1   
    29   16   19 ar  
    30   16   25 ar  
    31   16   37 1   
    32   17   18 1   
    33   17   20 1   
    34   17   38 1   
    35   19   39 1   
    36   20   26 ar  
    37   21   23 1   
    38   21   25 1   
    39   22   24 1   
    40   22   26 1   
    41   23   24 ar  
    42   25   26 ar  
@<TRIPOS>SUBSTRUCTURE
     1 QV8         1 TEMP              0 ****  ****    0 ROOT
