@<TRIPOS>MOLECULE
QWE
   82    85     1     0     0
SMALL
bcc


@<TRIPOS>ATOM
      1 C1         -1.4710   -2.5980    0.2190 ca        1 QWE     -0.415500
      2 C2         -1.8820   -3.1000   -1.0070 ca        1 QWE      0.011000
      3 C3         -0.9730   -3.6590   -1.9170 ca        1 QWE     -0.194000
      4 C4          0.3690   -3.7070   -1.6060 ca        1 QWE     -0.008000
      5 C4A         0.8440   -3.2330   -0.3560 ca        1 QWE     -0.067000
      6 C5          2.2500   -3.2600   -0.0210 ca        1 QWE      0.154600
      7 C6          2.6540   -2.7830    1.2200 ca        1 QWE     -0.179000
      8 C7          1.7130   -2.3060    2.1530 ca        1 QWE     -0.060000
      9 C8          0.3750   -2.2730    1.8510 ca        1 QWE     -0.189000
     10 C8A        -0.0900   -2.7030    0.5770 ca        1 QWE      0.079000
     11 N           3.1790   -3.7190   -1.0010 nh        1 QWE     -0.646000
     12 CM1         4.4680   -3.0630   -0.9770 c3        1 QWE      0.158600
     13 CM2         3.2700   -5.1610   -1.1060 c3        1 QWE      0.158600
     14 S          -2.6140   -1.8760    1.2030 sy        1 QWE      1.521200
     15 O1S        -3.8770   -1.9270    0.5430 o         1 QWE     -0.669300
     16 O2S        -2.6120   -2.3890    2.5140 o         1 QWE     -0.669300
     17 N1         -2.1480   -0.3180    1.2730 n3        1 QWE     -0.910100
     18 CA         -2.2830    0.6370    0.2120 c3        1 QWE      0.200500
     19 C          -1.0370    1.5660    0.1590 c         1 QWE      0.644100
     20 O          -0.6370    2.0780    1.2250 o         1 QWE     -0.605100
     21 CB         -3.4960    1.5820    0.3540 c3        1 QWE     -0.096400
     22 CG         -4.7870    0.7980    0.4100 c3        1 QWE     -0.101400
     23 CD         -5.9870    1.7440    0.4170 c3        1 QWE      0.021300
     24 NE         -7.2310    1.0080    0.5420 nh        1 QWE     -0.394100
     25 CZ         -8.4610    1.6100    0.6640 cz        1 QWE      0.520300
     26 NH1        -8.5850    2.9810    0.6160 nh        1 QWE     -0.510200
     27 NH2        -9.5890    0.8300    0.8240 nh        1 QWE     -0.510200
     28 N11        -0.4360    1.8490   -1.0510 n         1 QWE     -0.452800
     29 C21         0.8010    2.6240   -1.0650 c3        1 QWE      0.102700
     30 C31         0.8830    3.6020   -2.2520 c3        1 QWE     -0.085400
     31 C41         0.0930    3.1850   -3.4750 c3        1 QWE     -0.074400
     32 C51        -0.1210    1.6900   -3.5190 c3        1 QWE     -0.086400
     33 C61        -0.8660    1.2110   -2.2740 c3        1 QWE      0.097000
     34 C1'         2.0580    1.7320   -1.0110 c3        1 QWE     -0.095400
     35 C2'         3.2290    2.4900   -0.4230 c3        1 QWE     -0.163400
     36 S1          7.1990    1.5200    0.2570 ss        1 QWE      0.056700
     37 O2          4.4870    0.4460   -0.6590 o         1 QWE     -0.547100
     38 C52         7.9150    2.8830    0.8560 cc        1 QWE     -0.267400
     39 C22         5.6830    2.3140    0.1560 cc        1 QWE      0.254900
     40 C2'1        4.4630    1.6410   -0.3410 c         1 QWE      0.511600
     41 C42         6.9840    3.9200    0.9700 cd        1 QWE      0.326200
     42 N3          5.7110    3.5970    0.5700 nd        1 QWE     -0.605000
     43 H2         -2.9530   -3.0550   -1.2840 ha        1 QWE      0.155000
     44 H3         -1.3390   -4.0490   -2.8790 ha        1 QWE      0.147000
     45 H4          1.0800   -4.1140   -2.3450 ha        1 QWE      0.160000
     46 H6          3.7200   -2.7710    1.5000 ha        1 QWE      0.148000
     47 H7          2.0680   -1.9690    3.1400 ha        1 QWE      0.144000
     48 H8         -0.3440   -1.9460    2.6190 ha        1 QWE      0.147000
     49 HM11        5.1360   -3.4300   -0.1490 h1        1 QWE      0.044367
     50 HM12        4.9730   -3.2730   -1.9570 h1        1 QWE      0.044367
     51 HM13        4.3280   -1.9540   -0.8680 h1        1 QWE      0.044367
     52 HM21        2.2430   -5.6090   -1.0880 h1        1 QWE      0.044367
     53 HM22        3.7610   -5.4050   -2.0850 h1        1 QWE      0.044367
     54 HM23        3.8750   -5.6200   -0.2780 h1        1 QWE      0.044367
     55 H          -1.6930    0.0520    2.0800 hn        1 QWE      0.470800
     56 HA         -2.4080    0.0540   -0.7500 h1        1 QWE      0.067700
     57 HB2        -3.3740    2.2070    1.2780 hc        1 QWE      0.065200
     58 HB3        -3.4960    2.2690   -0.5320 hc        1 QWE      0.065200
     59 HG2        -4.8460    0.0950   -0.4650 hc        1 QWE      0.083200
     60 HG3        -4.8040    0.1610    1.3370 hc        1 QWE      0.083200
     61 HD2        -5.8860    2.4610    1.2840 h1        1 QWE      0.063700
     62 HD3        -6.0060    2.3370   -0.5430 h1        1 QWE      0.063700
     63 HE         -7.1620    0.0090    0.5870 hn        1 QWE      0.334700
     64 HH11       -7.7840    3.5590    0.5060 hn        1 QWE      0.325950
     65 HH12       -9.4750    3.4160    0.7060 hn        1 QWE      0.325950
     66 HH21       -9.5210   -0.1610    0.8670 hn        1 QWE      0.325950
     67 HH22      -10.4890    1.2440    0.8990 hn        1 QWE      0.325950
     68 H21         0.7970    3.2500   -0.1170 h1        1 QWE      0.087700
     69 H31         0.5180    4.6060   -1.9110 hc        1 QWE      0.054200
     70 H32         1.9630    3.7220   -2.5290 hc        1 QWE      0.054200
     71 H41        -0.9050    3.6990   -3.4730 hc        1 QWE      0.047200
     72 H42         0.6310    3.5160   -4.4020 hc        1 QWE      0.047200
     73 H51        -0.7280    1.4090   -4.4190 hc        1 QWE      0.058200
     74 H52         0.8660    1.1650   -3.5990 hc        1 QWE      0.058200
     75 H61        -0.7380    0.0920   -2.1920 h1        1 QWE      0.033700
     76 H62        -1.9660    1.4280   -2.4130 h1        1 QWE      0.033700
     77 H1'1        1.8670    0.8260   -0.3780 hc        1 QWE      0.060700
     78 H1'2        2.3200    1.3670   -2.0370 hc        1 QWE      0.060700
     79 H2'1        3.4610    3.4010   -1.0400 hc        1 QWE      0.087200
     80 H2'2        2.9810    2.8470    0.6140 hc        1 QWE      0.087200
     81 H43         7.1870    4.9320    1.3390 h4        1 QWE      0.053100
     82 H5          8.9670    2.9670    1.1270 h4        1 QWE      0.191000
@<TRIPOS>BOND
     1    1    2 ar  
     2    1   10 ar  
     3    1   14 1   
     4    2    3 ar  
     5    2   43 1   
     6    3    4 ar  
     7    3   44 1   
     8    4    5 ar  
     9    4   45 1   
    10    5    6 ar  
    11    5   10 ar  
    12    6    7 ar  
    13    6   11 1   
    14    7    8 ar  
    15    7   46 1   
    16    8    9 ar  
    17    8   47 1   
    18    9   10 ar  
    19    9   48 1   
    20   11   12 1   
    21   11   13 1   
    22   12   49 1   
    23   12   50 1   
    24   12   51 1   
    25   13   52 1   
    26   13   53 1   
    27   13   54 1   
    28   14   15 2   
    29   14   16 2   
    30   14   17 1   
    31   17   18 1   
    32   17   55 1   
    33   18   19 1   
    34   18   21 1   
    35   18   56 1   
    36   19   20 2   
    37   19   28 1   
    38   21   22 1   
    39   21   57 1   
    40   21   58 1   
    41   22   23 1   
    42   22   59 1   
    43   22   60 1   
    44   23   24 1   
    45   23   61 1   
    46   23   62 1   
    47   24   25 2   
    48   24   63 1   
    49   25   26 1   
    50   25   27 1   
    51   26   64 1   
    52   26   65 1   
    53   27   66 1   
    54   27   67 1   
    55   28   29 1   
    56   28   33 1   
    57   29   30 1   
    58   29   34 1   
    59   29   68 1   
    60   30   31 1   
    61   30   69 1   
    62   30   70 1   
    63   31   32 1   
    64   31   71 1   
    65   31   72 1   
    66   32   33 1   
    67   32   73 1   
    68   32   74 1   
    69   33   75 1   
    70   33   76 1   
    71   34   35 1   
    72   34   77 1   
    73   34   78 1   
    74   35   40 1   
    75   35   79 1   
    76   35   80 1   
    77   36   38 1   
    78   36   39 1   
    79   37   40 2   
    80   38   41 2   
    81   38   82 1   
    82   39   40 1   
    83   39   42 2   
    84   41   42 1   
    85   41   81 1   
@<TRIPOS>SUBSTRUCTURE
     1 QWE         1 TEMP              0 ****  ****    0 ROOT
