@<TRIPOS>MOLECULE
QWE
   82    75     1     0     0
SMALL
bcc


@<TRIPOS>ATOM
      1 C1          0.5490   -3.2380    0.4870 c1        1 QWE     -0.868000
      2 C2         -0.7120   -3.0060   -0.0300 c1        1 QWE      0.025000
      3 C3         -1.7820   -3.8280    0.3400 c1        1 QWE     -0.108250
      4 C4         -1.5750   -4.8830    1.2320 c1        1 QWE     -0.108250
      5 C4A        -0.2890   -5.1190    1.7580 c1        1 QWE     -0.073000
      6 C5         -0.0740   -6.2020    2.6630 c1        1 QWE      0.083000
      7 C6          1.1900   -6.4350    3.1720 c1        1 QWE     -0.108250
      8 C7          2.2580   -5.6090    2.7980 c1        1 QWE     -0.108250
      9 C8          2.0460   -4.5500    1.9120 c1        1 QWE     -0.196000
     10 C8A         0.7600   -4.3110    1.3940 c1        1 QWE      0.087000
     11 N          -0.8330   -7.3510    3.0790 n3        1 QWE     -0.251000
     12 CM1        -0.6170   -8.6310    2.4340 c3        1 QWE     -0.112000
     13 CM2        -1.9380   -7.1950    4.0690 c3        1 QWE     -0.112000
     14 S           1.4580   -1.8850   -0.3320 s4        1 QWE      2.100800
     15 O1S         2.7640   -1.6760    0.2840 o         1 QWE     -0.591900
     16 O2S         1.8370   -2.2480   -1.6790 o         1 QWE     -0.591900
     17 N1          0.5170   -0.4380   -0.3170 n2        1 QWE     -0.894000
     18 CA          1.0870    0.7910   -0.7770 c3        1 QWE      0.026000
     19 C           0.6930    1.9130    0.1580 c2        1 QWE      0.287000
     20 O          -0.3100    1.8110    0.8420 o         1 QWE     -0.341000
     21 CB          0.5710    1.1020   -2.2110 c3        1 QWE     -0.182000
     22 CG          0.7420   -0.1470   -3.1030 c3        1 QWE     -0.195000
     23 CD          0.0230    0.0710   -4.4190 c3        1 QWE     -0.045000
     24 NE          0.1940   -1.1000   -5.2650 n3        1 QWE     -0.309000
     25 CZ         -0.6890   -1.3360   -6.3630 c2        1 QWE      0.370000
     26 NH1        -2.1280   -1.4100   -6.1400 n3        1 QWE     -0.324000
     27 NH2        -0.2090   -1.4880   -7.5600 n2        1 QWE     -0.376000
     28 N11         1.4490    3.1910    0.1400 n         1 QWE     -0.302000
     29 C21         1.0190    4.4190    0.9530 c3        1 QWE      0.021000
     30 C31         2.3010    4.5030    1.8480 c3        1 QWE     -0.184000
     31 C41         3.5480    4.7320    1.0590 c3        1 QWE     -0.159000
     32 C51         3.3730    4.4190   -0.2220 c3        1 QWE     -0.174000
     33 C61         2.6600    3.3810   -0.6620 c3        1 QWE     -0.034000
     34 C1'        -0.0890    4.1750    1.6850 c3        1 QWE     -0.163000
     35 C2'        -0.8380    5.5070    1.9570 c3        1 QWE     -0.192000
     36 S1         -4.8590    6.3280    1.9750 ss        1 QWE      0.647000
     37 O2         -2.7690    4.0920    1.9930 o         1 QWE     -0.297000
     38 C52        -5.4110    7.7530    1.9280 c1        1 QWE     -0.475000
     39 C22        -3.3170    6.4260    1.9940 c1        1 QWE     -0.412000
     40 C2'1       -2.3400    5.2490    2.0020 c1        1 QWE      0.309000
     41 C42        -4.2860    8.6640    1.9180 c1        1 QWE     -0.139000
     42 N3         -2.9630    7.8160    1.9600 n2        1 QWE     -0.082000
     43 H2         -0.8570   -2.2610   -0.6610 ha        1 QWE      0.154000
     44 H3         -2.6930   -3.6590   -0.0330 ha        1 QWE      0.152250
     45 H4         -2.3170   -5.4540    1.4890 ha        1 QWE      0.152250
     46 H6          1.3410   -7.1910    3.8040 ha        1 QWE      0.152250
     47 H7          3.1430   -5.7710    3.1540 ha        1 QWE      0.152250
     48 H8          2.7960   -3.9700    1.6510 ha        1 QWE      0.148000
     49 HM11       -0.0260   -9.1940    3.0010 h1        1 QWE      0.083833
     50 HM12       -1.4650   -9.0760    2.3100 h1        1 QWE      0.083833
     51 HM13       -0.1890   -8.4860    1.5530 h1        1 QWE      0.083833
     52 HM21       -1.7190   -7.6730    4.8730 h1        1 QWE      0.083833
     53 HM22       -2.7700   -7.5550    3.6910 h1        1 QWE      0.083833
     54 HM23       -2.0580   -6.2550    4.2760 h1        1 QWE      0.083833
     55 H          -0.3340   -0.4530    0.0020 hn        1 QWE      0.268000
     56 HA          2.0870    0.7070   -0.7940 h1        1 QWE      0.128000
     57 HB2         1.0910    1.8560   -2.5960 hc        1 QWE      0.115500
     58 HB3        -0.3820    1.3490   -2.1700 hc        1 QWE      0.115500
     59 HG2         0.3710   -0.9120   -2.6570 hc        1 QWE      0.099000
     60 HG3         1.6940   -0.2990   -3.2740 hc        1 QWE      0.099000
     61 HD2        -0.9570    0.2200   -4.2440 h1        1 QWE      0.127000
     62 HD3         0.3980    0.8570   -4.8690 h1        1 QWE      0.127000
     63 HE          1.0110   -1.5650   -5.2400 hn        1 QWE      0.260000
     64 HH11       -2.4570   -1.3580   -5.2850 hn        1 QWE      0.288500
     65 HH12       -2.6880   -1.6710   -6.8340 hn        1 QWE      0.288500
     66 HH21        0.7150   -1.4420   -7.7060 DU        1 QWE      0.215667
     67 HH22       -0.7920   -1.6430   -8.2760 hn        1 QWE      0.270000
     68 H21         0.9250    5.1810    0.4090 h1        1 QWE      0.099000
     69 H31         2.1910    5.2480    2.4920 hc        1 QWE      0.099500
     70 H32         2.3910    3.6770    2.3390 hc        1 QWE      0.099500
     71 H41         3.8010    5.6790    1.1260 hc        1 QWE      0.088000
     72 H42         4.2590    4.1870    1.4270 hc        1 QWE      0.088000
     73 H51         4.2750    4.3110   -0.6010 hc        1 QWE      0.095000
     74 H52         2.9750    5.2280   -0.6500 hc        1 QWE      0.095000
     75 H61         2.4030    3.5430   -1.6080 h1        1 QWE      0.085000
     76 H62         3.1910    2.5960   -0.6140 h1        1 QWE      0.085000
     77 H1'1        0.1630    3.7720    2.5220 hc        1 QWE      0.112500
     78 H1'2       -0.6720    3.5690    1.1960 hc        1 QWE      0.112500
     79 H2'1       -0.6370    6.1450    1.2420 hc        1 QWE      0.122500
     80 H2'2       -0.5490    5.8710    2.8050 hc        1 QWE      0.122500
     81 H5         -6.3310    7.9980    1.9070 DU        1 QWE      0.215667
     82 H43        -4.3380    9.6420    1.8900 DU        1 QWE      0.215667
@<TRIPOS>BOND
     1    1    2 1   
     2    1   14 1   
     3    2   43 1   
     4    3    4 1   
     5    3   44 1   
     6    4   45 1   
     7    5    6 1   
     8    5   10 1   
     9    6   11 1   
    10    7    8 1   
    11    7   46 1   
    12    8   47 1   
    13    9   10 1   
    14    9   48 1   
    15   11   12 1   
    16   11   13 1   
    17   12   49 1   
    18   12   50 1   
    19   12   51 1   
    20   13   52 1   
    21   13   53 1   
    22   13   54 1   
    23   14   15 1   
    24   14   16 1   
    25   17   18 1   
    26   17   55 1   
    27   18   19 1   
    28   18   21 1   
    29   18   56 1   
    30   19   20 1   
    31   19   28 1   
    32   21   22 1   
    33   21   57 1   
    34   21   58 1   
    35   22   23 1   
    36   22   59 1   
    37   22   60 1   
    38   23   24 1   
    39   23   61 1   
    40   23   62 1   
    41   24   25 1   
    42   24   63 1   
    43   25   26 1   
    44   25   27 1   
    45   26   64 1   
    46   26   65 1   
    47   27   67 1   
    48   28   29 1   
    49   28   33 1   
    50   29   30 1   
    51   29   34 1   
    52   29   68 1   
    53   30   31 1   
    54   30   69 1   
    55   30   70 1   
    56   31   32 1   
    57   31   71 1   
    58   31   72 1   
    59   32   33 1   
    60   32   73 1   
    61   32   74 1   
    62   33   75 1   
    63   33   76 1   
    64   34   35 1   
    65   34   77 1   
    66   34   78 1   
    67   35   40 1   
    68   35   79 1   
    69   35   80 1   
    70   36   38 1   
    71   36   39 1   
    72   37   40 1   
    73   38   41 1   
    74   39   42 1   
    75   41   42 1   
@<TRIPOS>SUBSTRUCTURE
     1 QWE         1 TEMP              0 ****  ****    0 ROOT
