@<TRIPOS>MOLECULE
QWI
   50    54     1     0     0
SMALL
bcc


@<TRIPOS>ATOM
      1 C2          0.0790    0.3830   -0.1520 ca        1 QWI     -0.131000
      2 C3          1.4510    0.1460   -0.0850 ca        1 QWI     -0.128000
      3 C4          2.0720   -0.0330    1.1500 ca        1 QWI     -0.126000
      4 C5          1.3250    0.0220    2.3330 ca        1 QWI     -0.076300
      5 C6         -0.0530    0.2610    2.2580 ca        1 QWI     -0.126000
      6 C7         -0.6720    0.4400    1.0220 ca        1 QWI     -0.128000
      7 C8          2.0030   -0.1740    3.6520 c3        1 QWI     -0.019400
      8 C9          1.4450   -1.3870    4.3850 c3        1 QWI     -0.109400
      9 C10         2.1080   -1.5190    5.7550 c3        1 QWI      0.153800
     10 N11         2.0690   -0.3390    6.5910 n3        1 QWI     -0.797200
     11 C15         1.8780    1.0730    4.5190 c3        1 QWI     -0.101400
     12 C17         2.8800    2.1910    8.0800 c3        1 QWI      0.195300
     13 C18         2.1440    2.1370    6.7440 c3        1 QWI     -0.072900
     14 C20         4.7640    0.9780    7.1150 c3        1 QWI      0.195300
     15 C21         4.0550    0.9140    5.7640 c3        1 QWI     -0.072900
     16 C22         5.1090    2.4250    9.0520 ca        1 QWI      0.734200
     17 N23         4.5280    2.6250   10.2780 nb        1 QWI     -0.780000
     18 C24         5.3070    3.0440   11.3110 ca        1 QWI      0.674900
     19 N25         6.6340    3.3000   11.3440 nb        1 QWI     -0.721000
     20 C26         7.2300    3.1000   10.1320 ca        1 QWI      0.436800
     21 C70         2.5210    0.8880    5.9150 c3        1 QWI      0.175200
     22 N27         8.5620    3.2760    9.7400 na        1 QWI     -0.381000
     23 C29         8.6150    2.9430    8.3710 cc        1 QWI      0.401700
     24 N30         7.4300    2.5720    7.8630 nd        1 QWI     -0.536100
     25 C31         6.5220    2.6500    8.9300 ca        1 QWI     -0.187200
     26 N1          4.3290    2.1090    7.9250 nh        1 QWI     -0.727300
     27 H2         -0.4100    0.5250   -1.1260 ha        1 QWI      0.131000
     28 H3          2.0470    0.1010   -1.0080 ha        1 QWI      0.131000
     29 H7         -1.7550    0.6270    0.9740 ha        1 QWI      0.131000
     30 H4          3.1550   -0.2190    1.1940 ha        1 QWI      0.130500
     31 H6         -0.6520    0.3070    3.1800 ha        1 QWI      0.130500
     32 H8          3.1020   -0.3580    3.4700 hc        1 QWI      0.055700
     33 H91C        0.3350   -1.2850    4.5010 hc        1 QWI      0.048700
     34 H92C        1.6400   -2.3140    3.7890 hc        1 QWI      0.048700
     35 H151        0.7940    1.3290    4.6480 hc        1 QWI      0.049700
     36 H152        2.3690    1.9360    4.0010 hc        1 QWI      0.049700
     37 H101        1.6150   -2.3580    6.3220 h1        1 QWI      0.052200
     38 H102        3.1910   -1.7960    5.6080 h1        1 QWI      0.052200
     39 H11         1.1340   -0.1910    6.9270 hn        1 QWI      0.352800
     40 H172        2.6310    3.1750    8.5710 h1        1 QWI      0.058950
     41 H181        1.0440    2.1560    6.9530 hc        1 QWI      0.052700
     42 H182        2.3910    3.0440    6.1330 hc        1 QWI      0.052700
     43 H201        5.8680    1.0550    6.9180 h1        1 QWI      0.058950
     44 H202        4.5750    0.0130    7.6710 h1        1 QWI      0.058950
     45 H211        4.3320    1.8070    5.1460 hc        1 QWI      0.052700
     46 H212        4.4170   -0.0010    5.2300 hc        1 QWI      0.052700
     47 H24         4.7680    3.1870   12.2720 h5        1 QWI      0.052100
     48 H27         9.3040    3.5720   10.3170 hn        1 QWI      0.318700
     49 H29         9.5540    2.9980    7.8080 h5        1 QWI      0.072800
     50 H171        2.5000    1.3630    8.7450 h1        1 QWI      0.058950
@<TRIPOS>BOND
     1    1    2 ar  
     2    1    6 ar  
     3    1   27 1   
     4    2    3 ar  
     5    2   28 1   
     6    3    4 ar  
     7    3   30 1   
     8    4    5 ar  
     9    4    7 1   
    10    5    6 ar  
    11    5   31 1   
    12    6   29 1   
    13    7    8 1   
    14    7   11 1   
    15    7   32 1   
    16    8    9 1   
    17    8   33 1   
    18    8   34 1   
    19    9   10 1   
    20    9   37 1   
    21    9   38 1   
    22   10   21 1   
    23   10   39 1   
    24   11   21 1   
    25   11   35 1   
    26   11   36 1   
    27   12   13 1   
    28   12   26 1   
    29   12   40 1   
    30   12   50 1   
    31   13   21 1   
    32   13   41 1   
    33   13   42 1   
    34   14   15 1   
    35   14   26 1   
    36   14   43 1   
    37   14   44 1   
    38   15   21 1   
    39   15   45 1   
    40   15   46 1   
    41   16   17 ar  
    42   16   25 ar  
    43   16   26 1   
    44   17   18 ar  
    45   18   19 ar  
    46   18   47 1   
    47   19   20 ar  
    48   20   22 1   
    49   20   25 ar  
    50   22   23 1   
    51   22   48 1   
    52   23   24 2   
    53   23   49 1   
    54   24   25 1   
@<TRIPOS>SUBSTRUCTURE
     1 QWI         1 TEMP              0 ****  ****    0 ROOT
