@<TRIPOS>MOLECULE
QWI
   50    54     1     0     0
SMALL
bcc


@<TRIPOS>ATOM
      1 C2          0.0780    0.3720   -0.1500 ca        1 QWI     -0.131000
      2 C3          1.4510    0.1370   -0.0840 ca        1 QWI     -0.128000
      3 C4          2.0720   -0.0400    1.1520 ca        1 QWI     -0.126000
      4 C5          1.3250    0.0160    2.3350 ca        1 QWI     -0.076300
      5 C6         -0.0530    0.2530    2.2600 ca        1 QWI     -0.126000
      6 C7         -0.6720    0.4300    1.0240 ca        1 QWI     -0.128000
      7 C8          2.0040   -0.1780    3.6540 c3        1 QWI     -0.019400
      8 C9          1.4480   -1.3910    4.3880 c3        1 QWI     -0.109400
      9 C10         2.1120   -1.5210    5.7580 c3        1 QWI      0.153800
     10 N11         2.0720   -0.3400    6.5930 n3        1 QWI     -0.797200
     11 C15         1.8780    1.0700    4.5190 c3        1 QWI     -0.101400
     12 C17         2.8790    2.1920    8.0790 c3        1 QWI      0.195300
     13 C18         2.1430    2.1360    6.7430 c3        1 QWI     -0.072900
     14 C20         4.7650    0.9810    7.1150 c3        1 QWI      0.195300
     15 C21         4.0550    0.9150    5.7640 c3        1 QWI     -0.072900
     16 C22         5.1070    2.4310    9.0500 ca        1 QWI      0.734200
     17 N23         4.5270    2.6310   10.2760 nb        1 QWI     -0.780000
     18 C24         5.3060    3.0520   11.3080 ca        1 QWI      0.674900
     19 N25         6.6320    3.3110   11.3400 nb        1 QWI     -0.721000
     20 C26         7.2290    3.1110   10.1280 ca        1 QWI      0.436800
     21 C70         2.5210    0.8870    5.9160 c3        1 QWI      0.175200
     22 N27         8.5600    3.2880    9.7360 na        1 QWI     -0.381000
     23 C29         8.6130    2.9540    8.3670 cc        1 QWI      0.401700
     24 N30         7.4280    2.5810    7.8600 nd        1 QWI     -0.536100
     25 C31         6.5210    2.6590    8.9270 ca        1 QWI     -0.187200
     26 N1          4.3280    2.1130    7.9240 nh        1 QWI     -0.727300
     27 H2         -0.4110    0.5120   -1.1250 ha        1 QWI      0.131000
     28 H3          2.0460    0.0920   -1.0070 ha        1 QWI      0.131000
     29 H7         -1.7550    0.6150    0.9760 ha        1 QWI      0.131000
     30 H4          3.1560   -0.2250    1.1950 ha        1 QWI      0.130500
     31 H6         -0.6510    0.2990    3.1820 ha        1 QWI      0.130500
     32 H8          3.1030   -0.3610    3.4710 hc        1 QWI      0.055700
     33 H91C        0.3380   -1.2910    4.5040 hc        1 QWI      0.048700
     34 H92C        1.6440   -2.3190    3.7930 hc        1 QWI      0.048700
     35 H151        0.7930    1.3250    4.6490 hc        1 QWI      0.049700
     36 H152        2.3670    1.9330    4.0010 hc        1 QWI      0.049700
     37 H101        3.1950   -1.7970    5.6110 h1        1 QWI      0.052200
     38 H102        1.6200   -2.3600    6.3260 h1        1 QWI      0.052200
     39 H11         1.1360   -0.1930    6.9290 hn        1 QWI      0.352800
     40 H172        2.5010    1.3640    8.7450 h1        1 QWI      0.058950
     41 H181        1.0420    2.1540    6.9530 hc        1 QWI      0.052700
     42 H182        2.3890    3.0430    6.1320 hc        1 QWI      0.052700
     43 H201        4.5770    0.0160    7.6720 h1        1 QWI      0.058950
     44 H202        5.8680    1.0600    6.9170 h1        1 QWI      0.058950
     45 H211        4.3300    1.8080    5.1440 hc        1 QWI      0.052700
     46 H212        4.4180   -0.0000    5.2310 hc        1 QWI      0.052700
     47 H24         4.7670    3.1960   12.2700 h5        1 QWI      0.052100
     48 H27         9.3020    3.5860   10.3110 hn        1 QWI      0.318700
     49 H29         9.5520    3.0110    7.8030 h5        1 QWI      0.072800
     50 H171        2.6290    3.1760    8.5700 h1        1 QWI      0.058950
@<TRIPOS>BOND
     1    1    2 ar  
     2    1    6 ar  
     3    1   27 1   
     4    2    3 ar  
     5    2   28 1   
     6    3    4 ar  
     7    3   30 1   
     8    4    5 ar  
     9    4    7 1   
    10    5    6 ar  
    11    5   31 1   
    12    6   29 1   
    13    7    8 1   
    14    7   11 1   
    15    7   32 1   
    16    8    9 1   
    17    8   33 1   
    18    8   34 1   
    19    9   10 1   
    20    9   37 1   
    21    9   38 1   
    22   10   21 1   
    23   10   39 1   
    24   11   21 1   
    25   11   35 1   
    26   11   36 1   
    27   12   13 1   
    28   12   26 1   
    29   12   40 1   
    30   12   50 1   
    31   13   21 1   
    32   13   41 1   
    33   13   42 1   
    34   14   15 1   
    35   14   26 1   
    36   14   43 1   
    37   14   44 1   
    38   15   21 1   
    39   15   45 1   
    40   15   46 1   
    41   16   17 ar  
    42   16   25 ar  
    43   16   26 1   
    44   17   18 ar  
    45   18   19 ar  
    46   18   47 1   
    47   19   20 ar  
    48   20   22 1   
    49   20   25 ar  
    50   22   23 1   
    51   22   48 1   
    52   23   24 2   
    53   23   49 1   
    54   24   25 1   
@<TRIPOS>SUBSTRUCTURE
     1 QWI         1 TEMP              0 ****  ****    0 ROOT
