@<TRIPOS>MOLECULE
QWI
   50    54     1     0     0
SMALL
bcc


@<TRIPOS>ATOM
      1 C2         -7.1790   -0.8660   -1.0850 ca        1 QWI     -0.131000
      2 C3         -6.4120   -1.9380   -0.6320 ca        1 QWI     -0.128000
      3 C4         -5.1470   -1.7140   -0.0900 ca        1 QWI     -0.126000
      4 C5         -4.6360   -0.4140    0.0050 ca        1 QWI     -0.076300
      5 C6         -5.4130    0.6570   -0.4520 ca        1 QWI     -0.126000
      6 C7         -6.6770    0.4320   -0.9940 ca        1 QWI     -0.128000
      7 C8         -3.2780   -0.1880    0.5900 c3        1 QWI     -0.019400
      8 C9         -3.3520    0.6840    1.8360 c3        1 QWI     -0.109400
      9 C10        -1.9460    0.9530    2.3690 c3        1 QWI      0.153800
     10 N11        -0.9990    1.4850    1.4120 n3        1 QWI     -0.797200
     11 C15        -2.3390    0.4310   -0.4370 c3        1 QWI     -0.101400
     12 C17         1.3010    1.7240   -0.5690 c3        1 QWI      0.195300
     13 C18        -0.1710    1.5330   -0.9260 c3        1 QWI     -0.072900
     14 C20         1.2940   -0.3770    0.6720 c3        1 QWI      0.195300
     15 C21        -0.1770   -0.5980    0.3250 c3        1 QWI     -0.072900
     16 C22         3.3850    0.4950   -0.2380 ca        1 QWI      0.734200
     17 N23         4.0630    1.6860   -0.2470 nb        1 QWI     -0.780000
     18 C24         5.4220    1.6670   -0.3020 ca        1 QWI      0.674900
     19 N25         6.2700    0.6150   -0.3400 nb        1 QWI     -0.721000
     20 C26         5.6120   -0.5820   -0.3260 ca        1 QWI      0.436800
     21 C70        -0.9380    0.7320    0.1490 c3        1 QWI      0.175200
     22 N27         6.1110   -1.8880   -0.3790 na        1 QWI     -0.381000
     23 C29         4.9860   -2.7380   -0.3540 cc        1 QWI      0.401700
     24 N30         3.8190   -2.0810   -0.2910 nd        1 QWI     -0.536100
     25 C31         4.1540   -0.7190   -0.2670 ca        1 QWI     -0.187200
     26 N1          1.9810    0.4600   -0.3040 nh        1 QWI     -0.727300
     27 H2         -8.1770   -1.0420   -1.5130 ha        1 QWI      0.131000
     28 H3         -6.8030   -2.9630   -0.7020 ha        1 QWI      0.131000
     29 H7         -7.2790    1.2810   -1.3500 ha        1 QWI      0.131000
     30 H4         -4.5480   -2.5670    0.2650 ha        1 QWI      0.130500
     31 H6         -5.0230    1.6840   -0.3840 ha        1 QWI      0.130500
     32 H8         -2.8450   -1.1860    0.8950 hc        1 QWI      0.055700
     33 H91C       -3.8650    1.6510    1.5940 hc        1 QWI      0.048700
     34 H92C       -3.9550    0.1690    2.6270 hc        1 QWI      0.048700
     35 H151       -2.2300   -0.2640   -1.3080 hc        1 QWI      0.049700
     36 H152       -2.7850    1.3860   -0.8210 hc        1 QWI      0.049700
     37 H101       -2.0110    1.6790    3.2280 h1        1 QWI      0.052200
     38 H102       -1.5200   -0.0110    2.7680 h1        1 QWI      0.052200
     39 H11        -1.2300    2.4400    1.2020 hn        1 QWI      0.352800
     40 H172        1.3790    2.4160    0.3190 h1        1 QWI      0.058950
     41 H181       -0.6280    2.5460   -1.0660 hc        1 QWI      0.052700
     42 H182       -0.2610    0.9800   -1.8980 hc        1 QWI      0.052700
     43 H201        1.3590    0.0960    1.6960 h1        1 QWI      0.058950
     44 H202        1.7880   -1.3850    0.7230 h1        1 QWI      0.058950
     45 H211       -0.2600   -1.1790   -0.6300 hc        1 QWI      0.052700
     46 H212       -0.6330   -1.2120    1.1430 hc        1 QWI      0.052700
     47 H24         5.9020    2.6690   -0.3090 h5        1 QWI      0.052100
     48 H27         7.0610   -2.1470   -0.4220 hn        1 QWI      0.318700
     49 H29         5.0960   -3.8290   -0.3900 h5        1 QWI      0.072800
     50 H171        1.8070    2.2210   -1.4450 h1        1 QWI      0.058950
@<TRIPOS>BOND
     1    1    2 ar  
     2    1    6 ar  
     3    1   27 1   
     4    2    3 ar  
     5    2   28 1   
     6    3    4 ar  
     7    3   30 1   
     8    4    5 ar  
     9    4    7 1   
    10    5    6 ar  
    11    5   31 1   
    12    6   29 1   
    13    7    8 1   
    14    7   11 1   
    15    7   32 1   
    16    8    9 1   
    17    8   33 1   
    18    8   34 1   
    19    9   10 1   
    20    9   37 1   
    21    9   38 1   
    22   10   21 1   
    23   10   39 1   
    24   11   21 1   
    25   11   35 1   
    26   11   36 1   
    27   12   13 1   
    28   12   26 1   
    29   12   40 1   
    30   12   50 1   
    31   13   21 1   
    32   13   41 1   
    33   13   42 1   
    34   14   15 1   
    35   14   26 1   
    36   14   43 1   
    37   14   44 1   
    38   15   21 1   
    39   15   45 1   
    40   15   46 1   
    41   16   17 ar  
    42   16   25 ar  
    43   16   26 1   
    44   17   18 ar  
    45   18   19 ar  
    46   18   47 1   
    47   19   20 ar  
    48   20   22 1   
    49   20   25 ar  
    50   22   23 1   
    51   22   48 1   
    52   23   24 2   
    53   23   49 1   
    54   24   25 1   
@<TRIPOS>SUBSTRUCTURE
     1 QWI         1 TEMP              0 ****  ****    0 ROOT
