@<TRIPOS>MOLECULE
QWS
   48    50     1     0     0
SMALL
bcc


@<TRIPOS>ATOM
      1 N1         -0.1430   -0.2440    0.0270 na        1 QWS      0.330300
      2 N2          1.1710   -0.0430    0.0610 nc        1 QWS     -0.371800
      3 C3          1.5740   -0.0940    1.3700 cd        1 QWS      0.217800
      4 C4          0.4110   -0.3590    2.2150 cd        1 QWS     -0.251700
      5 C5         -0.6810   -0.4450    1.2990 cc        1 QWS     -0.040300
      6 N6          0.4030   -0.5280    3.6320 n4        1 QWS     -0.438200
      7 C7         -0.0290    0.7250    4.3810 c         1 QWS      0.453100
      8 N8         -0.3620    0.6060    5.8380 n4        1 QWS     -0.734400
      9 O9         -0.1050    1.8120    3.8430 o         1 QWS     -0.257100
     10 C10         2.9440    0.0490    1.8360 c         1 QWS      0.507600
     11 N11         4.0090    0.2830    0.8200 n4        1 QWS     -0.726400
     12 O12         3.2720   -0.0150    3.0200 o         1 QWS     -0.465100
     13 C13        -0.9380   -0.2360   -1.1690 ca        1 QWS     -0.153200
     14 C14        -2.0730    0.5950   -1.1860 ca        1 QWS     -0.055000
     15 C15        -2.8570    0.6750   -2.3320 ca        1 QWS     -0.151000
     16 C16        -2.5220   -0.0620   -3.4640 ca        1 QWS      0.023000
     17 C17        -0.5770   -1.0390   -2.3020 ca        1 QWS      0.075000
     18 C18        -1.4040   -0.9140   -3.4650 ca        1 QWS     -0.099000
     19 C19        -1.0850   -1.6830   -4.6260 ca        1 QWS     -0.021000
     20 C20        -0.0250   -2.5480   -4.6430 ca        1 QWS     -0.188000
     21 C21         0.7810   -2.6920   -3.4750 ca        1 QWS      0.248100
     22 C22         0.4960   -1.9460   -2.3220 ca        1 QWS     -0.256000
     23 O23         1.8580   -3.5090   -3.3680 os        1 QWS     -0.331900
     24 C24         2.2010   -4.3740   -4.4930 c3        1 QWS      0.142100
     25 C25         3.6280   -4.8030   -4.2090 c3        1 QWS     -0.118100
     26 C26         1.2570   -5.5540   -4.5460 c3        1 QWS     -0.118100
     27 H1         -1.7510   -0.6430    1.4490 h4        1 QWS      0.247000
     28 H2         -0.2320   -1.3140    3.8630 hn        1 QWS      0.508800
     29 H3         -0.6120    1.5580    6.1920 hn        1 QWS      0.517467
     30 H4          0.4410    0.2620    6.3910 hn        1 QWS      0.517467
     31 H5          3.8180    1.1510    0.2940 hn        1 QWS      0.505467
     32 H6          4.0410   -0.5020    0.1480 hn        1 QWS      0.505467
     33 H7         -2.3450    1.2100   -0.3120 ha        1 QWS      0.140000
     34 H8         -3.7390    1.3390   -2.3440 ha        1 QWS      0.186000
     35 H9         -3.1440    0.0200   -4.3760 ha        1 QWS      0.185000
     36 H10        -1.7230   -1.5670   -5.5210 ha        1 QWS      0.178000
     37 H11         0.1990   -3.1360   -5.5490 ha        1 QWS      0.184000
     38 H12         1.1290   -2.1260   -1.4460 ha        1 QWS      0.125000
     39 H13         2.1600   -3.7680   -5.4390 h1        1 QWS      0.067700
     40 H14         3.9710   -5.4730   -5.0360 hc        1 QWS      0.063700
     41 H15         4.3020   -3.9150   -4.1580 hc        1 QWS      0.063700
     42 H16         3.6890   -5.3590   -3.2440 hc        1 QWS      0.063700
     43 H17         1.5330   -6.2090   -5.4090 hc        1 QWS      0.063700
     44 H18         0.2010   -5.2150   -4.6760 hc        1 QWS      0.063700
     45 H19         1.3250   -6.1550   -3.6070 hc        1 QWS      0.063700
     46 H62         1.3750   -0.7620    3.9340 hn        1 QWS      0.508800
     47 H83        -1.1750   -0.0130    5.9980 hn        1 QWS      0.517467
     48 H113        4.9320    0.3660    1.2830 hn        1 QWS      0.505467
@<TRIPOS>BOND
     1    1    2 1   
     2    1    5 1   
     3    1   13 1   
     4    2    3 2   
     5    3    4 1   
     6    3   10 1   
     7    4    5 2   
     8    4    6 1   
     9    5   27 1   
    10    6    7 1   
    11    6   28 1   
    12    6   46 1   
    13    7    8 1   
    14    7    9 2   
    15    8   29 1   
    16    8   30 1   
    17    8   47 1   
    18   10   11 1   
    19   10   12 2   
    20   11   31 1   
    21   11   32 1   
    22   11   48 1   
    23   13   14 ar  
    24   13   17 ar  
    25   14   15 ar  
    26   14   33 1   
    27   15   16 ar  
    28   15   34 1   
    29   16   18 ar  
    30   16   35 1   
    31   17   18 ar  
    32   17   22 ar  
    33   18   19 ar  
    34   19   20 ar  
    35   19   36 1   
    36   20   21 ar  
    37   20   37 1   
    38   21   22 ar  
    39   21   23 1   
    40   22   38 1   
    41   23   24 1   
    42   24   25 1   
    43   24   26 1   
    44   24   39 1   
    45   25   40 1   
    46   25   41 1   
    47   25   42 1   
    48   26   43 1   
    49   26   44 1   
    50   26   45 1   
@<TRIPOS>SUBSTRUCTURE
     1 QWS         1 TEMP              0 ****  ****    0 ROOT
