@<TRIPOS>MOLECULE
QWS
   47    49     1     0     0
SMALL
bcc


@<TRIPOS>ATOM
      1 N1          0.0990    0.2450   -0.1560 na        1 QWS      0.297300
      2 N2          1.3620    0.5920   -0.0990 nc        1 QWS     -0.419800
      3 C3          1.7730    0.4430    1.2170 cd        1 QWS      0.137800
      4 C4          0.6460   -0.0320    2.0150 cd        1 QWS     -0.072700
      5 C5         -0.4190   -0.1490    1.0900 cc        1 QWS     -0.114300
      6 N6          0.6830   -0.2930    3.3840 n         1 QWS     -0.396100
      7 C7         -0.4390   -0.7360    4.0430 c         1 QWS      0.646100
      8 N8         -0.3190   -1.0150    5.5410 n4        1 QWS     -0.742400
      9 O9         -1.5630   -0.9450    3.5840 o         1 QWS     -0.448100
     10 C10         3.0980    0.7060    1.7080 c         1 QWS      0.514600
     11 N11         4.1090    1.1720    0.6920 n4        1 QWS     -0.738400
     12 O12         3.5020    0.5930    2.8620 o         1 QWS     -0.468100
     13 C13        -0.6900    0.2560   -1.3690 ca        1 QWS     -0.111200
     14 C14        -1.6510    1.2500   -1.5260 ca        1 QWS     -0.053000
     15 C15        -2.4360    1.2790   -2.6920 ca        1 QWS     -0.158000
     16 C16        -2.2500    0.3380   -3.6820 ca        1 QWS     -0.027000
     17 C17        -0.4630   -0.7430   -2.3730 ca        1 QWS      0.044000
     18 C18        -1.2730   -0.6770   -3.5430 ca        1 QWS     -0.082000
     19 C19        -1.0850   -1.6490   -4.5680 ca        1 QWS     -0.052000
     20 C20        -0.1470   -2.6400   -4.4490 ca        1 QWS     -0.180000
     21 C21         0.6580   -2.7050   -3.2760 ca        1 QWS      0.199100
     22 C22         0.4960   -1.7720   -2.2540 ca        1 QWS     -0.231000
     23 O23         1.6370   -3.6340   -3.0500 os        1 QWS     -0.336900
     24 C24         1.8400   -4.6750   -4.0380 c3        1 QWS      0.140100
     25 C25         3.2130   -5.2380   -3.7190 c3        1 QWS     -0.114600
     26 C26         0.7620   -5.7310   -3.9160 c3        1 QWS     -0.114600
     27 H1         -1.4580   -0.4760    1.2200 h4        1 QWS      0.245000
     28 H2          1.5600   -0.1490    3.8470 hn        1 QWS      0.376500
     29 H3          0.3670   -1.7540    5.7290 hn        1 QWS      0.486467
     30 H4         -0.0610   -0.1680    6.0590 hn        1 QWS      0.486467
     31 H5          3.7910    2.0490    0.2590 hn        1 QWS      0.485133
     32 H6          5.0190    1.3260    1.1450 hn        1 QWS      0.485133
     33 H7         -1.8150    2.0230   -0.7580 ha        1 QWS      0.150000
     34 H8         -3.1970    2.0690   -2.8020 ha        1 QWS      0.169000
     35 H9         -2.8630    0.3660   -4.6000 ha        1 QWS      0.166000
     36 H10        -1.7180   -1.5870   -5.4700 ha        1 QWS      0.162000
     37 H11        -0.0230   -3.3840   -5.2510 ha        1 QWS      0.167000
     38 H12         1.1290   -1.8710   -1.3640 ha        1 QWS      0.131000
     39 H13         1.8450   -4.2140   -5.0640 h1        1 QWS      0.059700
     40 H14         3.9900   -4.4410   -3.8070 hc        1 QWS      0.056700
     41 H15         3.2380   -5.6480   -2.6810 hc        1 QWS      0.056700
     42 H16         3.4440   -6.0570   -4.4410 hc        1 QWS      0.056700
     43 H17        -0.2490   -5.2870   -4.0750 hc        1 QWS      0.056700
     44 H18         0.9320   -6.5260   -4.6830 hc        1 QWS      0.056700
     45 H19         0.7870   -6.1990   -2.9030 hc        1 QWS      0.056700
     46 H83        -1.2500   -1.3330    5.8620 hn        1 QWS      0.486467
     47 H113        4.2120    0.4640   -0.0470 hn        1 QWS      0.485133
@<TRIPOS>BOND
     1    1    2 1   
     2    1    5 1   
     3    1   13 1   
     4    2    3 2   
     5    3    4 1   
     6    3   10 1   
     7    4    5 2   
     8    4    6 1   
     9    5   27 1   
    10    6    7 1   
    11    6   28 1   
    12    7    8 1   
    13    7    9 2   
    14    8   29 1   
    15    8   30 1   
    16    8   46 1   
    17   10   11 1   
    18   10   12 2   
    19   11   31 1   
    20   11   32 1   
    21   11   47 1   
    22   13   14 ar  
    23   13   17 ar  
    24   14   15 ar  
    25   14   33 1   
    26   15   16 ar  
    27   15   34 1   
    28   16   18 ar  
    29   16   35 1   
    30   17   18 ar  
    31   17   22 ar  
    32   18   19 ar  
    33   19   20 ar  
    34   19   36 1   
    35   20   21 ar  
    36   20   37 1   
    37   21   22 ar  
    38   21   23 1   
    39   22   38 1   
    40   23   24 1   
    41   24   25 1   
    42   24   26 1   
    43   24   39 1   
    44   25   40 1   
    45   25   41 1   
    46   25   42 1   
    47   26   43 1   
    48   26   44 1   
    49   26   45 1   
@<TRIPOS>SUBSTRUCTURE
     1 QWS         1 TEMP              0 ****  ****    0 ROOT
