@<TRIPOS>MOLECULE
QWS
   47    49     1     0     0
SMALL
bcc


@<TRIPOS>ATOM
      1 N1          0.1100    0.2560   -0.1610 na        1 QWS      0.297300
      2 N2          1.3730    0.6040   -0.0970 nc        1 QWS     -0.419800
      3 C3          1.7790    0.4470    1.2200 cd        1 QWS      0.137800
      4 C4          0.6500   -0.0350    2.0100 cd        1 QWS     -0.073700
      5 C5         -0.4110   -0.1470    1.0810 cc        1 QWS     -0.114300
      6 N6          0.6830   -0.3050    3.3770 ns        1 QWS     -0.396100
      7 C7         -0.4400   -0.7550    4.0300 c         1 QWS      0.646100
      8 N8         -0.3240   -1.0440    5.5260 nz        1 QWS     -0.742400
      9 O9         -1.5620   -0.9630    3.5660 o         1 QWS     -0.448100
     10 C10         3.1020    0.7090    1.7160 c         1 QWS      0.514600
     11 N11         4.1160    1.1830    0.7070 nz        1 QWS     -0.738400
     12 O12         3.5020    0.5890    2.8710 o         1 QWS     -0.468100
     13 C13        -0.6740    0.2720   -1.3770 ca        1 QWS     -0.111200
     14 C14        -1.6240    1.2750   -1.5400 ca        1 QWS     -0.053000
     15 C15        -2.4050    1.3100   -2.7090 ca        1 QWS     -0.158000
     16 C16        -2.2250    0.3640   -3.6950 ca        1 QWS     -0.027000
     17 C17        -0.4540   -0.7310   -2.3780 ca        1 QWS      0.044000
     18 C18        -1.2590   -0.6610   -3.5500 ca        1 QWS     -0.082000
     19 C19        -1.0770   -1.6370   -4.5710 ca        1 QWS     -0.052000
     20 C20        -0.1490   -2.6370   -4.4460 ca        1 QWS     -0.180000
     21 C21         0.6520   -2.7070   -3.2710 ca        1 QWS      0.199100
     22 C22         0.4960   -1.7690   -2.2530 ca        1 QWS     -0.231000
     23 O23         1.6210   -3.6440   -3.0390 os        1 QWS     -0.336900
     24 C24         1.8190   -4.6890   -4.0240 c3        1 QWS      0.140100
     25 C25         3.1870   -5.2620   -3.7000 c3        1 QWS     -0.114600
     26 C26         0.7320   -5.7360   -3.9050 c3        1 QWS     -0.114600
     27 H1         -1.4500   -0.4770    1.2050 h4        1 QWS      0.245000
     28 H2          1.5590   -0.1630    3.8450 hn        1 QWS      0.376500
     29 H3         -1.2550   -1.3660    5.8420 hn        1 QWS      0.486467
     30 H4          0.3620   -1.7820    5.7110 hn        1 QWS      0.486467
     31 H5          4.2220    0.4810   -0.0370 hn        1 QWS      0.485133
     32 H6          5.0250    1.3360    1.1650 hn        1 QWS      0.485133
     33 H7         -1.7830    2.0530   -0.7750 ha        1 QWS      0.150000
     34 H8         -3.1570    2.1070   -2.8240 ha        1 QWS      0.169000
     35 H9         -2.8350    0.3950   -4.6150 ha        1 QWS      0.166000
     36 H10        -1.7060   -1.5720   -5.4760 ha        1 QWS      0.162000
     37 H11        -0.0300   -3.3840   -5.2460 ha        1 QWS      0.167000
     38 H12         1.1250   -1.8700   -1.3600 ha        1 QWS      0.131000
     39 H13         1.8310   -4.2300   -5.0510 h1        1 QWS      0.059700
     40 H14         3.4130   -6.0850   -4.4200 hc        1 QWS      0.056700
     41 H15         3.2040   -5.6710   -2.6620 hc        1 QWS      0.056700
     42 H16         3.9700   -4.4720   -3.7860 hc        1 QWS      0.056700
     43 H17        -0.2760   -5.2830   -4.0680 hc        1 QWS      0.056700
     44 H18         0.7490   -6.2020   -2.8900 hc        1 QWS      0.056700
     45 H19         0.8980   -6.5330   -4.6690 hc        1 QWS      0.056700
     46 H83        -0.0700   -0.2000    6.0500 hn        1 QWS      0.486467
     47 H113        3.7980    2.0620    0.2790 hn        1 QWS      0.485133
@<TRIPOS>BOND
     1    1    2 1   
     2    1    5 1   
     3    1   13 1   
     4    2    3 2   
     5    3    4 1   
     6    3   10 1   
     7    4    5 2   
     8    4    6 1   
     9    5   27 1   
    10    6    7 1   
    11    6   28 1   
    12    7    8 1   
    13    7    9 2   
    14    8   29 1   
    15    8   30 1   
    16    8   46 1   
    17   10   11 1   
    18   10   12 2   
    19   11   31 1   
    20   11   32 1   
    21   11   47 1   
    22   13   14 ar  
    23   13   17 ar  
    24   14   15 ar  
    25   14   33 1   
    26   15   16 ar  
    27   15   34 1   
    28   16   18 ar  
    29   16   35 1   
    30   17   18 ar  
    31   17   22 ar  
    32   18   19 ar  
    33   19   20 ar  
    34   19   36 1   
    35   20   21 ar  
    36   20   37 1   
    37   21   22 ar  
    38   21   23 1   
    39   22   38 1   
    40   23   24 1   
    41   24   25 1   
    42   24   26 1   
    43   24   39 1   
    44   25   40 1   
    45   25   41 1   
    46   25   42 1   
    47   26   43 1   
    48   26   44 1   
    49   26   45 1   
@<TRIPOS>SUBSTRUCTURE
     1 QWS         1 TEMP              0 ****  ****    0 ROOT
