@<TRIPOS>MOLECULE
QX
   18    19     1     0     0
SMALL
bcc


@<TRIPOS>ATOM
      1 N1          2.0780    0.2740    3.9900 nb        1 QX      -0.642000
      2 C2          3.2070    0.1010    4.6500 ca        1 QX       0.293500
      3 C3          4.3780   -0.4910    4.0060 ca        1 QX       0.320900
      4 N4          4.3930   -0.8850    2.7510 nb        1 QX      -0.671000
      5 C5          3.1370   -1.1110    0.6670 ca        1 QX      -0.157300
      6 C6          1.9720   -0.9410   -0.0420 ca        1 QX      -0.158000
      7 C7          0.8350   -0.3710    0.5700 ca        1 QX      -0.148000
      8 C8          0.8680    0.0260    1.8850 ca        1 QX      -0.162300
      9 C9          3.2120   -0.7130    2.0330 ca        1 QX       0.260300
     10 C10         2.0560   -0.1320    2.6590 ca        1 QX       0.295300
     11 C11         3.3810    0.5040    6.1360 c         1 QX       0.828100
     12 O12         3.1260   -0.3830    6.9870 o         1 QX      -0.798300
     13 O13         3.8120    1.6630    6.3510 o         1 QX      -0.798300
     14 H3          5.3010   -0.6150    4.6000 h4        1 QX       0.033100
     15 H5          4.0240   -1.5560    0.1910 ha        1 QX       0.132000
     16 H6          1.9140   -1.2490   -1.0950 ha        1 QX       0.114000
     17 H7         -0.0830   -0.2470   -0.0220 ha        1 QX       0.115000
     18 H8         -0.0200    0.4710    2.3610 ha        1 QX       0.141000
@<TRIPOS>BOND
     1    1    2 ar  
     2    1   10 ar  
     3    2    3 ar  
     4    2   11 1   
     5    3    4 ar  
     6    3   14 1   
     7    4    9 ar  
     8    5    6 ar  
     9    5    9 ar  
    10    5   15 1   
    11    6    7 ar  
    12    6   16 1   
    13    7    8 ar  
    14    7   17 1   
    15    8   10 ar  
    16    8   18 1   
    17    9   10 ar  
    18   11   12 1   
    19   11   13 1   
@<TRIPOS>SUBSTRUCTURE
     1 QX          1 TEMP              0 ****  ****    0 ROOT
