@<TRIPOS>MOLECULE
QX
   18    19     1     0     0
SMALL
bcc


@<TRIPOS>ATOM
      1 N1         -0.0620   -0.1390   -0.0510 nb        1 QX      -0.642000
      2 C2          1.2520   -0.0150   -0.0790 ca        1 QX       0.293500
      3 C3          2.0190    0.1820    1.1500 ca        1 QX       0.320900
      4 N4          1.4710    0.2500    2.3440 nb        1 QX      -0.671000
      5 C5         -0.5940    0.1820    3.6490 ca        1 QX      -0.157300
      6 C6         -1.9610    0.0560    3.7030 ca        1 QX      -0.158000
      7 C7         -2.7120   -0.1350    2.5240 ca        1 QX      -0.148000
      8 C8         -2.0950   -0.1990    1.2980 ca        1 QX      -0.162300
      9 C9          0.0860    0.1220    2.3980 ca        1 QX       0.260300
     10 C10        -0.6770   -0.0730    1.1950 ca        1 QX       0.295300
     11 C11         2.0720   -0.0680   -1.3910 c         1 QX       0.828100
     12 O12         2.4980   -1.1980   -1.7360 o         1 QX      -0.798300
     13 O13         2.2830    1.0300   -1.9600 o         1 QX      -0.798300
     14 H3          3.1160    0.2810    1.0760 h4        1 QX       0.033100
     15 H5         -0.0070    0.3310    4.5690 ha        1 QX       0.132000
     16 H6         -2.4840    0.1030    4.6680 ha        1 QX       0.114000
     17 H7         -3.8050   -0.2330    2.5980 ha        1 QX       0.115000
     18 H8         -2.6820   -0.3480    0.3790 ha        1 QX       0.141000
@<TRIPOS>BOND
     1    1    2 ar  
     2    1   10 ar  
     3    2    3 ar  
     4    2   11 1   
     5    3    4 ar  
     6    3   14 1   
     7    4    9 ar  
     8    5    6 ar  
     9    5    9 ar  
    10    5   15 1   
    11    6    7 ar  
    12    6   16 1   
    13    7    8 ar  
    14    7   17 1   
    15    8   10 ar  
    16    8   18 1   
    17    9   10 ar  
    18   11   12 1   
    19   11   13 1   
@<TRIPOS>SUBSTRUCTURE
     1 QX          1 TEMP              0 ****  ****    0 ROOT
