@<TRIPOS>MOLECULE
QX
   18    19     1     0     0
SMALL
bcc


@<TRIPOS>ATOM
      1 N1         -0.0450    0.2720   -0.0340 nb        1 QX      -0.642000
      2 C2          1.2460    0.0030   -0.0840 ca        1 QX       0.293500
      3 C3          1.9850   -0.3840    1.1170 ca        1 QX       0.320900
      4 N4          1.4320   -0.4890    2.3060 nb        1 QX      -0.671000
      5 C5         -0.6120   -0.2970    3.6310 ca        1 QX      -0.157300
      6 C6         -1.9560   -0.0210    3.7080 ca        1 QX      -0.158000
      7 C7         -2.6800    0.3530    2.5550 ca        1 QX      -0.148000
      8 C8         -2.0580    0.4490    1.3340 ca        1 QX      -0.162300
      9 C9          0.0710   -0.2090    2.3830 ca        1 QX       0.260300
     10 C10        -0.6640    0.1710    1.2080 ca        1 QX       0.295300
     11 C11         2.0680    0.0720   -1.3950 c         1 QX       0.828100
     12 O12         2.6240    1.1690   -1.6450 o         1 QX      -0.798300
     13 O13         2.1480   -0.9900   -2.0590 o         1 QX      -0.798300
     14 H3          3.0640   -0.5990    1.0250 h4        1 QX       0.033100
     15 H5         -0.0470   -0.5890    4.5290 ha        1 QX       0.132000
     16 H6         -2.4820   -0.0900    4.6710 ha        1 QX       0.114000
     17 H7         -3.7540    0.5670    2.6480 ha        1 QX       0.115000
     18 H8         -2.6240    0.7410    0.4360 ha        1 QX       0.141000
@<TRIPOS>BOND
     1    1    2 ar  
     2    1   10 ar  
     3    2    3 ar  
     4    2   11 1   
     5    3    4 ar  
     6    3   14 1   
     7    4    9 ar  
     8    5    6 ar  
     9    5    9 ar  
    10    5   15 1   
    11    6    7 ar  
    12    6   16 1   
    13    7    8 ar  
    14    7   17 1   
    15    8   10 ar  
    16    8   18 1   
    17    9   10 ar  
    18   11   12 1   
    19   11   13 1   
@<TRIPOS>SUBSTRUCTURE
     1 QX          1 TEMP              0 ****  ****    0 ROOT
