@<TRIPOS>MOLECULE
QY9
   18    18     1     0     0
SMALL
bcc


@<TRIPOS>ATOM
      1 CAA        -0.0290   -0.0490   -0.0950 c3        1 QY9     -0.151100
      2 OAB         2.0120   -0.8310    1.0220 o         1 QY9     -0.522000
      3 CAC         6.3260    0.3030   -1.0970 ca        1 QY9     -0.139000
      4 CAD         5.6600   -0.8720   -0.7480 ca        1 QY9     -0.116000
      5 CAE         5.6050    1.4750   -1.3310 ca        1 QY9     -0.116000
      6 CAF         4.2700   -0.8900   -0.6370 ca        1 QY9     -0.135000
      7 CAG         4.2170    1.4830   -1.2190 ca        1 QY9     -0.135000
      8 OAH         2.1670    0.3430   -0.8970 os        1 QY9     -0.371200
      9 CAI         1.4350   -0.2430    0.1100 c         1 QY9      0.640100
     10 CAJ         3.5600    0.2910   -0.8770 ca        1 QY9      0.106100
     11 HAA        -0.2350    0.4580   -1.0680 hc        1 QY9      0.078700
     12 HAAA       -0.4270    0.5750    0.7420 hc        1 QY9      0.078700
     13 HAAB       -0.5300   -1.0480   -0.0790 hc        1 QY9      0.078700
     14 HAD         6.2310   -1.7930   -0.5590 ha        1 QY9      0.135500
     15 HAE         6.1330    2.4000   -1.6040 ha        1 QY9      0.135500
     16 HAF         3.7380   -1.8070   -0.3450 ha        1 QY9      0.150500
     17 HAG         3.6350    2.3970   -1.4030 ha        1 QY9      0.150500
     18 HAC         7.4220    0.3070   -1.1840 ha        1 QY9      0.134000
@<TRIPOS>BOND
     1    1    9 1   
     2    1   11 1   
     3    1   12 1   
     4    1   13 1   
     5    2    9 2   
     6    3    4 ar  
     7    3    5 ar  
     8    3   18 1   
     9    4    6 ar  
    10    4   14 1   
    11    5    7 ar  
    12    5   15 1   
    13    6   10 ar  
    14    6   16 1   
    15    7   10 ar  
    16    7   17 1   
    17    8    9 1   
    18    8   10 1   
@<TRIPOS>SUBSTRUCTURE
     1 QY9         1 TEMP              0 ****  ****    0 ROOT
