@<TRIPOS>MOLECULE
QY9
   18    18     1     0     0
SMALL
bcc


@<TRIPOS>ATOM
      1 CAA         3.4830    0.1990    0.2380 c3        1 QY9     -0.151100
      2 OAB         1.8090   -1.3020   -0.7450 o         1 QY9     -0.522000
      3 CAC        -2.9410   -0.0930   -0.1440 ca        1 QY9     -0.139000
      4 CAD        -2.1350   -1.1800    0.1930 ca        1 QY9     -0.116000
      5 CAE        -2.3750    1.1670   -0.3390 ca        1 QY9     -0.116000
      6 CAF        -0.7580   -1.0180    0.3450 ca        1 QY9     -0.135000
      7 CAG        -1.0020    1.3520   -0.2010 ca        1 QY9     -0.135000
      8 OAH         1.1410    0.5330    0.3840 os        1 QY9     -0.371200
      9 CAI         2.1220   -0.2980   -0.1090 c         1 QY9      0.640100
     10 CAJ        -0.2040    0.2520    0.1480 ca        1 QY9      0.106100
     11 HAA         4.0180    0.4660   -0.7070 hc        1 QY9      0.078700
     12 HAAA        3.4280    1.0970    0.8990 hc        1 QY9      0.078700
     13 HAAB        4.0430   -0.6160    0.7580 hc        1 QY9      0.078700
     14 HAD        -2.5830   -2.1740    0.3410 ha        1 QY9      0.135500
     15 HAE        -3.0140    2.0220   -0.6080 ha        1 QY9      0.135500
     16 HAF        -0.1120   -1.8720    0.5920 ha        1 QY9      0.150500
     17 HAG        -0.5410    2.3380   -0.3490 ha        1 QY9      0.150500
     18 HAC        -4.0260   -0.2300   -0.2600 ha        1 QY9      0.134000
@<TRIPOS>BOND
     1    1    9 1   
     2    1   11 1   
     3    1   12 1   
     4    1   13 1   
     5    2    9 2   
     6    3    4 ar  
     7    3    5 ar  
     8    3   18 1   
     9    4    6 ar  
    10    4   14 1   
    11    5    7 ar  
    12    5   15 1   
    13    6   10 ar  
    14    6   16 1   
    15    7   10 ar  
    16    7   17 1   
    17    8    9 1   
    18    8   10 1   
@<TRIPOS>SUBSTRUCTURE
     1 QY9         1 TEMP              0 ****  ****    0 ROOT
