@<TRIPOS>MOLECULE
QY9
   18    15     1     0     0
SMALL
bcc


@<TRIPOS>ATOM
      1 CAA        -3.4370   -0.0560    0.8760 c3        1 QY9     -0.151100
      2 OAB        -1.3160   -0.0560    1.9280 o         1 QY9     -0.522000
      3 CAC         2.8360    0.0680   -0.9640 c1        1 QY9     -0.068750
      4 CAD         2.2140   -1.1510   -0.7440 c1        1 QY9     -0.068750
      5 CAE         2.1660    1.2490   -0.6850 c1        1 QY9     -0.068750
      6 CAF         0.9220   -1.1890   -0.2450 c1        1 QY9     -0.068750
      7 CAG         0.8730    1.2100   -0.1850 c1        1 QY9     -0.078500
      8 OAH        -1.2210   -0.0560   -0.3410 os        1 QY9     -0.354700
      9 CAI        -1.9240   -0.0560    0.8760 c         1 QY9      0.640100
     10 CAJ         0.2510   -0.0090    0.0350 c1        1 QY9      0.089600
     11 HAA        -3.7620    0.7470    0.4260 hc        1 QY9      0.078700
     12 HAAA       -3.7620   -0.8470    0.4050 hc        1 QY9      0.078700
     13 HAAB       -3.7620   -0.0690    1.7960 hc        1 QY9      0.078700
     14 HAC         3.7460    0.0960   -1.3160 ha        1 QY9      0.080250
     15 HAD         2.6870   -1.9820   -0.9410 ha        1 QY9      0.080250
     16 HAE         2.6030    2.1070   -0.8400 ha        1 QY9      0.080250
     17 HAF         0.4840   -2.0480   -0.0900 ha        1 QY9      0.080250
     18 HAG         0.4010    2.0420    0.0110 ha        1 QY9      0.097500
@<TRIPOS>BOND
     1    1    9 1   
     2    1   11 1   
     3    1   12 1   
     4    1   13 1   
     5    2    9 2   
     6    3    5 3   
     7    3   14 1   
     8    4    6 3   
     9    4   15 1   
    10    5   16 1   
    11    6   17 1   
    12    7   10 3   
    13    7   18 1   
    14    8    9 1   
    15    8   10 1   
@<TRIPOS>SUBSTRUCTURE
     1 QY9         1 TEMP              0 ****  ****    0 ROOT
