@<TRIPOS>MOLECULE
QY9
   18    18     1     0     0
SMALL
bcc


@<TRIPOS>ATOM
      1 CAA        -0.0270   -0.1100   -0.1100 c3        1 QY9     -0.151100
      2 OAB         2.0230   -0.6110    1.1440 o         1 QY9     -0.522000
      3 CAC         6.3240    0.3470   -1.0820 ca        1 QY9     -0.139000
      4 CAD         5.6970   -0.7850   -0.5610 ca        1 QY9     -0.116000
      5 CAE         5.5630    1.4380   -1.5050 ca        1 QY9     -0.116000
      6 CAF         4.3070   -0.8410   -0.4620 ca        1 QY9     -0.135000
      7 CAG         4.1740    1.4090   -1.4090 ca        1 QY9     -0.135000
      8 OAH         2.1640    0.2530   -0.9340 os        1 QY9     -0.371200
      9 CAI         1.4390   -0.2010    0.1450 c         1 QY9      0.640100
     10 CAJ         3.5580    0.2600   -0.8910 ca        1 QY9      0.106100
     11 HAA        -0.2970    0.9320   -0.4070 hc        1 QY9      0.078367
     12 HAAA       -0.5790   -0.3950    0.8180 hc        1 QY9      0.078367
     13 HAAB       -0.3040   -0.8030   -0.9420 hc        1 QY9      0.078367
     14 HAD         6.2990   -1.6410   -0.2240 ha        1 QY9      0.135500
     15 HAE         6.0610    2.3300   -1.9140 ha        1 QY9      0.135500
     16 HAF         3.8060   -1.7210   -0.0350 ha        1 QY9      0.150500
     17 HAG         3.5610    2.2580   -1.7400 ha        1 QY9      0.150500
     18 HAC         7.4200    0.3810   -1.1580 ha        1 QY9      0.134000
@<TRIPOS>BOND
     1    1    9 1   
     2    1   11 1   
     3    1   12 1   
     4    1   13 1   
     5    2    9 2   
     6    3    4 ar  
     7    3    5 ar  
     8    3   18 1   
     9    4    6 ar  
    10    4   14 1   
    11    5    7 ar  
    12    5   15 1   
    13    6   10 ar  
    14    6   16 1   
    15    7   10 ar  
    16    7   17 1   
    17    8    9 1   
    18    8   10 1   
@<TRIPOS>SUBSTRUCTURE
     1 QY9         1 TEMP              0 ****  ****    0 ROOT
