@<TRIPOS>MOLECULE
QYD
   41    43     1     0     0
SMALL
bcc


@<TRIPOS>ATOM
      1 C1          0.2370   -0.1020   -0.0710 ca        1 QYD     -0.119000
      2 C2          1.6010    0.1670    0.0360 ca        1 QYD     -0.129500
      3 C3          2.2060    0.2340    1.2900 ca        1 QYD     -0.112500
      4 C4          1.4470    0.0340    2.4510 ca        1 QYD     -0.083300
      5 C5          0.0780   -0.2420    2.3370 ca        1 QYD     -0.112500
      6 C6         -0.5220   -0.3080    1.0810 ca        1 QYD     -0.129500
      7 C7          2.1020    0.1130    3.7810 c3        1 QYD      0.025700
      8 C8          1.5230    1.2620    4.6180 c3        1 QYD      0.067000
      9 N9          2.0710    1.3820    5.9550 n         1 QYD     -0.427800
     10 C10         1.8510    0.2030    6.7830 c3        1 QYD      0.069000
     11 C11         2.4250   -1.0920    6.2290 c3        1 QYD     -0.056300
     12 S12         1.8530   -1.4570    4.5990 ss        1 QYD     -0.281200
     13 C13         3.3480    2.0090    6.1340 c         1 QYD      0.750100
     14 O14         4.1700    1.5480    6.9560 o         1 QYD     -0.606100
     15 N15         3.6090    3.1970    5.4230 n         1 QYD     -0.462100
     16 C16         4.7470    3.9960    5.5790 ca        1 QYD      0.124600
     17 C17         4.6890    5.3360    5.1100 ca        1 QYD     -0.186000
     18 C18         5.7980    6.1640    5.1840 ca        1 QYD     -0.037500
     19 C19         6.9960    5.6750    5.7330 ca        1 QYD     -0.213200
     20 C20         7.0710    4.3550    6.2040 ca        1 QYD     -0.037500
     21 C21         5.9610    3.5250    6.1270 ca        1 QYD     -0.186000
     22 N22         8.1820    6.5590    5.8130 no        1 QYD      0.319200
     23 O23         8.0980    7.6870    5.4050 o         1 QYD     -0.213000
     24 O24         9.2010    6.1270    6.2840 o         1 QYD     -0.213000
     25 H1         -0.2380   -0.1570   -1.0610 ha        1 QYD      0.135000
     26 H2          2.2040    0.3240   -0.8710 ha        1 QYD      0.136000
     27 H6         -1.5970   -0.5290    1.0000 ha        1 QYD      0.136000
     28 H3          3.2840    0.4410    1.3670 ha        1 QYD      0.139000
     29 H5         -0.5200   -0.4230    3.2440 ha        1 QYD      0.139000
     30 H7          3.2070    0.2730    3.6550 h1        1 QYD      0.081700
     31 H81C        0.4120    1.0950    4.7400 h1        1 QYD      0.070700
     32 H82C        1.6510    2.2200    4.0440 h1        1 QYD      0.070700
     33 H101        0.7330    0.1040    6.8960 h1        1 QYD      0.081200
     34 H102        2.2960    0.3930    7.8020 h1        1 QYD      0.081200
     35 H111        3.5420   -1.0520    6.2550 h1        1 QYD      0.090200
     36 H112        2.0920   -1.9490    6.8670 h1        1 QYD      0.090200
     37 H15         2.8420    3.6390    4.9630 hn        1 QYD      0.325500
     38 H17         3.7600    5.7390    4.6780 ha        1 QYD      0.165000
     39 H21         6.0440    2.4930    6.5100 ha        1 QYD      0.165000
     40 H18         5.7400    7.2030    4.8160 ha        1 QYD      0.172500
     41 H20         8.0130    3.9740    6.6370 ha        1 QYD      0.172500
@<TRIPOS>BOND
     1    1    2 ar  
     2    1    6 ar  
     3    1   25 1   
     4    2    3 ar  
     5    2   26 1   
     6    3    4 ar  
     7    3   28 1   
     8    4    5 ar  
     9    4    7 1   
    10    5    6 ar  
    11    5   29 1   
    12    6   27 1   
    13    7    8 1   
    14    7   12 1   
    15    7   30 1   
    16    8    9 1   
    17    8   31 1   
    18    8   32 1   
    19    9   10 1   
    20    9   13 1   
    21   10   11 1   
    22   10   33 1   
    23   10   34 1   
    24   11   12 1   
    25   11   35 1   
    26   11   36 1   
    27   13   14 2   
    28   13   15 1   
    29   15   16 1   
    30   15   37 1   
    31   16   17 ar  
    32   16   21 ar  
    33   17   18 ar  
    34   17   38 1   
    35   18   19 ar  
    36   18   40 1   
    37   19   20 ar  
    38   19   22 1   
    39   20   21 ar  
    40   20   41 1   
    41   21   39 1   
    42   22   23 1   
    43   22   24 1   
@<TRIPOS>SUBSTRUCTURE
     1 QYD         1 TEMP              0 ****  ****    0 ROOT
