@<TRIPOS>MOLECULE
QYD
   41    43     1     0     0
SMALL
bcc


@<TRIPOS>ATOM
      1 C1          0.2400   -0.1000   -0.0740 ca        1 QYD     -0.119000
      2 C2          1.6050    0.1650    0.0360 ca        1 QYD     -0.129500
      3 C3          2.2070    0.2330    1.2910 ca        1 QYD     -0.112500
      4 C4          1.4450    0.0370    2.4500 ca        1 QYD     -0.083300
      5 C5          0.0750   -0.2340    2.3340 ca        1 QYD     -0.112500
      6 C6         -0.5230   -0.3010    1.0770 ca        1 QYD     -0.129500
      7 C7          2.0970    0.1160    3.7820 c3        1 QYD      0.025700
      8 C8          1.5200    1.2680    4.6160 c3        1 QYD      0.067000
      9 N9          2.0660    1.3890    5.9540 n         1 QYD     -0.427800
     10 C10         1.8390    0.2120    6.7830 c3        1 QYD      0.069000
     11 C11         2.4100   -1.0860    6.2330 c3        1 QYD     -0.056300
     12 S12         1.8410   -1.4520    4.6020 ss        1 QYD     -0.281200
     13 C13         3.3440    2.0120    6.1350 c         1 QYD      0.750100
     14 O14         4.1630    1.5490    6.9590 o         1 QYD     -0.606100
     15 N15         3.6110    3.1980    5.4220 ns        1 QYD     -0.462100
     16 C16         4.7510    3.9930    5.5790 ca        1 QYD      0.124600
     17 C17         4.7000    5.3320    5.1080 ca        1 QYD     -0.186000
     18 C18         5.8120    6.1560    5.1830 ca        1 QYD     -0.037500
     19 C19         7.0060    5.6640    5.7340 ca        1 QYD     -0.213200
     20 C20         7.0750    4.3440    6.2080 ca        1 QYD     -0.037500
     21 C21         5.9630    3.5180    6.1300 ca        1 QYD     -0.186000
     22 N22         8.1960    6.5430    5.8160 no        1 QYD      0.319200
     23 O23         8.1160    7.6710    5.4050 o         1 QYD     -0.213000
     24 O24         9.2120    6.1080    6.2880 o         1 QYD     -0.213000
     25 H1         -0.2330   -0.1540   -1.0650 ha        1 QYD      0.135000
     26 H2          2.2110    0.3190   -0.8700 ha        1 QYD      0.136000
     27 H6         -1.5980   -0.5180    0.9940 ha        1 QYD      0.136000
     28 H3          3.2860    0.4350    1.3700 ha        1 QYD      0.139000
     29 H5         -0.5260   -0.4120    3.2400 ha        1 QYD      0.139000
     30 H7          3.2020    0.2720    3.6580 h1        1 QYD      0.081700
     31 H81C        0.4080    1.1050    4.7350 h1        1 QYD      0.070700
     32 H82C        1.6530    2.2250    4.0400 h1        1 QYD      0.070700
     33 H101        0.7210    0.1170    6.8940 h1        1 QYD      0.081200
     34 H102        2.2830    0.4030    7.8030 h1        1 QYD      0.081200
     35 H111        2.0730   -1.9400    6.8710 h1        1 QYD      0.090200
     36 H112        3.5270   -1.0490    6.2610 h1        1 QYD      0.090200
     37 H15         2.8460    3.6420    4.9600 hn        1 QYD      0.325500
     38 H17         3.7720    5.7380    4.6740 ha        1 QYD      0.165000
     39 H21         6.0410    2.4860    6.5140 ha        1 QYD      0.165000
     40 H18         5.7580    7.1950    4.8130 ha        1 QYD      0.172500
     41 H20         8.0150    3.9600    6.6430 ha        1 QYD      0.172500
@<TRIPOS>BOND
     1    1    2 ar  
     2    1    6 ar  
     3    1   25 1   
     4    2    3 ar  
     5    2   26 1   
     6    3    4 ar  
     7    3   28 1   
     8    4    5 ar  
     9    4    7 1   
    10    5    6 ar  
    11    5   29 1   
    12    6   27 1   
    13    7    8 1   
    14    7   12 1   
    15    7   30 1   
    16    8    9 1   
    17    8   31 1   
    18    8   32 1   
    19    9   10 1   
    20    9   13 1   
    21   10   11 1   
    22   10   33 1   
    23   10   34 1   
    24   11   12 1   
    25   11   35 1   
    26   11   36 1   
    27   13   14 2   
    28   13   15 1   
    29   15   16 1   
    30   15   37 1   
    31   16   17 ar  
    32   16   21 ar  
    33   17   18 ar  
    34   17   38 1   
    35   18   19 ar  
    36   18   40 1   
    37   19   20 ar  
    38   19   22 1   
    39   20   21 ar  
    40   20   41 1   
    41   21   39 1   
    42   22   23 1   
    43   22   24 1   
@<TRIPOS>SUBSTRUCTURE
     1 QYD         1 TEMP              0 ****  ****    0 ROOT
