@<TRIPOS>MOLECULE
QYT
   25    27     1     0     0
SMALL
bcc


@<TRIPOS>ATOM
      1 C1         -2.7870   -1.9110   -0.3150 ca        1 QYT     -0.158300
      2 C2         -1.4380   -2.1380   -0.2430 ca        1 QYT     -0.103000
      3 C3         -0.5190   -1.0820    0.0260 ca        1 QYT     -0.081800
      4 C7          3.3310   -1.1090    0.0990 c         1 QYT      0.706700
      5 C11         3.7340    1.2190   -0.0500 c         1 QYT      0.707100
      6 C13        -2.3910    0.4750    0.1690 ca        1 QYT      0.275300
      7 C14        -3.3070   -0.5970   -0.1130 ca        1 QYT      0.299300
      8 C16        -5.0780    0.8740    0.0170 ca        1 QYT      0.304900
      9 N18        -2.8520    1.7690    0.3790 nb        1 QYT     -0.613000
     10 C4         -0.9930    0.2000    0.2320 ca        1 QYT     -0.120300
     11 C5          0.8880   -1.4210    0.0770 ce        1 QYT      0.013800
     12 C6          1.9350   -0.5760    0.0520 cd        1 QYT     -0.139600
     13 S8          1.9600    1.1290   -0.0470 ss        1 QYT     -0.097200
     14 N9          4.2740   -0.0700    0.0370 n         1 QYT     -0.612500
     15 O12         4.4230    2.2410   -0.1130 o         1 QYT     -0.547500
     16 N15        -4.6740   -0.3650   -0.1850 nb        1 QYT     -0.621000
     17 C17        -4.1550    1.9550    0.3030 ca        1 QYT      0.295900
     18 H1         -3.4860   -2.7350   -0.5290 ha        1 QYT      0.159000
     19 H2         -1.0430   -3.1560   -0.3980 ha        1 QYT      0.145000
     20 H16        -6.1630    1.0730   -0.0380 h4        1 QYT      0.038100
     21 H4         -0.3080    1.0360    0.4660 ha        1 QYT      0.163000
     22 H5          1.1110   -2.5090    0.1320 ha        1 QYT      0.163000
     23 HN9         5.2520   -0.2420    0.0520 hn        1 QYT      0.356500
     24 H17        -4.5350    2.9780    0.4680 h4        1 QYT      0.039100
     25 O10         3.6550   -2.3000    0.1780 o         1 QYT     -0.574500
@<TRIPOS>BOND
     1    1    2 ar  
     2    1    7 ar  
     3    1   18 1   
     4    2    3 ar  
     5    2   19 1   
     6    3   10 ar  
     7    3   11 1   
     8    4   12 1   
     9    4   14 1   
    10    4   25 2   
    11    5   13 1   
    12    5   14 1   
    13    5   15 2   
    14    6    7 ar  
    15    6    9 ar  
    16    6   10 ar  
    17    7   16 ar  
    18    8   16 ar  
    19    8   17 ar  
    20    8   20 1   
    21    9   17 ar  
    22   10   21 1   
    23   11   12 2   
    24   11   22 1   
    25   12   13 1   
    26   14   23 1   
    27   17   24 1   
@<TRIPOS>SUBSTRUCTURE
     1 QYT         1 TEMP              0 ****  ****    0 ROOT
