@<TRIPOS>MOLECULE
QYT
   25    25     1     0     0
SMALL
bcc


@<TRIPOS>ATOM
      1 C1         -0.7220    0.4220   -0.2020 c2        1 QYT     -0.203000
      2 C2          1.0870   -0.0830    1.9600 c1        1 QYT     -0.067000
      3 C3          2.3410    0.2840    1.8910 c2        1 QYT     -0.077000
      4 C7          5.7090   -0.4780    0.7950 c1        1 QYT      0.441000
      5 C11         5.9740    1.2390    6.1830 c1        1 QYT      0.310000
      6 C13        -0.1660   -0.4880    2.0270 c2        1 QYT      0.013000
      7 C14        -1.1370   -0.1480    0.9460 c2        1 QYT     -0.045000
      8 C16        -2.9310   -1.1130    2.2700 c1        1 QYT     -0.092000
      9 N18        -0.6610   -1.2570    3.1360 n7        1 QYT     -0.134000
     10 C4          2.8580    1.5750    2.4550 c3        1 QYT     -0.244000
     11 C5          3.3600   -0.5400    1.2490 c1        1 QYT      0.011000
     12 C6          4.6180    0.0800    1.3330 c2        1 QYT     -0.462000
     13 S8          4.6230    1.6120    2.1500 ss        1 QYT      0.118000
     14 N9          5.0100    1.2200    5.4210 n2        1 QYT     -0.382000
     15 O12         6.7310    1.2370    7.1190 o         1 QYT     -0.224000
     16 N15        -2.5100   -0.4670    1.2060 n7        1 QYT     -0.144000
     17 C17        -1.9260   -1.5760    3.2850 c1        1 QYT     -0.083000
     18 H1          0.3390    0.6440   -0.3810 ha        1 QYT      0.137500
     19 H2         -1.4060    0.6880   -1.0180 ha        1 QYT      0.137500
     20 H16        -3.1590   -0.1720    0.5050 hn        1 QYT      0.251000
     21 H4          2.3870    2.4560    1.9580 h1        1 QYT      0.134000
     22 H5          2.6820    1.6440    3.5550 h1        1 QYT      0.134000
     23 HN9         5.0140    1.2680    4.4260 hn        1 QYT      0.276000
     24 H17         0.0240   -1.5490    3.8030 hn        1 QYT      0.258000
     25 O10         6.6600   -0.9800    0.3220 o         1 QYT     -0.063000
@<TRIPOS>BOND
     1    1    7 1   
     2    1   18 1   
     3    1   19 1   
     4    2    3 1   
     5    2    6 1   
     6    3   10 1   
     7    3   11 1   
     8    4   12 1   
     9    4   25 1   
    10    5   14 1   
    11    5   15 1   
    12    6    7 1   
    13    6    9 1   
    14    7   16 1   
    15    8   16 1   
    16    8   17 1   
    17    9   17 1   
    18    9   24 1   
    19   10   13 1   
    20   10   21 1   
    21   10   22 1   
    22   11   12 1   
    23   12   13 1   
    24   14   23 1   
    25   16   20 1   
@<TRIPOS>SUBSTRUCTURE
     1 QYT         1 TEMP              0 ****  ****    0 ROOT
