@<TRIPOS>MOLECULE
QYT
   25    23     1     0     0
SMALL
bcc


@<TRIPOS>ATOM
      1 C1         -0.4340   -0.4140   -0.4750 c2        1 QYT      0.020000
      2 C2          1.7040    0.2810    0.0010 c1        1 QYT      0.290000
      3 C3          2.5460    0.1540    1.0210 c2        1 QYT     -0.426000
      4 C7          6.0270    0.4610    1.9680 c1        1 QYT      0.457000
      5 C11         6.2660    2.3450    5.4920 c1        1 QYT      0.324000
      6 C13        -0.6330   -1.1870    1.7920 c1        1 QYT     -0.059000
      7 C14        -0.8060   -0.1630    0.8010 c2        1 QYT     -0.317000
      8 C16        -2.8330    0.6860    2.9800 c1        1 QYT     -0.195000
      9 N18        -1.2980   -1.2220    2.9790 n3        1 QYT     -0.162000
     10 C4          2.2430   -0.3160    2.4030 c3        1 QYT     -0.200000
     11 C5          3.9450    0.4810    0.7810 c1        1 QYT      0.016000
     12 C6          4.7100    0.2190    1.9310 c2        1 QYT     -0.464000
     13 S8          3.8100   -0.4260    3.2670 ss        1 QYT      0.119000
     14 N9          5.7970    1.6510    4.5880 n2        1 QYT     -0.406000
     15 O12         6.9380    3.0140    6.2300 o         1 QYT     -0.208000
     16 N15        -3.4420    1.6440    2.6990 n1        1 QYT     -0.002000
     17 C17        -2.2460   -0.4760    3.5530 c1        1 QYT      0.056000
     18 H1         -0.0410   -1.3940   -0.7910 ha        1 QYT      0.138500
     19 H2         -0.5740    0.3290   -1.2760 ha        1 QYT      0.138500
     20 H16        -1.2380    0.8220    1.0600 ha        1 QYT      0.130000
     21 H4          1.5820    0.4050    2.9410 h1        1 QYT      0.127000
     22 H5          1.7530   -1.3230    2.3980 h1        1 QYT      0.127000
     23 HN9         4.8720    1.2870    4.5290 hn        1 QYT      0.277000
     24 H17        -1.0280   -2.0130    3.5460 hn        1 QYT      0.275000
     25 O10         7.1820    0.6710    1.9750 o         1 QYT     -0.056000
@<TRIPOS>BOND
     1    1    7 1   
     2    1   18 1   
     3    1   19 1   
     4    2    3 1   
     5    3   10 1   
     6    3   11 1   
     7    4   12 1   
     8    4   25 1   
     9    5   14 1   
    10    5   15 1   
    11    6    7 1   
    12    6    9 1   
    13    7   20 1   
    14    8   16 1   
    15    8   17 1   
    16    9   17 1   
    17    9   24 1   
    18   10   13 1   
    19   10   21 1   
    20   10   22 1   
    21   11   12 1   
    22   12   13 1   
    23   14   23 1   
@<TRIPOS>SUBSTRUCTURE
     1 QYT         1 TEMP              0 ****  ****    0 ROOT
