@<TRIPOS>MOLECULE
QYT
   25    23     1     0     0
SMALL
bcc


@<TRIPOS>ATOM
      1 C1         -1.0320   -1.4240   -0.1620 c2        1 QYT     -0.119000
      2 C2          1.7750   -0.2080    1.2320 c1        1 QYT      0.348000
      3 C3          2.7490    0.5780    1.6800 c2        1 QYT     -0.455000
      4 C7          6.2880    1.2850    1.4110 c1        1 QYT      0.450000
      5 C11         7.7340    1.3190    5.1820 c1        1 QYT      0.322000
      6 C13        -2.8920   -2.0360    1.5580 c2        1 QYT     -0.107000
      7 C14        -1.9610   -1.7120    0.6930 c1        1 QYT     -0.173000
      8 C16        -1.5080    0.2970    2.9400 c1        1 QYT     -0.128000
      9 N18        -3.4000   -1.1750    2.5670 n3        1 QYT     -0.113000
     10 C4          2.6310    1.6710    2.6860 c3        1 QYT     -0.177000
     11 C5          4.0850    0.3740    1.1470 c1        1 QYT      0.009000
     12 C6          4.9850    1.2920    1.7200 c2        1 QYT     -0.463000
     13 S8          4.2680    2.3980    2.8450 ss        1 QYT      0.108000
     14 N9          6.9550    1.4530    4.2380 n2        1 QYT     -0.403000
     15 O12         8.6710    1.1520    5.9170 o         1 QYT     -0.214000
     16 N15        -0.4550    0.7980    2.8850 n1        1 QYT     -0.082000
     17 C17        -2.8360   -0.1670    3.1780 c1        1 QYT     -0.013000
     18 H1          0.0420   -1.5590    0.0680 ha        1 QYT      0.155500
     19 H2         -1.2570   -1.0110   -1.1580 ha        1 QYT      0.155500
     20 H16        -3.3550   -3.0430    1.5540 h4        1 QYT      0.162000
     21 H4          1.9200    2.4660    2.3570 h1        1 QYT      0.129000
     22 H5          2.3040    1.2850    3.6810 h1        1 QYT      0.129000
     23 HN9         5.9770    1.6390    4.2840 hn        1 QYT      0.280000
     24 H17        -4.3370   -1.3870    2.8570 hn        1 QYT      0.261000
     25 O10         7.4270    1.2690    1.1240 o         1 QYT     -0.063000
@<TRIPOS>BOND
     1    1    7 1   
     2    1   18 1   
     3    1   19 1   
     4    2    3 1   
     5    3   10 1   
     6    3   11 1   
     7    4   12 1   
     8    4   25 1   
     9    5   14 1   
    10    5   15 1   
    11    6    7 1   
    12    6    9 1   
    13    6   20 1   
    14    8   16 1   
    15    8   17 1   
    16    9   17 1   
    17    9   24 1   
    18   10   13 1   
    19   10   21 1   
    20   10   22 1   
    21   11   12 1   
    22   12   13 1   
    23   14   23 1   
@<TRIPOS>SUBSTRUCTURE
     1 QYT         1 TEMP              0 ****  ****    0 ROOT
