@<TRIPOS>MOLECULE
QZ3
   45    47     1     0     0
SMALL
bcc


@<TRIPOS>ATOM
      1 C15        -2.2080   -2.4090    1.7120 cg        1 QZ3      0.212500
      2 C18         0.0000    0.0000    0.0000 ca        1 QZ3     -0.079000
      3 C22         0.0070    0.0000    2.4220 ca        1 QZ3     -0.079000
      4 C19         1.3710    0.0000    0.0000 ca        1 QZ3     -0.093500
      5 C21         1.3780    0.0000    2.4140 ca        1 QZ3     -0.093500
      6 C4         -5.0240    2.3870    0.7370 ca        1 QZ3     -0.278300
      7 C17        -0.6980    0.0000    1.2130 ca        1 QZ3     -0.075800
      8 C6         -2.9280    1.2340    0.9670 ca        1 QZ3     -0.264100
      9 C5         -4.3350    1.1990    0.9780 ca        1 QZ3     -0.022400
     10 C20         2.0690    0.0000    1.2050 ca        1 QZ3      0.073600
     11 C3         -4.3040    3.5380    0.4990 ca        1 QZ3      0.453600
     12 C7         -2.2800    2.4460    0.7180 ca        1 QZ3      0.476600
     13 C11        -2.8930   -1.1760    1.4610 cc        1 QZ3     -0.051900
     14 C10        -2.1720    0.0010    1.2180 cd        1 QZ3      0.125600
     15 C12        -4.3560   -1.1270    1.4560 c         1 QZ3      0.604700
     16 C1         -4.5640    5.8950    1.2250 c3        1 QZ3      0.120900
     17 C27         3.7710   -2.6580    0.5860 c3        1 QZ3      0.026700
     18 C2         -5.0400    4.8270    0.2380 c3        1 QZ3     -0.256700
     19 N16        -1.6710   -3.3850    1.9310 n1        1 QZ3     -0.364800
     20 N8         -2.9820    3.5380    0.4960 nb        1 QZ3     -0.629000
     21 N14        -5.0080    0.0250    1.2210 ns        1 QZ3      0.043900
     22 N23         3.4600   -0.0010    1.2010 nu        1 QZ3     -0.432500
     23 O13        -4.9910   -2.1450    1.6650 o         1 QZ3     -0.651500
     24 O25         3.7850   -1.5770    3.0260 o         1 QZ3     -0.586800
     25 O26         5.6540   -1.0070    1.5080 o         1 QZ3     -0.586800
     26 S24         4.2880   -1.3380    1.7180 s6        1 QZ3      0.931900
     27 H18        -0.5200    0.0030   -0.9500 ha        1 QZ3      0.120000
     28 H19         2.0820    0.2320   -0.7840 ha        1 QZ3      0.132500
     29 H22        -0.6840   -0.2500    3.2180 ha        1 QZ3      0.120000
     30 H21         1.7230    0.1080    3.4360 ha        1 QZ3      0.132500
     31 H4         -6.0980    2.5250    0.7080 ha        1 QZ3      0.140000
     32 H14        -5.9330   -0.0560    0.8470 hn        1 QZ3      0.180500
     33 H23         4.1990    0.6700    1.2770 hn        1 QZ3      0.358800
     34 H21C       -5.5200    4.6300   -0.7130 hc        1 QZ3      0.078200
     35 H22C       -4.4020    5.6260   -0.1180 hc        1 QZ3      0.078200
     36 H91C       -0.7070    3.0070   -0.2560 hc        1 QZ3      0.054033
     37 H92C       -0.2150    3.0400    1.4580 hc        1 QZ3      0.054033
     38 H93C       -0.4620    1.5330    0.3320 hc        1 QZ3      0.054033
     39 H11C       -3.5390    5.7670    1.5500 hc        1 QZ3     -0.006633
     40 H12C       -4.3720    6.9210    0.9350 hc        1 QZ3     -0.006633
     41 H13C       -5.1410    5.9450    2.1400 hc        1 QZ3     -0.006633
     42 H271        2.7060   -2.7810    0.4340 h1        1 QZ3      0.058033
     43 H272        3.8290   -2.0590   -0.3150 h1        1 QZ3      0.058033
     44 H273        4.4610   -3.4490    0.3180 h1        1 QZ3      0.058033
     45 C9         -0.7740    2.5030    0.7010 c3        1 QZ3     -0.180400
@<TRIPOS>BOND
     1    1   13 1   
     2    1   19 3   
     3    2    4 ar  
     4    2    7 ar  
     5    2   27 1   
     6    3    5 ar  
     7    3    7 ar  
     8    3   29 1   
     9    4   10 ar  
    10    4   28 1   
    11    5   10 ar  
    12    5   30 1   
    13    6    9 ar  
    14    6   11 ar  
    15    6   31 1   
    16    7   14 1   
    17    8    9 ar  
    18    8   12 ar  
    19    8   14 1   
    20    9   21 1   
    21   10   22 1   
    22   11   18 1   
    23   11   20 ar  
    24   12   20 ar  
    25   12   45 1   
    26   13   14 2   
    27   13   15 1   
    28   15   21 1   
    29   15   23 2   
    30   16   18 1   
    31   16   39 1   
    32   16   40 1   
    33   16   41 1   
    34   17   26 1   
    35   17   42 1   
    36   17   43 1   
    37   17   44 1   
    38   18   34 1   
    39   18   35 1   
    40   21   32 1   
    41   22   26 1   
    42   22   33 1   
    43   24   26 2   
    44   25   26 2   
    45   36   45 1   
    46   37   45 1   
    47   38   45 1   
@<TRIPOS>SUBSTRUCTURE
     1 QZ3         1 TEMP              0 ****  ****    0 ROOT
