@<TRIPOS>MOLECULE
QZ3
   45    47     1     0     0
SMALL
bcc


@<TRIPOS>ATOM
      1 C15        -2.2160   -2.3540    1.1710 cg        1 QZ3      0.214500
      2 C18        -0.1050   -0.2350   -0.4270 ca        1 QZ3     -0.073500
      3 C22         0.0760    0.0040    1.9700 ca        1 QZ3     -0.073500
      4 C19         1.2690   -0.4220   -0.5170 ca        1 QZ3     -0.180000
      5 C21         1.4520   -0.1750    1.8940 ca        1 QZ3     -0.180000
      6 C4         -5.0540    2.5040    0.8690 ca        1 QZ3     -0.324300
      7 C17        -0.7170   -0.0240    0.8150 ca        1 QZ3     -0.118800
      8 C6         -2.8910    1.3310    0.8380 ca        1 QZ3     -0.266100
      9 C5         -4.3190    1.2930    0.9430 ca        1 QZ3      0.142600
     10 C20         2.0740   -0.4060    0.6460 ca        1 QZ3      0.185600
     11 C3         -4.3650    3.7050    0.6970 ca        1 QZ3      0.481600
     12 C7         -2.2960    2.6230    0.6650 ca        1 QZ3      0.507600
     13 C11        -2.8720   -1.0990    1.0870 cc        1 QZ3     -0.094900
     14 C10        -2.1810    0.0750    0.9150 cd        1 QZ3      0.157600
     15 C12        -4.3400   -1.1370    1.1970 c         1 QZ3      0.711700
     16 C1         -4.8740    5.8890    1.7920 c3        1 QZ3     -0.090100
     17 C27         4.0830   -2.6820    2.0120 c3        1 QZ3     -0.377300
     18 C2         -5.1430    4.9890    0.6120 c3        1 QZ3     -0.134700
     19 N16        -1.6870   -3.3880    1.2400 n1        1 QZ3     -0.350800
     20 N8         -3.0090    3.7600    0.5960 nb        1 QZ3     -0.705000
     21 N14        -4.9940    0.0990    1.1140 n         1 QZ3     -0.442100
     22 N23         3.4550   -0.6170    0.5430 nh        1 QZ3     -0.775500
     23 O13        -5.0270   -2.1600    1.3530 o         1 QZ3     -0.603500
     24 O25         4.3110   -0.3380    2.8970 o         1 QZ3     -0.646300
     25 O26         5.7930   -1.0350    1.1420 o         1 QZ3     -0.646300
     26 S24         4.5060   -1.0680    1.7130 s6        1 QZ3      1.469900
     27 H18        -0.7170   -0.2620   -1.3430 ha        1 QZ3      0.147500
     28 H19         1.7220   -0.5880   -1.5060 ha        1 QZ3      0.157500
     29 H22        -0.3920    0.1710    2.9530 ha        1 QZ3      0.147500
     30 H21         2.0470   -0.1210    2.8230 ha        1 QZ3      0.157500
     31 H4         -6.1510    2.5000    0.9480 ha        1 QZ3      0.152000
     32 H14        -5.9890    0.1120    1.1850 hn        1 QZ3      0.341500
     33 H23         3.7980   -0.4980   -0.3870 hn        1 QZ3      0.458800
     34 H21C       -4.8710    5.5230   -0.3390 hc        1 QZ3      0.059200
     35 H22C       -6.2390    4.7480    0.5600 hc        1 QZ3      0.059200
     36 H91C       -0.4410    2.2100   -0.3370 hc        1 QZ3      0.066367
     37 H92C       -0.3200    2.3900    1.4760 hc        1 QZ3      0.066367
     38 H93C       -0.5120    3.8530    0.4240 hc        1 QZ3      0.066367
     39 H11C       -5.4970    6.8130    1.7110 hc        1 QZ3      0.043700
     40 H12C       -5.1280    5.3740    2.7500 hc        1 QZ3      0.043700
     41 H13C       -3.7990    6.1890    1.8260 hc        1 QZ3      0.043700
     42 H271        3.0030   -2.8330    2.2600 h1        1 QZ3      0.123033
     43 H272        4.3110   -3.3660    1.1580 h1        1 QZ3      0.123033
     44 H273        4.6560   -3.0800    2.8890 h1        1 QZ3      0.123033
     45 C9         -0.8110    2.7810    0.5500 c3        1 QZ3     -0.166400
@<TRIPOS>BOND
     1    1   13 1   
     2    1   19 3   
     3    2    4 ar  
     4    2    7 ar  
     5    2   27 1   
     6    3    5 ar  
     7    3    7 ar  
     8    3   29 1   
     9    4   10 ar  
    10    4   28 1   
    11    5   10 ar  
    12    5   30 1   
    13    6    9 ar  
    14    6   11 ar  
    15    6   31 1   
    16    7   14 1   
    17    8    9 ar  
    18    8   12 ar  
    19    8   14 1   
    20    9   21 1   
    21   10   22 1   
    22   11   18 1   
    23   11   20 ar  
    24   12   20 ar  
    25   12   45 1   
    26   13   14 2   
    27   13   15 1   
    28   15   21 1   
    29   15   23 2   
    30   16   18 1   
    31   16   39 1   
    32   16   40 1   
    33   16   41 1   
    34   17   26 1   
    35   17   42 1   
    36   17   43 1   
    37   17   44 1   
    38   18   34 1   
    39   18   35 1   
    40   21   32 1   
    41   22   26 1   
    42   22   33 1   
    43   24   26 2   
    44   25   26 2   
    45   36   45 1   
    46   37   45 1   
    47   38   45 1   
@<TRIPOS>SUBSTRUCTURE
     1 QZ3         1 TEMP              0 ****  ****    0 ROOT
