@<TRIPOS>MOLECULE
QZE
   46    50     1     0     0
SMALL
bcc


@<TRIPOS>ATOM
      1 C14        -2.8180   -0.1780    7.3640 cg        1 QZE      0.232500
      2 C1         -0.0220    0.2890    0.0020 ca        1 QZE     -0.144000
      3 C2          1.3660    0.2000   -0.0130 ca        1 QZE     -0.106000
      4 C6         -0.7150    0.2440    1.2090 ca        1 QZE     -0.112000
      5 C17         0.0550   -0.2700    8.4420 ca        1 QZE     -0.124500
      6 C21         0.6270    1.8770    7.4810 ca        1 QZE     -0.124500
      7 C18         0.7850    0.0520    9.5830 ca        1 QZE     -0.115000
      8 C20         1.3400    2.1980    8.6300 ca        1 QZE     -0.115000
      9 C31         4.3180   -1.0480    0.6580 cc        1 QZE     -0.133300
     10 C28         4.4800    1.0340    1.5240 cd        1 QZE      0.313200
     11 C3          2.0830    0.0860    1.1880 ca        1 QZE     -0.008000
     12 C27         3.5250    0.0120    1.1320 cd        1 QZE     -0.214300
     13 C16        -0.0150    0.6330    7.3710 ca        1 QZE     -0.144800
     14 C5         -0.0200    0.1020    2.4150 ca        1 QZE     -0.071800
     15 C19         1.4410    1.2830    9.6850 ca        1 QZE     -0.096600
     16 C4          1.3900    0.0500    2.4100 ca        1 QZE     -0.020300
     17 C10        -2.0550   -0.1150    6.1730 cc        1 QZE     -0.125900
     18 C9         -0.7320    0.2780    6.1480 cd        1 QZE      0.168800
     19 C7         -0.7170    0.0180    3.7120 cc        1 QZE      0.117400
     20 C8         -0.0430    0.3250    4.8850 cd        1 QZE     -0.164200
     21 C11        -2.7640   -0.4830    4.9450 c         1 QZE      0.704700
     22 C22         2.2680    1.6230   10.9200 c         1 QZE      0.906200
     23 C26         2.1140   -0.0560    3.7060 c3        1 QZE     -0.048100
     24 C25         1.3970    0.6860    4.8180 c3        1 QZE     -0.028200
     25 N15        -3.4700   -0.2320    8.3270 n1        1 QZE     -0.374800
     26 N30         5.6430   -0.6270    0.7760 na        1 QZE     -0.025600
     27 N29         5.7450    0.6000    1.2920 nc        1 QZE     -0.514800
     28 N13        -2.0370   -0.3880    3.7450 n         1 QZE     -0.439100
     29 O12        -3.9470   -0.8700    4.8610 o         1 QZE     -0.651500
     30 O23         2.3670    0.7440   11.8200 o         1 QZE     -0.821800
     31 O24         2.8130    2.7610   10.9640 o         1 QZE     -0.821800
     32 H1         -0.5750    0.4000   -0.9430 ha        1 QZE      0.132000
     33 H2          1.9110    0.2310   -0.9680 ha        1 QZE      0.134000
     34 H6         -1.8110    0.3420    1.1890 ha        1 QZE      0.132000
     35 H17        -0.4640   -1.2380    8.3720 ha        1 QZE      0.116000
     36 H18         0.8630   -0.6520   10.4280 ha        1 QZE      0.159500
     37 H21         0.5560    2.5990    6.6540 ha        1 QZE      0.116000
     38 H20         1.8450    3.1720    8.7370 ha        1 QZE      0.159500
     39 H31         4.0460   -2.0270    0.2660 h4        1 QZE      0.178000
     40 H30         6.4580   -1.1540    0.5730 hn        1 QZE      0.319700
     41 H28         4.2650    2.0160    1.9450 h4        1 QZE      0.052100
     42 H261        3.1550    0.3530    3.6070 hc        1 QZE      0.065700
     43 H262        2.2060   -1.1440    3.9750 hc        1 QZE      0.065700
     44 H13        -2.4970   -0.6440    2.9000 hn        1 QZE      0.327500
     45 H251        1.9010    0.4510    5.7960 hc        1 QZE      0.073700
     46 H252        1.4910    1.7950    4.6570 hc        1 QZE      0.073700
@<TRIPOS>BOND
     1    1   17 1   
     2    1   25 3   
     3    2    3 ar  
     4    2    4 ar  
     5    2   32 1   
     6    3   11 ar  
     7    3   33 1   
     8    4   14 ar  
     9    4   34 1   
    10    5    7 ar  
    11    5   13 ar  
    12    5   35 1   
    13    6    8 ar  
    14    6   13 ar  
    15    6   37 1   
    16    7   15 ar  
    17    7   36 1   
    18    8   15 ar  
    19    8   38 1   
    20    9   12 2   
    21    9   26 1   
    22    9   39 1   
    23   10   12 1   
    24   10   27 2   
    25   10   41 1   
    26   11   12 1   
    27   11   16 ar  
    28   13   18 1   
    29   14   16 ar  
    30   14   19 1   
    31   15   22 1   
    32   16   23 1   
    33   17   18 2   
    34   17   21 1   
    35   18   20 1   
    36   19   20 2   
    37   19   28 1   
    38   20   24 1   
    39   21   28 1   
    40   21   29 2   
    41   22   30 1   
    42   22   31 1   
    43   23   24 1   
    44   23   42 1   
    45   23   43 1   
    46   24   45 1   
    47   24   46 1   
    48   26   27 1   
    49   26   40 1   
    50   28   44 1   
@<TRIPOS>SUBSTRUCTURE
     1 QZE         1 TEMP              0 ****  ****    0 ROOT
