@<TRIPOS>MOLECULE
QZE
   46    50     1     0     0
SMALL
bcc


@<TRIPOS>ATOM
      1 C14        -2.8300   -0.1960    7.3310 cg        1 QZE      0.232500
      2 C1         -0.0070    0.3110   -0.0190 ca        1 QZE     -0.144000
      3 C2          1.3830    0.2410   -0.0260 ca        1 QZE     -0.106000
      4 C6         -0.7050    0.2550    1.1850 ca        1 QZE     -0.112000
      5 C17         0.0390   -0.2460    8.4220 ca        1 QZE     -0.124500
      6 C21         0.5840    1.9090    7.4630 ca        1 QZE     -0.124500
      7 C18         0.7580    0.0880    9.5660 ca        1 QZE     -0.115000
      8 C20         1.2870    2.2410    8.6160 ca        1 QZE     -0.115000
      9 C31         4.3490   -0.9650    0.6600 cc        1 QZE     -0.133300
     10 C28         4.4770    1.1210    1.5220 cd        1 QZE      0.313200
     11 C3          2.0950    0.1380    1.1770 ca        1 QZE     -0.008000
     12 C27         3.5380    0.0850    1.1290 cd        1 QZE     -0.214300
     13 C16        -0.0390    0.6560    7.3500 ca        1 QZE     -0.144800
     14 C5         -0.0130    0.1240    2.3950 ca        1 QZE     -0.071800
     15 C19         1.3960    1.3280    9.6710 ca        1 QZE     -0.096600
     16 C4          1.3970    0.0920    2.3960 ca        1 QZE     -0.020300
     17 C10        -2.0630   -0.1210    6.1430 cc        1 QZE     -0.125900
     18 C9         -0.7460    0.2900    6.1240 cd        1 QZE      0.168800
     19 C7         -0.7160    0.0300    3.6890 cc        1 QZE      0.117400
     20 C8         -0.0510    0.3470    4.8640 cd        1 QZE     -0.164200
     21 C11        -2.7600   -0.5000    4.9120 c         1 QZE      0.704700
     22 C22         2.2120    1.6790   10.9100 c         1 QZE      0.906200
     23 C26         2.1160   -0.0020    3.6960 c3        1 QZE     -0.048100
     24 C25         1.3840    0.7290    4.8040 c3        1 QZE     -0.028200
     25 N15        -3.4850   -0.2590    8.2910 n1        1 QZE     -0.374800
     26 N30         5.6680   -0.5240    0.7840 na        1 QZE     -0.025600
     27 N29         5.7480    0.7050    1.2980 nc        1 QZE     -0.514800
     28 N13        -2.0290   -0.3950    3.7160 ns        1 QZE     -0.439100
     29 O12        -3.9370   -0.9050    4.8230 o         1 QZE     -0.651500
     30 O23         2.3200    0.8020   11.8100 o         1 QZE     -0.821800
     31 O24         2.7400    2.8250   10.9560 o         1 QZE     -0.821800
     32 H1         -0.5570    0.4130   -0.9660 ha        1 QZE      0.132000
     33 H2          1.9320    0.2800   -0.9790 ha        1 QZE      0.134000
     34 H6         -1.8020    0.3370    1.1600 ha        1 QZE      0.132000
     35 H17        -0.4650   -1.2210    8.3500 ha        1 QZE      0.116000
     36 H18         0.8420   -0.6150   10.4120 ha        1 QZE      0.159500
     37 H21         0.5060    2.6300    6.6360 ha        1 QZE      0.116000
     38 H20         1.7780    3.2220    8.7250 ha        1 QZE      0.159500
     39 H31         4.0930   -1.9480    0.2690 h4        1 QZE      0.178000
     40 H30         6.4910   -1.0400    0.5850 hn        1 QZE      0.319700
     41 H28         4.2450    2.1010    1.9410 h4        1 QZE      0.052100
     42 H261        2.2230   -1.0890    3.9660 hc        1 QZE      0.065700
     43 H262        3.1520    0.4210    3.6010 hc        1 QZE      0.065700
     44 H13        -2.4820   -0.6580    2.8680 hn        1 QZE      0.327500
     45 H251        1.4620    1.8390    4.6430 hc        1 QZE      0.073700
     46 H252        1.8870    0.5020    5.7850 hc        1 QZE      0.073700
@<TRIPOS>BOND
     1    1   17 1   
     2    1   25 3   
     3    2    3 ar  
     4    2    4 ar  
     5    2   32 1   
     6    3   11 ar  
     7    3   33 1   
     8    4   14 ar  
     9    4   34 1   
    10    5    7 ar  
    11    5   13 ar  
    12    5   35 1   
    13    6    8 ar  
    14    6   13 ar  
    15    6   37 1   
    16    7   15 ar  
    17    7   36 1   
    18    8   15 ar  
    19    8   38 1   
    20    9   12 2   
    21    9   26 1   
    22    9   39 1   
    23   10   12 1   
    24   10   27 2   
    25   10   41 1   
    26   11   12 1   
    27   11   16 ar  
    28   13   18 1   
    29   14   16 ar  
    30   14   19 1   
    31   15   22 1   
    32   16   23 1   
    33   17   18 2   
    34   17   21 1   
    35   18   20 1   
    36   19   20 2   
    37   19   28 1   
    38   20   24 1   
    39   21   28 1   
    40   21   29 2   
    41   22   30 1   
    42   22   31 1   
    43   23   24 1   
    44   23   42 1   
    45   23   43 1   
    46   24   45 1   
    47   24   46 1   
    48   26   27 1   
    49   26   40 1   
    50   28   44 1   
@<TRIPOS>SUBSTRUCTURE
     1 QZE         1 TEMP              0 ****  ****    0 ROOT
