@<TRIPOS>MOLECULE
QZK
   37    38     1     0     0
SMALL
bcc


@<TRIPOS>ATOM
      1 OAE      -335.8660 -550.8710  280.9180 os        1 QZK     -0.756000
      2 PAW      -335.3190 -552.4170  280.5920 p5        1 QZK      1.980000
      3 OAF      -334.2220 -552.8370  281.4800 o         1 QZK     -0.829000
      4 OAA      -336.3240 -553.3420  280.0510 o         1 QZK     -0.829000
      5 CAV      -335.0290 -550.9910  279.7310 cx        1 QZK     -0.615000
      6 PAX      -362.1380    0.0340  649.2360 p2        1 QZK      0.444000
      7 OAG      -363.2930    0.6130  648.5280 os        1 QZK     -0.659000
      8 OAH      -361.8970    0.5810  649.1910 os        1 QZK     -0.126000
      9 OAB      -361.2230    0.9090  649.9910 os        1 QZK     -0.659000
     10 NAR      -333.7410 -550.3940  279.7900 n3        1 QZK     -0.311000
     11 SAY       192.8090   31.9950 -222.2670 s4        1 QZK      0.652800
     12 OAC       193.0840   33.3890 -221.7430 o         1 QZK     -0.528400
     13 OAD       191.8330   32.1290 -223.4150 o         1 QZK     -0.528400
     14 CAU       191.9290   31.1690 -220.9850 ca        1 QZK     -0.470000
     15 CAQ       192.2410   31.4020 -219.6440 ca        1 QZK     -0.099000
     16 CAO       191.6670   30.6400 -218.6310 ca        1 QZK     -0.136000
     17 CAP       190.9970   30.1740 -221.2900 ca        1 QZK     -0.099000
     18 CAN       190.4190   29.4010 -220.2870 ca        1 QZK     -0.136000
     19 CAT       190.7540   29.6210 -218.9420 cp        1 QZK     -0.094000
     20 CAS       190.1560   28.8110 -217.8870 cq        1 QZK      0.010000
     21 CAL       189.9210   27.4400 -218.0820 ca        1 QZK     -0.133000
     22 CAJ       189.3530   26.6670 -217.0730 ca        1 QZK     -0.135500
     23 CAI       189.0090   27.2470 -215.8520 ca        1 QZK     -0.156000
     24 CAK       189.2370   28.6070 -215.6470 ca        1 QZK     -0.135500
     25 CAM       189.8040   29.3840 -216.6540 ca        1 QZK     -0.133000
     26 H3       -335.5790 -550.6580  278.8290 h2        1 QZK      0.109000
     27 H6       -333.8000 -549.3990  279.9090 hn        1 QZK      0.125000
     28 H7        192.9400   32.2190 -219.4000 ha        1 QZK      0.143000
     29 H8        191.9310   30.8310 -217.5810 ha        1 QZK      0.107000
     30 H9        190.7100   30.0260 -222.3450 ha        1 QZK      0.143000
     31 H10       189.6830   28.6260 -220.5450 ha        1 QZK      0.107000
     32 H11       190.1960   26.9780 -219.0420 ha        1 QZK      0.135500
     33 H12       189.1770   25.5950 -217.2400 ha        1 QZK      0.116500
     34 H13       188.5610   26.6350 -215.0570 ha        1 QZK      0.115000
     35 H14       188.9640   29.0700 -214.6880 ha        1 QZK      0.116500
     36 H15       189.9730   30.4590 -216.4910 ha        1 QZK      0.135500
     37 HAR2     -333.2420 -550.7720  280.5780 hn        1 QZK      0.125000
@<TRIPOS>BOND
     1    1    2 1   
     2    1    5 1   
     3    2    3 1   
     4    2    4 1   
     5    2    5 1   
     6    5   10 1   
     7    5   26 1   
     8    6    7 1   
     9    6    9 1   
    10    7    8 1   
    11    8    9 1   
    12   10   27 1   
    13   10   37 1   
    14   11   12 1   
    15   11   13 1   
    16   11   14 1   
    17   14   15 1   
    18   14   17 1   
    19   15   16 1   
    20   15   28 1   
    21   16   19 1   
    22   16   29 1   
    23   17   18 1   
    24   17   30 1   
    25   18   19 1   
    26   18   31 1   
    27   19   20 1   
    28   20   21 1   
    29   20   25 1   
    30   21   22 1   
    31   21   32 1   
    32   22   23 1   
    33   22   33 1   
    34   23   24 1   
    35   23   34 1   
    36   24   25 1   
    37   24   35 1   
    38   25   36 1   
@<TRIPOS>SUBSTRUCTURE
     1 QZK         1 TEMP              0 ****  ****    0 ROOT
