@<TRIPOS>MOLECULE
QZK
   37    35     1     0     0
SMALL
bcc


@<TRIPOS>ATOM
      1 OAE      -381.7810 -560.8540  277.6550 os        1 QZK     -0.756000
      2 PAW      -380.4910 -561.9030  277.4900 p5        1 QZK      1.980000
      3 OAF      -379.3880 -561.6090  278.4180 o         1 QZK     -0.829000
      4 OAA      -380.8340 -563.2610  277.0420 o         1 QZK     -0.829000
      5 CAV      -380.9390 -560.6170  276.4880 cx        1 QZK     -0.615000
      6 PAX      -337.8570    0.3320  732.2810 p2        1 QZK      0.649000
      7 OAG      -338.7270    0.3660  731.0920 o         1 QZK     -0.795000
      8 OAH      -337.5600    0.0480  732.9400 os        1 QZK     -0.427000
      9 OAB      -337.2830    0.5830  732.8100 os        1 QZK     -0.427000
     10 NAR      -380.1570 -559.4300  276.4900 n8        1 QZK     -0.311000
     11 SAY       201.0470   36.9360 -231.6740 s4        1 QZK      0.652800
     12 OAC       201.2040   37.6910 -230.3720 o         1 QZK     -0.528400
     13 OAD       199.6030   36.4920 -231.7670 o         1 QZK     -0.528400
     14 CAU       201.9890   35.4600 -231.4860 ca        1 QZK     -0.470000
     15 CAQ       203.1940   35.4720 -230.7800 ca        1 QZK     -0.099000
     16 CAO       204.0240   34.3550 -230.7590 ca        1 QZK     -0.136000
     17 CAP       201.6140   34.2880 -232.1460 ca        1 QZK     -0.099000
     18 CAN       202.4370   33.1660 -232.1380 ca        1 QZK     -0.136000
     19 CAT       203.6590   33.1880 -231.4480 cp        1 QZK     -0.094000
     20 CAS       204.5280   32.0170 -231.4390 cq        1 QZK      0.010000
     21 CAL       204.6660   31.2180 -232.5860 ca        1 QZK     -0.133000
     22 CAJ       205.4980   30.1020 -232.5770 ca        1 QZK     -0.135500
     23 CAI       206.2070   29.7620 -231.4250 ca        1 QZK     -0.156000
     24 CAK       206.0770   30.5480 -230.2800 ca        1 QZK     -0.135500
     25 CAM       205.2460   31.6650 -230.2850 ca        1 QZK     -0.133000
     26 H3       -381.5310 -560.6990  275.5550 h2        1 QZK      0.109000
     27 H6       -380.7340 -558.6090  276.5080 hn        1 QZK      0.125000
     28 H7        203.4680   36.3810 -230.2190 ha        1 QZK      0.143000
     29 H8        204.9740   34.3850 -230.2060 ha        1 QZK      0.107000
     30 H9        200.6380   34.2610 -232.6580 ha        1 QZK      0.143000
     31 H10       202.1240   32.2490 -232.6580 ha        1 QZK      0.107000
     32 H11       204.1120   31.4860 -233.4990 ha        1 QZK      0.135500
     33 H12       205.5960   29.4870 -233.4830 ha        1 QZK      0.116500
     34 H13       206.8630   28.8810 -231.4200 ha        1 QZK      0.115000
     35 H14       206.6310   30.2830 -229.3680 ha        1 QZK      0.116500
     36 H15       205.1400   32.2760 -229.3760 ha        1 QZK      0.135500
     37 HAR2     -379.5790 -559.4220  277.3140 hn        1 QZK      0.125000
@<TRIPOS>BOND
     1    1    2 1   
     2    1    5 1   
     3    2    3 1   
     4    2    4 1   
     5    2    5 1   
     6    5   10 1   
     7    5   26 1   
     8    6    7 1   
     9   10   27 1   
    10   10   37 1   
    11   11   12 1   
    12   11   13 1   
    13   11   14 1   
    14   14   15 1   
    15   14   17 1   
    16   15   16 1   
    17   15   28 1   
    18   16   19 1   
    19   16   29 1   
    20   17   18 1   
    21   17   30 1   
    22   18   19 1   
    23   18   31 1   
    24   19   20 1   
    25   20   21 1   
    26   20   25 1   
    27   21   22 1   
    28   21   32 1   
    29   22   23 1   
    30   22   33 1   
    31   23   24 1   
    32   23   34 1   
    33   24   25 1   
    34   24   35 1   
    35   25   36 1   
@<TRIPOS>SUBSTRUCTURE
     1 QZK         1 TEMP              0 ****  ****    0 ROOT
