@<TRIPOS>MOLECULE
QZN
   46    47     1     0     0
SMALL
bcc


@<TRIPOS>ATOM
      1 CAA        10.0310    0.9470    0.0240 c3        1 QZN     -0.092100
      2 CAH         8.6040    1.4300    0.0310 c3        1 QZN     -0.080400
      3 CAI         7.6260    0.2750    0.0070 c3        1 QZN     -0.079400
      4 CAJ         6.1940    0.7650    0.0130 c3        1 QZN     -0.079400
      5 CAK         5.2180   -0.3910   -0.0110 c3        1 QZN     -0.079400
      6 CAL         3.7860    0.1000   -0.0040 c3        1 QZN     -0.078400
      7 CAM         2.8090   -1.0570   -0.0290 c3        1 QZN     -0.081400
      8 CAN         1.3780   -0.5590   -0.0220 c3        1 QZN     -0.075400
      9 CAO         0.4190   -1.7310   -0.0460 c3        1 QZN     -0.103700
     10 CAR        -1.0490   -1.3340   -0.0420 cc        1 QZN      0.545900
     11 NAP        -1.3830   -0.0590   -0.0170 nd        1 QZN     -0.636100
     12 CAT        -2.7290    0.3090   -0.0130 ca        1 QZN      0.205400
     13 CAG        -3.0860    1.6820    0.0140 ca        1 QZN     -0.125000
     14 CAQ        -4.4280    2.0360    0.0180 ca        1 QZN      0.054400
     15 CL         -4.8550    3.6810    0.0490 cl        1 QZN     -0.082400
     16 CAE        -5.4480    1.0670   -0.0030 ca        1 QZN     -0.154000
     17 CAF        -5.1100   -0.2760   -0.0290 ca        1 QZN     -0.048000
     18 CAU        -3.7620   -0.6610   -0.0340 ca        1 QZN     -0.196600
     19 CAS        -3.4010   -2.0840   -0.0610 c         1 QZN      0.691100
     20 OAC        -4.2260   -3.0180   -0.0810 o         1 QZN     -0.631500
     21 NAV        -2.0060   -2.3950   -0.0640 n         1 QZN     -0.311700
     22 NAB        -1.5640   -3.6930   -0.0890 nh        1 QZN     -0.614800
     23 H1         10.7350    1.8140    0.0420 hc        1 QZN      0.032700
     24 H2         10.2360    0.3080    0.9170 hc        1 QZN      0.032700
     25 H3         10.2390    0.3430   -0.8920 hc        1 QZN      0.032700
     26 H4          8.4220    2.0550    0.9450 hc        1 QZN      0.038700
     27 H5          8.4250    2.0890   -0.8600 hc        1 QZN      0.038700
     28 H6          7.8060   -0.3500   -0.9080 hc        1 QZN      0.039700
     29 H7          7.8030   -0.3850    0.8970 hc        1 QZN      0.039700
     30 H8          6.0150    1.3900    0.9280 hc        1 QZN      0.039700
     31 H9          6.0180    1.4240   -0.8770 hc        1 QZN      0.039700
     32 H10         5.3970   -1.0160   -0.9250 hc        1 QZN      0.039700
     33 H11         5.3940   -1.0510    0.8800 hc        1 QZN      0.039700
     34 H12         3.6060    0.7240    0.9100 hc        1 QZN      0.042700
     35 H13         3.6100    0.7590   -0.8940 hc        1 QZN      0.042700
     36 H14         2.9890   -1.6810   -0.9430 hc        1 QZN      0.039700
     37 H15         2.9860   -1.7160    0.8620 hc        1 QZN      0.039700
     38 H16         1.2030    0.0650    0.8940 hc        1 QZN      0.057700
     39 H17         1.2060    0.1000   -0.9120 hc        1 QZN      0.057700
     40 H18         0.6110   -2.3470   -0.9670 hc        1 QZN      0.074700
     41 H19         0.6070   -2.3830    0.8500 hc        1 QZN      0.074700
     42 H20        -2.2970    2.4510    0.0300 ha        1 QZN      0.169000
     43 H21        -6.5040    1.3760    0.0010 ha        1 QZN      0.155000
     44 H22        -5.8900   -1.0560   -0.0450 ha        1 QZN      0.163000
     45 H23        -1.9560   -4.1750    0.7160 hn        1 QZN      0.361800
     46 H24        -1.9530   -4.1430   -0.9130 hn        1 QZN      0.361800
@<TRIPOS>BOND
     1    1    2 1   
     2    1   23 1   
     3    1   24 1   
     4    1   25 1   
     5    2    3 1   
     6    2   26 1   
     7    2   27 1   
     8    3    4 1   
     9    3   28 1   
    10    3   29 1   
    11    4    5 1   
    12    4   30 1   
    13    4   31 1   
    14    5    6 1   
    15    5   32 1   
    16    5   33 1   
    17    6    7 1   
    18    6   34 1   
    19    6   35 1   
    20    7    8 1   
    21    7   36 1   
    22    7   37 1   
    23    8    9 1   
    24    8   38 1   
    25    8   39 1   
    26    9   10 1   
    27    9   40 1   
    28    9   41 1   
    29   10   11 2   
    30   10   21 1   
    31   11   12 1   
    32   12   13 ar  
    33   12   18 ar  
    34   13   14 ar  
    35   13   42 1   
    36   14   15 1   
    37   14   16 ar  
    38   16   17 ar  
    39   16   43 1   
    40   17   18 ar  
    41   17   44 1   
    42   18   19 1   
    43   19   20 2   
    44   19   21 1   
    45   21   22 1   
    46   22   45 1   
    47   22   46 1   
@<TRIPOS>SUBSTRUCTURE
     1 QZN         1 TEMP              0 ****  ****    0 ROOT
