@<TRIPOS>MOLECULE
QZN
   47    48     1     0     0
SMALL
bcc


@<TRIPOS>ATOM
      1 CAA        -0.1560   -0.0040    0.1030 c3        1 QZN     -0.094100
      2 CAH         1.3510   -0.0060    0.0740 c3        1 QZN     -0.079400
      3 CAI         1.9320   -0.0020    1.4720 c3        1 QZN     -0.079400
      4 CAJ         3.4450   -0.0030    1.4380 c3        1 QZN     -0.079400
      5 CAK         4.0240    0.0010    2.8370 c3        1 QZN     -0.079400
      6 CAL         5.5380   -0.0000    2.8010 c3        1 QZN     -0.078400
      7 CAM         6.1160    0.0040    4.2010 c3        1 QZN     -0.083400
      8 CAN         7.6310    0.0030    4.1550 c3        1 QZN     -0.073400
      9 CAO         8.1930    0.0070    5.5650 c3        1 QZN     -0.123700
     10 CAR         9.7100    0.0060    5.6120 cc        1 QZN      0.483900
     11 NAP        10.4330    0.0020    4.5340 nd        1 QZN     -0.527100
     12 CAT        11.8340    0.0000    4.5850 ca        1 QZN      0.178400
     13 CAG        12.5790   -0.0040    3.3890 ca        1 QZN     -0.094000
     14 CAQ        13.9760   -0.0050    3.4510 ca        1 QZN      0.066400
     15 CL         14.8660   -0.0110    2.0170 cl        1 QZN     -0.015400
     16 CAE        14.6490   -0.0020    4.6830 ca        1 QZN     -0.119000
     17 CAF        13.9240    0.0030    5.8690 ca        1 QZN     -0.038000
     18 CAU        12.5230    0.0040    5.8280 ca        1 QZN     -0.184600
     19 CAS        11.7680    0.0090    7.0800 c         1 QZN      0.744100
     20 OAC        12.2290    0.0130    8.2290 o         1 QZN     -0.586500
     21 NAV        10.3220    0.0100    6.9360 n         1 QZN     -0.420700
     22 NAB         9.5300    0.0150    8.0760 n4        1 QZN     -0.580600
     23 H1         -0.5630   -0.0070   -0.9370 hc        1 QZN      0.036367
     24 H2         -0.5400    0.9030    0.6290 hc        1 QZN      0.036367
     25 H3         -0.5410   -0.9070    0.6350 hc        1 QZN      0.036367
     26 H4          1.7180    0.8950   -0.4860 hc        1 QZN      0.040700
     27 H5          1.7160   -0.9110   -0.4800 hc        1 QZN      0.040700
     28 H6          1.5670   -0.9020    2.0330 hc        1 QZN      0.040700
     29 H7          1.5680    0.9030    2.0270 hc        1 QZN      0.040700
     30 H8          3.8080   -0.9080    0.8830 hc        1 QZN      0.042700
     31 H9          3.8090    0.8970    0.8770 hc        1 QZN      0.042700
     32 H10         3.6590   -0.9000    3.3970 hc        1 QZN      0.041700
     33 H11         3.6610    0.9060    3.3910 hc        1 QZN      0.041700
     34 H12         5.9010   -0.9060    2.2460 hc        1 QZN      0.048700
     35 H13         5.9020    0.9010    2.2400 hc        1 QZN      0.048700
     36 H14         5.7500   -0.8980    4.7590 hc        1 QZN      0.040700
     37 H15         5.7520    0.9100    4.7530 hc        1 QZN      0.040700
     38 H16         7.9920    0.9050    3.5950 hc        1 QZN      0.073700
     39 H17         7.9910   -0.9040    3.6010 hc        1 QZN      0.073700
     40 H18         7.8150   -0.9070    6.1000 hc        1 QZN      0.058700
     41 H19         7.8160    0.9250    6.0940 hc        1 QZN      0.058700
     42 H20        12.0620   -0.0070    2.4130 ha        1 QZN      0.188000
     43 H21        15.7520   -0.0030    4.7120 ha        1 QZN      0.181000
     44 H22        14.4430    0.0060    6.8440 ha        1 QZN      0.178000
     45 H23        10.1570    0.0170    8.9120 hn        1 QZN      0.479133
     46 H24         8.9350    0.8600    8.0870 hn        1 QZN      0.479133
     47 HAB3        8.9340   -0.8300    8.0920 hn        1 QZN      0.479133
@<TRIPOS>BOND
     1    1    2 1   
     2    1   23 1   
     3    1   24 1   
     4    1   25 1   
     5    2    3 1   
     6    2   26 1   
     7    2   27 1   
     8    3    4 1   
     9    3   28 1   
    10    3   29 1   
    11    4    5 1   
    12    4   30 1   
    13    4   31 1   
    14    5    6 1   
    15    5   32 1   
    16    5   33 1   
    17    6    7 1   
    18    6   34 1   
    19    6   35 1   
    20    7    8 1   
    21    7   36 1   
    22    7   37 1   
    23    8    9 1   
    24    8   38 1   
    25    8   39 1   
    26    9   10 1   
    27    9   40 1   
    28    9   41 1   
    29   10   11 2   
    30   10   21 1   
    31   11   12 1   
    32   12   13 ar  
    33   12   18 ar  
    34   13   14 ar  
    35   13   42 1   
    36   14   15 1   
    37   14   16 ar  
    38   16   17 ar  
    39   16   43 1   
    40   17   18 ar  
    41   17   44 1   
    42   18   19 1   
    43   19   20 2   
    44   19   21 1   
    45   21   22 1   
    46   22   45 1   
    47   22   46 1   
    48   22   47 1   
@<TRIPOS>SUBSTRUCTURE
     1 QZN         1 TEMP              0 ****  ****    0 ROOT
