@<TRIPOS>MOLECULE
QZN
   47    48     1     0     0
SMALL
bcc


@<TRIPOS>ATOM
      1 CAA        -0.1570   -0.0020    0.1050 c3        1 QZN     -0.094100
      2 CAH         1.3500   -0.0010    0.0760 c3        1 QZN     -0.079400
      3 CAI         1.9310   -0.0010    1.4740 c3        1 QZN     -0.079400
      4 CAJ         3.4450    0.0000    1.4390 c3        1 QZN     -0.079400
      5 CAK         4.0240   -0.0000    2.8380 c3        1 QZN     -0.079400
      6 CAL         5.5380    0.0020    2.8010 c3        1 QZN     -0.078400
      7 CAM         6.1160    0.0020    4.2010 c3        1 QZN     -0.083400
      8 CAN         7.6310    0.0050    4.1550 c3        1 QZN     -0.073400
      9 CAO         8.1940    0.0070    5.5650 c3        1 QZN     -0.123700
     10 CAR         9.7110    0.0100    5.6110 cc        1 QZN      0.483900
     11 NAP        10.4340    0.0100    4.5330 nd        1 QZN     -0.527100
     12 CAT        11.8350    0.0130    4.5830 ca        1 QZN      0.178400
     13 CAG        12.5790    0.0140    3.3870 ca        1 QZN     -0.094000
     14 CAQ        13.9760    0.0170    3.4490 ca        1 QZN      0.066400
     15 CL         14.8660    0.0170    2.0150 cl        1 QZN     -0.015400
     16 CAE        14.6490    0.0200    4.6810 ca        1 QZN     -0.119000
     17 CAF        13.9250    0.0190    5.8670 ca        1 QZN     -0.038000
     18 CAU        12.5240    0.0160    5.8270 ca        1 QZN     -0.184600
     19 CAS        11.7690    0.0160    7.0790 c         1 QZN      0.744100
     20 OAC        12.2300    0.0180    8.2280 o         1 QZN     -0.586500
     21 NAV        10.3220    0.0130    6.9350 n         1 QZN     -0.420700
     22 NAB         9.5310    0.0120    8.0760 n4        1 QZN     -0.580600
     23 H1         -0.5410   -0.9070    0.6340 hc        1 QZN      0.036367
     24 H2         -0.5420    0.9030    0.6350 hc        1 QZN      0.036367
     25 H3         -0.5640   -0.0010   -0.9350 hc        1 QZN      0.036367
     26 H4          1.7170   -0.9020   -0.4820 hc        1 QZN      0.040700
     27 H5          1.7150    0.9030   -0.4810 hc        1 QZN      0.040700
     28 H6          1.5660    0.9010    2.0320 hc        1 QZN      0.040700
     29 H7          1.5680   -0.9040    2.0310 hc        1 QZN      0.040700
     30 H8          3.8090   -0.9020    0.8800 hc        1 QZN      0.042700
     31 H9          3.8070    0.9040    0.8810 hc        1 QZN      0.042700
     32 H10         3.6610   -0.9040    3.3940 hc        1 QZN      0.041700
     33 H11         3.6590    0.9020    3.3960 hc        1 QZN      0.041700
     34 H12         5.9000    0.9060    2.2440 hc        1 QZN      0.048700
     35 H13         5.9020   -0.9010    2.2430 hc        1 QZN      0.048700
     36 H14         5.7500    0.9050    4.7570 hc        1 QZN      0.040700
     37 H15         5.7530   -0.9030    4.7560 hc        1 QZN      0.040700
     38 H16         7.9930   -0.8990    3.5980 hc        1 QZN      0.073700
     39 H17         7.9900    0.9100    3.5970 hc        1 QZN      0.073700
     40 H18         7.8140    0.9220    6.0960 hc        1 QZN      0.058700
     41 H19         7.8180   -0.9100    6.0970 hc        1 QZN      0.058700
     42 H20        12.0620    0.0110    2.4110 ha        1 QZN      0.188000
     43 H21        15.7520    0.0220    4.7100 ha        1 QZN      0.181000
     44 H22        14.4430    0.0210    6.8420 ha        1 QZN      0.178000
     45 H23        10.1580    0.0140    8.9110 hn        1 QZN      0.479133
     46 H24         8.9340    0.8560    8.0880 hn        1 QZN      0.479133
     47 HAB3        8.9370   -0.8340    8.0900 hn        1 QZN      0.479133
@<TRIPOS>BOND
     1    1    2 1   
     2    1   23 1   
     3    1   24 1   
     4    1   25 1   
     5    2    3 1   
     6    2   26 1   
     7    2   27 1   
     8    3    4 1   
     9    3   28 1   
    10    3   29 1   
    11    4    5 1   
    12    4   30 1   
    13    4   31 1   
    14    5    6 1   
    15    5   32 1   
    16    5   33 1   
    17    6    7 1   
    18    6   34 1   
    19    6   35 1   
    20    7    8 1   
    21    7   36 1   
    22    7   37 1   
    23    8    9 1   
    24    8   38 1   
    25    8   39 1   
    26    9   10 1   
    27    9   40 1   
    28    9   41 1   
    29   10   11 2   
    30   10   21 1   
    31   11   12 1   
    32   12   13 ar  
    33   12   18 ar  
    34   13   14 ar  
    35   13   42 1   
    36   14   15 1   
    37   14   16 ar  
    38   16   17 ar  
    39   16   43 1   
    40   17   18 ar  
    41   17   44 1   
    42   18   19 1   
    43   19   20 2   
    44   19   21 1   
    45   21   22 1   
    46   22   45 1   
    47   22   46 1   
    48   22   47 1   
@<TRIPOS>SUBSTRUCTURE
     1 QZN         1 TEMP              0 ****  ****    0 ROOT
