@<TRIPOS>MOLECULE
QZZ
   39    43     1     0     0
SMALL
bcc


@<TRIPOS>ATOM
      1 C5          0.0020    0.4620    0.1700 ca        1 QZZ     -0.100000
      2 C6          1.3260    0.0560    0.2940 ca        1 QZZ     -0.151000
      3 C19         7.2240    1.4110    2.1550 cc        1 QZZ     -0.229000
      4 C23         7.2150   -2.0480    2.1600 cc        1 QZZ     -0.078300
      5 C20         8.3570    1.0560    2.8830 cd        1 QZZ      0.015700
      6 C22         8.0520   -2.4700    3.2560 cc        1 QZZ     -0.166000
      7 C4         -0.9210    0.2100    1.1860 ca        1 QZZ     -0.209000
      8 C8          0.8470   -0.8690    2.4820 ca        1 QZZ     -0.151000
      9 C18         6.6670    0.1970    1.5400 cc        1 QZZ      0.034000
     10 C7          1.7550   -0.6120    1.4540 ca        1 QZZ     -0.006800
     11 C21         8.8980   -1.3890    3.6110 cd        1 QZZ     -0.052900
     12 C3         -0.4900   -0.4550    2.3380 ca        1 QZZ      0.121100
     13 C10         4.1660   -0.1640    1.1850 cf        1 QZZ     -0.125000
     14 C12         5.8530   -2.0630    1.5080 c3        1 QZZ     -0.007200
     15 C11         5.5290   -0.5430    1.3400 cf        1 QZZ     -0.141200
     16 C9          3.1670   -1.0150    1.5710 ce        1 QZZ      0.030400
     17 C13         4.7410   -2.7910    2.2200 c         1 QZZ      0.720500
     18 C24         9.8600   -1.2960    4.7900 c         1 QZZ      0.931200
     19 N17         8.7360   -0.3100    2.6830 na        1 QZZ     -0.008100
     20 N15         3.4420   -2.2910    2.0840 ns        1 QZZ     -0.479100
     21 O14         4.8850   -3.8680    2.8270 o         1 QZZ     -0.624500
     22 O25        10.2450   -2.3800    5.2970 o         1 QZZ     -0.806800
     23 O26        10.1770   -0.1410    5.1840 o         1 QZZ     -0.806800
     24 O2         -1.3060   -0.7650    3.4130 os        1 QZZ     -0.327900
     25 H5         -0.3260    0.9850   -0.7400 ha        1 QZZ      0.127000
     26 H6          2.0450    0.2530   -0.5150 ha        1 QZZ      0.142000
     27 H4         -1.9630    0.5350    1.0710 ha        1 QZZ      0.131000
     28 H19         6.7960    2.4050    2.0800 ha        1 QZZ      0.143000
     29 H20         8.9700    1.6540    3.5690 h4        1 QZZ      0.196000
     30 H23         5.9450   -2.5390    0.4890 hc        1 QZZ      0.098700
     31 H22         8.0360   -3.4290    3.7680 ha        1 QZZ      0.172000
     32 H8          1.1520   -1.3690    3.4130 ha        1 QZZ      0.155000
     33 H10         3.9300    0.8390    0.8030 ha        1 QZZ      0.138000
     34 H15         2.7080   -2.7710    2.5540 hn        1 QZZ      0.317500
     35 H11C       -3.1750   -0.7940    2.4660 h1        1 QZZ      0.040700
     36 H12C       -3.1010   -0.6450    4.2970 h1        1 QZZ      0.040700
     37 H13C       -2.6900    0.8000    3.2360 h1        1 QZZ      0.040700
     38 C1         -2.6510   -0.3130    3.3270 c3        1 QZZ      0.115700
     39 C16         7.7260   -0.7880    1.8100 cc        1 QZZ     -0.240300
@<TRIPOS>BOND
     1    1    2 ar  
     2    1    7 ar  
     3    1   25 1   
     4    2   10 ar  
     5    2   26 1   
     6    3    5 2   
     7    3    9 1   
     8    3   28 1   
     9    4    6 1   
    10    4   14 1   
    11    4   39 2   
    12    5   19 1   
    13    5   29 1   
    14    6   11 2   
    15    6   31 1   
    16    7   12 ar  
    17    7   27 1   
    18    8   10 ar  
    19    8   12 ar  
    20    8   32 1   
    21    9   15 2   
    22    9   39 1   
    23   10   16 1   
    24   11   18 1   
    25   11   19 1   
    26   12   24 1   
    27   13   15 1   
    28   13   16 2   
    29   13   33 1   
    30   14   15 1   
    31   14   17 1   
    32   14   30 1   
    33   16   20 1   
    34   17   20 1   
    35   17   21 2   
    36   18   22 1   
    37   18   23 1   
    38   19   39 1   
    39   20   34 1   
    40   24   38 1   
    41   35   38 1   
    42   36   38 1   
    43   37   38 1   
@<TRIPOS>SUBSTRUCTURE
     1 QZZ         1 TEMP              0 ****  ****    0 ROOT
