@<TRIPOS>MOLECULE
W01
   45    47     1     0     0
SMALL
bcc


@<TRIPOS>ATOM
      1 O1         -0.5960   -1.7050   -6.3060 os        1 W01     -0.125100
      2 N2         -0.4360   -1.2260   -7.5230 nc        1 W01     -0.361300
      3 C3          0.1190    0.0020   -7.4490 cd        1 W01      0.321600
      4 CM3         0.4640    0.8850   -8.5770 c3        1 W01     -0.132400
      5 C4          0.3330    0.3360   -6.0380 cd        1 W01     -0.362600
      6 C5         -0.1300   -0.7650   -5.3490 cc        1 W01      0.264000
      7 C1C        -0.2420   -1.1690   -3.9420 c3        1 W01     -0.118700
      8 C2C         0.1880   -0.0580   -3.0060 c3        1 W01     -0.085400
      9 C3C         0.0580   -0.5170   -1.5650 c3        1 W01      0.130400
     10 O1B         0.4990    0.5900   -0.7610 os        1 W01     -0.346900
     11 C1B         0.3700    0.3540    0.6040 ca        1 W01      0.101100
     12 C2B         1.5190    0.0110    1.3400 ca        1 W01     -0.089300
     13 CM2         2.8270   -0.1810    0.6720 c3        1 W01     -0.053300
     14 C3B         1.4170   -0.1260    2.7270 ca        1 W01     -0.095000
     15 C4B         0.1910    0.0740    3.3740 ca        1 W01     -0.117500
     16 C5B        -0.9430    0.4210    2.6290 ca        1 W01     -0.095000
     17 C6B        -0.8670    0.5640    1.2410 ca        1 W01     -0.089300
     18 CM6        -2.0770    0.9340    0.4710 c3        1 W01     -0.053300
     19 C2A         0.0950   -0.0750    4.8190 cc        1 W01      0.544500
     20 N1A         1.1610   -0.5410    5.6650 nc        1 W01     -0.368000
     21 N3A        -0.9920    0.1910    5.6090 nd        1 W01     -0.489800
     22 N4A        -0.5600   -0.1110    6.8480 na        1 W01      0.199900
     23 CM4        -1.3930    0.0230    8.0380 c3        1 W01      0.050600
     24 N5A         0.7300   -0.5460    6.8530 nd        1 W01     -0.147800
     25 HM31       -0.0910    1.8510   -8.4770 hc        1 W01      0.058033
     26 HM32        1.5620    1.1010   -8.5580 hc        1 W01      0.058033
     27 HM33        0.2070    0.4260   -9.5630 hc        1 W01      0.058033
     28 H4          0.7630    1.2540   -5.6550 ha        1 W01      0.175000
     29 H1C1        0.3920   -2.0830   -3.7740 hc        1 W01      0.072700
     30 H1C2       -1.3080   -1.4630   -3.7300 hc        1 W01      0.072700
     31 H2C1       -0.4440    0.8540   -3.1660 hc        1 W01      0.063700
     32 H2C2        1.2510    0.2340   -3.2110 hc        1 W01      0.063700
     33 H3C1        0.7100   -1.4050   -1.3590 h1        1 W01      0.039700
     34 H3C2       -1.0060   -0.7650   -1.3100 h1        1 W01      0.039700
     35 HM21        3.4230   -0.9760    1.1830 hc        1 W01      0.050033
     36 HM22        2.6860   -0.4670   -0.4000 hc        1 W01      0.050033
     37 HM23        3.4100    0.7740    0.7030 hc        1 W01      0.050033
     38 H3B         2.3180   -0.3940    3.3030 ha        1 W01      0.153500
     39 H5B        -1.9110    0.5890    3.1280 ha        1 W01      0.153500
     40 HM61       -2.6920    0.0240    0.2600 hc        1 W01      0.050033
     41 HM62       -2.7070    1.6550    1.0490 hc        1 W01      0.050033
     42 HM63       -1.7970    1.4070   -0.5030 hc        1 W01      0.050033
     43 HM41       -1.7030    1.0950    8.1530 h1        1 W01      0.070367
     44 HM42       -2.3040   -0.6220    7.9260 h1        1 W01      0.070367
     45 HM43       -0.8070   -0.3000    8.9380 h1        1 W01      0.070367
@<TRIPOS>BOND
     1    1    2 1   
     2    1    6 1   
     3    2    3 2   
     4    3    4 1   
     5    3    5 1   
     6    4   25 1   
     7    4   26 1   
     8    4   27 1   
     9    5    6 2   
    10    5   28 1   
    11    6    7 1   
    12    7    8 1   
    13    7   29 1   
    14    7   30 1   
    15    8    9 1   
    16    8   31 1   
    17    8   32 1   
    18    9   10 1   
    19    9   33 1   
    20    9   34 1   
    21   10   11 1   
    22   11   12 ar  
    23   11   17 ar  
    24   12   13 1   
    25   12   14 ar  
    26   13   35 1   
    27   13   36 1   
    28   13   37 1   
    29   14   15 ar  
    30   14   38 1   
    31   15   16 ar  
    32   15   19 1   
    33   16   17 ar  
    34   16   39 1   
    35   17   18 1   
    36   18   40 1   
    37   18   41 1   
    38   18   42 1   
    39   19   20 1   
    40   19   21 2   
    41   20   24 2   
    42   21   22 1   
    43   22   23 1   
    44   22   24 1   
    45   23   43 1   
    46   23   44 1   
    47   23   45 1   
@<TRIPOS>SUBSTRUCTURE
     1 W01         1 TEMP              0 ****  ****    0 ROOT
