@<TRIPOS>MOLECULE
W01
   45    47     1     0     0
SMALL
bcc


@<TRIPOS>ATOM
      1 O1          0.2990   -1.2450    0.8130 os        1 W01     -0.125100
      2 N2          1.5830   -1.0060    0.6380 nc        1 W01     -0.361300
      3 C3          1.8570    0.2570    1.0240 cd        1 W01      0.321600
      4 CM3         3.1700    0.9260    0.9930 c3        1 W01     -0.132400
      5 C4          0.6180    0.8840    1.4920 cd        1 W01     -0.362600
      6 C5         -0.3410   -0.0950    1.3440 cc        1 W01      0.264000
      7 C1C        -1.7820   -0.2190    1.5950 c3        1 W01     -0.118700
      8 C2C        -2.3820    1.0910    2.0630 c3        1 W01     -0.085400
      9 C3C        -3.8700    0.9190    2.3130 c3        1 W01      0.130400
     10 O1B        -4.3420    2.2000    2.7630 os        1 W01     -0.346900
     11 C1B        -5.7180    2.2310    2.9660 ca        1 W01      0.101100
     12 C2B        -6.2060    2.1490    4.2830 ca        1 W01     -0.089300
     13 CM2        -5.2890    1.9500    5.4290 c3        1 W01     -0.053300
     14 C3B        -7.5790    2.2830    4.5040 ca        1 W01     -0.095000
     15 C4B        -8.4550    2.4940    3.4320 ca        1 W01     -0.117500
     16 C5B        -7.9540    2.5790    2.1260 ca        1 W01     -0.095000
     17 C6B        -6.5850    2.4480    1.8800 ca        1 W01     -0.089300
     18 CM6        -6.0740    2.5440    0.4930 c3        1 W01     -0.053300
     19 C2A        -9.8850    2.6280    3.6720 cc        1 W01      0.544500
     20 N1A       -10.5200    2.4390    4.9490 nc        1 W01     -0.368000
     21 N3A       -10.8530    2.9460    2.7560 nd        1 W01     -0.489800
     22 N4A       -11.9870    2.9380    3.4830 na        1 W01      0.199900
     23 CM4       -13.2990    3.2310    2.9180 c3        1 W01      0.050600
     24 N5A       -11.7580    2.6320    4.7910 nd        1 W01     -0.147800
     25 HM31        3.4520    1.2400    2.0290 hc        1 W01      0.058033
     26 HM32        3.9710    0.2580    0.5910 hc        1 W01      0.058033
     27 HM33        3.1080    1.8380    0.3480 hc        1 W01      0.058033
     28 H4          0.5140    1.8960    1.8670 ha        1 W01      0.175000
     29 H1C1       -2.2910   -0.5620    0.6520 hc        1 W01      0.072700
     30 H1C2       -1.9500   -1.0180    2.3700 hc        1 W01      0.072700
     31 H2C1       -2.2230    1.8900    1.2930 hc        1 W01      0.063700
     32 H2C2       -1.8820    1.4350    3.0060 hc        1 W01      0.063700
     33 H3C1       -4.4110    0.6290    1.3740 h1        1 W01      0.039700
     34 H3C2       -4.0640    0.1540    3.1100 h1        1 W01      0.039700
     35 HM21       -5.0130    2.9420    5.8690 hc        1 W01      0.050033
     36 HM22       -5.7730    1.3330    6.2240 hc        1 W01      0.050033
     37 HM23       -4.3480    1.4440    5.1000 hc        1 W01      0.050033
     38 H3B        -7.9610    2.2200    5.5360 ha        1 W01      0.153500
     39 H5B        -8.6330    2.7520    1.2760 ha        1 W01      0.153500
     40 HM61       -4.9940    2.8360    0.4880 hc        1 W01      0.050033
     41 HM62       -6.1760    1.5560   -0.0240 hc        1 W01      0.050033
     42 HM63       -6.6510    3.3040   -0.0890 hc        1 W01      0.050033
     43 HM41      -13.5200    2.4980    2.0980 h1        1 W01      0.070367
     44 HM42      -13.2970    4.2730    2.5010 h1        1 W01      0.070367
     45 HM43      -14.0750    3.1460    3.7230 h1        1 W01      0.070367
@<TRIPOS>BOND
     1    1    2 1   
     2    1    6 1   
     3    2    3 2   
     4    3    4 1   
     5    3    5 1   
     6    4   25 1   
     7    4   26 1   
     8    4   27 1   
     9    5    6 2   
    10    5   28 1   
    11    6    7 1   
    12    7    8 1   
    13    7   29 1   
    14    7   30 1   
    15    8    9 1   
    16    8   31 1   
    17    8   32 1   
    18    9   10 1   
    19    9   33 1   
    20    9   34 1   
    21   10   11 1   
    22   11   12 ar  
    23   11   17 ar  
    24   12   13 1   
    25   12   14 ar  
    26   13   35 1   
    27   13   36 1   
    28   13   37 1   
    29   14   15 ar  
    30   14   38 1   
    31   15   16 ar  
    32   15   19 1   
    33   16   17 ar  
    34   16   39 1   
    35   17   18 1   
    36   18   40 1   
    37   18   41 1   
    38   18   42 1   
    39   19   20 1   
    40   19   21 2   
    41   20   24 2   
    42   21   22 1   
    43   22   23 1   
    44   22   24 1   
    45   23   43 1   
    46   23   44 1   
    47   23   45 1   
@<TRIPOS>SUBSTRUCTURE
     1 W01         1 TEMP              0 ****  ****    0 ROOT
