@<TRIPOS>MOLECULE
W01
   45    47     1     0     0
SMALL
bcc


@<TRIPOS>ATOM
      1 O1          0.2890   -1.2070    0.7200 os        1 W01     -0.125100
      2 N2          1.5770   -0.9710    0.5670 nc        1 W01     -0.361300
      3 C3          1.8580    0.2710    1.0130 cd        1 W01      0.321600
      4 CM3         3.1770    0.9280    1.0240 c3        1 W01     -0.132400
      5 C4          0.6200    0.8850    1.5010 cd        1 W01     -0.362600
      6 C5         -0.3460   -0.0780    1.2990 cc        1 W01      0.264000
      7 C1C        -1.7900   -0.2000    1.5340 c3        1 W01     -0.118700
      8 C2C        -2.3840    1.0940    2.0500 c3        1 W01     -0.085400
      9 C3C        -3.8740    0.9230    2.2820 c3        1 W01      0.130400
     10 O1B        -4.3410    2.1890    2.7800 os        1 W01     -0.346900
     11 C1B        -5.7180    2.2190    2.9780 ca        1 W01      0.101100
     12 C2B        -6.2110    2.0890    4.2890 ca        1 W01     -0.089300
     13 CM2        -5.3000    1.8410    5.4300 c3        1 W01     -0.053300
     14 C3B        -7.5850    2.2220    4.5100 ca        1 W01     -0.095000
     15 C4B        -8.4560    2.4800    3.4430 ca        1 W01     -0.117500
     16 C5B        -7.9480    2.6120    2.1440 ca        1 W01     -0.095000
     17 C6B        -6.5790    2.4830    1.8980 ca        1 W01     -0.089300
     18 CM6        -6.0620    2.6300    0.5180 c3        1 W01     -0.053300
     19 C2A        -9.8850    2.6120    3.6830 cc        1 W01      0.544500
     20 N1A       -10.5260    2.3810    4.9510 nc        1 W01     -0.368000
     21 N3A       -10.8480    2.9680    2.7760 nd        1 W01     -0.489800
     22 N4A       -11.9850    2.9390    3.4980 na        1 W01      0.199900
     23 CM4       -13.2930    3.2590    2.9400 c3        1 W01      0.050600
     24 N5A       -11.7630    2.5860    4.7950 nd        1 W01     -0.147800
     25 HM31        3.4550    1.1870    2.0770 hc        1 W01      0.058033
     26 HM32        3.9750    0.2740    0.5940 hc        1 W01      0.058033
     27 HM33        3.1270    1.8730    0.4260 hc        1 W01      0.058033
     28 H4          0.5220    1.8800    1.9210 ha        1 W01      0.175000
     29 H1C1       -2.2930   -0.5010    0.5730 hc        1 W01      0.072700
     30 H1C2       -1.9690   -1.0290    2.2730 hc        1 W01      0.072700
     31 H2C1       -2.2140    1.9230    1.3140 hc        1 W01      0.063700
     32 H2C2       -1.8880    1.3950    3.0090 hc        1 W01      0.063700
     33 H3C1       -4.4100    0.6740    1.3290 h1        1 W01      0.039700
     34 H3C2       -4.0800    0.1280    3.0460 h1        1 W01      0.039700
     35 HM21       -5.0210    2.8130    5.9100 hc        1 W01      0.050033
     36 HM22       -5.7900    1.1940    6.1990 hc        1 W01      0.050033
     37 HM23       -4.3600    1.3430    5.0850 hc        1 W01      0.050033
     38 H3B        -7.9710    2.1210    5.5370 ha        1 W01      0.153500
     39 H5B        -8.6230    2.8220    1.2990 ha        1 W01      0.153500
     40 HM61       -4.9810    2.9170    0.5280 hc        1 W01      0.050033
     41 HM62       -6.1670    1.6630   -0.0370 hc        1 W01      0.050033
     42 HM63       -6.6340    3.4140   -0.0370 hc        1 W01      0.050033
     43 HM41      -13.5160    2.5560    2.0950 h1        1 W01      0.070367
     44 HM42      -13.2850    4.3140    2.5580 h1        1 W01      0.070367
     45 HM43      -14.0730    3.1510    3.7380 h1        1 W01      0.070367
@<TRIPOS>BOND
     1    1    2 1   
     2    1    6 1   
     3    2    3 2   
     4    3    4 1   
     5    3    5 1   
     6    4   25 1   
     7    4   26 1   
     8    4   27 1   
     9    5    6 2   
    10    5   28 1   
    11    6    7 1   
    12    7    8 1   
    13    7   29 1   
    14    7   30 1   
    15    8    9 1   
    16    8   31 1   
    17    8   32 1   
    18    9   10 1   
    19    9   33 1   
    20    9   34 1   
    21   10   11 1   
    22   11   12 ar  
    23   11   17 ar  
    24   12   13 1   
    25   12   14 ar  
    26   13   35 1   
    27   13   36 1   
    28   13   37 1   
    29   14   15 ar  
    30   14   38 1   
    31   15   16 ar  
    32   15   19 1   
    33   16   17 ar  
    34   16   39 1   
    35   17   18 1   
    36   18   40 1   
    37   18   41 1   
    38   18   42 1   
    39   19   20 1   
    40   19   21 2   
    41   20   24 2   
    42   21   22 1   
    43   22   23 1   
    44   22   24 1   
    45   23   43 1   
    46   23   44 1   
    47   23   45 1   
@<TRIPOS>SUBSTRUCTURE
     1 W01         1 TEMP              0 ****  ****    0 ROOT
