@<TRIPOS>MOLECULE
W02
   45    47     1     0     0
SMALL
bcc


@<TRIPOS>ATOM
      1 O1          0.2310   -1.3150    0.8660 os        1 W02     -0.124100
      2 N2          1.5210   -1.1150    0.6870 nc        1 W02     -0.360300
      3 C3          1.8260    0.1540    1.0340 cd        1 W02      0.321600
      4 CM3         3.1550    0.7880    0.9860 c3        1 W02     -0.133400
      5 C4          0.6020    0.8260    1.4780 cd        1 W02     -0.361600
      6 C5         -0.3810   -0.1340    1.3580 cc        1 W02      0.263000
      7 C1C        -1.8250   -0.2130    1.6080 c3        1 W02     -0.117700
      8 C2C        -2.3880    1.1180    2.0610 c3        1 W02     -0.085400
      9 C3C        -3.8810    0.9920    2.3080 c3        1 W02      0.129400
     10 O1B        -4.3160    2.2910    2.7440 os        1 W02     -0.343900
     11 C1B        -5.6900    2.3630    2.9500 ca        1 W02      0.089100
     12 C2B        -6.1780    2.3050    4.2670 ca        1 W02     -0.070800
     13 CM2        -5.2660    2.0880    5.4130 c3        1 W02     -0.055300
     14 C3B        -7.5450    2.4770    4.4960 ca        1 W02     -0.120000
     15 C4B        -8.4170    2.7110    3.4170 ca        1 W02      0.028800
     16 C5B        -7.9170    2.7760    2.1030 ca        1 W02     -0.120000
     17 C6B        -6.5520    2.5980    1.8640 ca        1 W02     -0.070800
     18 CM6        -6.0400    2.6690    0.4750 c3        1 W02     -0.055300
     19 N2A        -9.8230    2.8880    3.6620 na        1 W02      0.264800
     20 N1A       -10.3540    3.2890    4.8580 nc        1 W02     -0.136800
     21 N3A       -10.7800    2.6800    2.7270 nc        1 W02     -0.484800
     22 C4A       -11.9360    2.9680    3.3890 cd        1 W02      0.489300
     23 CM4       -13.3160    2.9150    2.8640 c3        1 W02     -0.114400
     24 N5A       -11.6080    3.3490    4.7380 nd        1 W02     -0.370000
     25 HM33        3.4420    1.1290    2.0120 hc        1 W02      0.058367
     26 HM32        3.9410    0.0870    0.6090 hc        1 W02      0.058367
     27 HM31        3.1180    1.6790    0.3100 hc        1 W02      0.058367
     28 H4          0.5220    1.8510    1.8200 ha        1 W02      0.175000
     29 H1C2       -2.0180   -1.0000    2.3890 hc        1 W02      0.072700
     30 H1C1       -2.3420   -0.5510    0.6660 hc        1 W02      0.072700
     31 H2C2       -2.2040    1.9050    1.2840 hc        1 W02      0.064200
     32 H2C1       -1.8810    1.4560    3.0020 hc        1 W02      0.064200
     33 H3C2       -4.1000    0.2410    3.1110 h1        1 W02      0.039700
     34 H3C1       -4.4280    0.7090    1.3700 h1        1 W02      0.039700
     35 HM23       -4.3270    1.5770    5.0820 hc        1 W02      0.052700
     36 HM22       -4.9850    3.0740    5.8640 hc        1 W02      0.052700
     37 HM21       -5.7570    1.4670    6.2020 hc        1 W02      0.052700
     38 H3B        -7.9180    2.4280    5.5320 ha        1 W02      0.161500
     39 H5B        -8.5840    2.9660    1.2470 ha        1 W02      0.161500
     40 HM63       -4.9510    2.9250    0.4680 hc        1 W02      0.052700
     41 HM62       -6.1770    1.6820   -0.0340 hc        1 W02      0.052700
     42 HM61       -6.5920    3.4450   -0.1100 hc        1 W02      0.052700
     43 HM43      -13.9210    2.1940    3.4700 hc        1 W02      0.065367
     44 HM42      -13.3250    2.5880    1.7950 hc        1 W02      0.065367
     45 HM41      -13.7870    3.9270    2.9400 hc        1 W02      0.065367
@<TRIPOS>BOND
     1    1    2 1   
     2    1    6 1   
     3    2    3 2   
     4    3    4 1   
     5    3    5 1   
     6    4   25 1   
     7    4   26 1   
     8    4   27 1   
     9    5    6 2   
    10    5   28 1   
    11    6    7 1   
    12    7    8 1   
    13    7   29 1   
    14    7   30 1   
    15    8    9 1   
    16    8   31 1   
    17    8   32 1   
    18    9   10 1   
    19    9   33 1   
    20    9   34 1   
    21   10   11 1   
    22   11   12 ar  
    23   11   17 ar  
    24   12   13 1   
    25   12   14 ar  
    26   13   35 1   
    27   13   36 1   
    28   13   37 1   
    29   14   15 ar  
    30   14   38 1   
    31   15   16 ar  
    32   15   19 1   
    33   16   17 ar  
    34   16   39 1   
    35   17   18 1   
    36   18   40 1   
    37   18   41 1   
    38   18   42 1   
    39   19   20 1   
    40   19   21 1   
    41   20   24 2   
    42   21   22 2   
    43   22   23 1   
    44   22   24 1   
    45   23   43 1   
    46   23   44 1   
    47   23   45 1   
@<TRIPOS>SUBSTRUCTURE
     1 W02         1 TEMP              0 ****  ****    0 ROOT
