@<TRIPOS>MOLECULE
W02
   45    47     1     0     0
SMALL
bcc


@<TRIPOS>ATOM
      1 O1         -0.5840    1.8170    6.2240 os        1 W02     -0.124100
      2 N2         -0.4310    1.3700    7.4540 nc        1 W02     -0.360300
      3 C3          0.1020    0.1310    7.4140 cd        1 W02      0.321600
      4 CM3         0.4340   -0.7270    8.5650 c3        1 W02     -0.133400
      5 C4          0.3080   -0.2460    6.0120 cd        1 W02     -0.361600
      6 C5         -0.1370    0.8430    5.2940 cc        1 W02      0.263000
      7 C1C        -0.2460    1.2090    3.8770 c3        1 W02     -0.117700
      8 C2C         0.1890    0.0750    2.9710 c3        1 W02     -0.085400
      9 C3C         0.0600    0.4950    1.5180 c3        1 W02      0.129400
     10 O1B         0.5060   -0.6330    0.7450 os        1 W02     -0.343900
     11 C1B         0.3850   -0.4330   -0.6260 ca        1 W02      0.089100
     12 C2B         1.5360   -0.1040   -1.3630 ca        1 W02     -0.070800
     13 CM2         2.8400    0.1090   -0.6930 c3        1 W02     -0.055300
     14 C3B         1.4500    0.0000   -2.7530 ca        1 W02     -0.120000
     15 C4B         0.2230   -0.2270   -3.4020 ca        1 W02      0.028800
     16 C5B        -0.9210   -0.5640   -2.6560 ca        1 W02     -0.120000
     17 C6B        -0.8460   -0.6640   -1.2650 ca        1 W02     -0.070800
     18 CM6        -2.0600   -1.0190   -0.4930 c3        1 W02     -0.055300
     19 N2A         0.1430   -0.1180   -4.8350 na        1 W02      0.264800
     20 N1A         1.2120   -0.2470   -5.6790 nc        1 W02     -0.136800
     21 N3A        -1.0080    0.1200   -5.5060 nc        1 W02     -0.484800
     22 C4A        -0.6140    0.1360   -6.8110 cd        1 W02      0.489300
     23 CM4        -1.4540    0.3560   -8.0070 c3        1 W02     -0.114400
     24 N5A         0.8050   -0.1020   -6.8640 nd        1 W02     -0.370000
     25 HM33       -0.1370   -1.6860    8.4920 hc        1 W02      0.058367
     26 HM32        0.1860   -0.2360    9.5390 hc        1 W02      0.058367
     27 HM31        1.5290   -0.9610    8.5520 hc        1 W02      0.058367
     28 H4          0.7210   -1.1830    5.6550 ha        1 W02      0.175000
     29 H1C2        0.3870    2.1200    3.6850 hc        1 W02      0.072700
     30 H1C1       -1.3110    1.4960    3.6530 hc        1 W02      0.072700
     31 H2C2       -0.4420   -0.8340    3.1540 hc        1 W02      0.063700
     32 H2C1        1.2520   -0.2090    3.1860 hc        1 W02      0.063700
     33 H3C2        0.7110    1.3790    1.2890 h1        1 W02      0.039700
     34 H3C1       -1.0030    0.7340    1.2540 h1        1 W02      0.039700
     35 HM23        2.6920    0.3950    0.3780 hc        1 W02      0.052700
     36 HM22        3.4250    0.9120   -1.2040 hc        1 W02      0.052700
     37 HM21        3.4380   -0.8370   -0.7210 hc        1 W02      0.052700
     38 H3B         2.3590    0.2600   -3.3210 ha        1 W02      0.161500
     39 H5B        -1.8890   -0.7530   -3.1490 ha        1 W02      0.161500
     40 HM63       -2.6810   -0.1060   -0.3150 hc        1 W02      0.052700
     41 HM62       -1.7830   -1.4600    0.4970 hc        1 W02      0.052700
     42 HM61       -2.6810   -1.7610   -1.0530 hc        1 W02      0.052700
     43 HM43       -1.3950   -0.5380   -8.6770 hc        1 W02      0.065367
     44 HM42       -2.5210    0.5250   -7.7200 hc        1 W02      0.065367
     45 HM41       -1.0820    1.2490   -8.5690 hc        1 W02      0.065367
@<TRIPOS>BOND
     1    1    2 1   
     2    1    6 1   
     3    2    3 2   
     4    3    4 1   
     5    3    5 1   
     6    4   25 1   
     7    4   26 1   
     8    4   27 1   
     9    5    6 2   
    10    5   28 1   
    11    6    7 1   
    12    7    8 1   
    13    7   29 1   
    14    7   30 1   
    15    8    9 1   
    16    8   31 1   
    17    8   32 1   
    18    9   10 1   
    19    9   33 1   
    20    9   34 1   
    21   10   11 1   
    22   11   12 ar  
    23   11   17 ar  
    24   12   13 1   
    25   12   14 ar  
    26   13   35 1   
    27   13   36 1   
    28   13   37 1   
    29   14   15 ar  
    30   14   38 1   
    31   15   16 ar  
    32   15   19 1   
    33   16   17 ar  
    34   16   39 1   
    35   17   18 1   
    36   18   40 1   
    37   18   41 1   
    38   18   42 1   
    39   19   20 1   
    40   19   21 1   
    41   20   24 2   
    42   21   22 2   
    43   22   23 1   
    44   22   24 1   
    45   23   43 1   
    46   23   44 1   
    47   23   45 1   
@<TRIPOS>SUBSTRUCTURE
     1 W02         1 TEMP              0 ****  ****    0 ROOT
