@<TRIPOS>MOLECULE
W02
   45    47     1     0     0
SMALL
bcc


@<TRIPOS>ATOM
      1 O1          0.2300   -1.2840    0.8030 os        1 W02     -0.124100
      2 N2          1.5220   -1.0840    0.6390 nc        1 W02     -0.360300
      3 C3          1.8290    0.1720    1.0260 cd        1 W02      0.321600
      4 CM3         3.1610    0.8020    1.0070 c3        1 W02     -0.133400
      5 C4          0.6050    0.8360    1.4830 cd        1 W02     -0.361600
      6 C5         -0.3820   -0.1150    1.3270 cc        1 W02      0.263000
      7 C1C        -1.8280   -0.1960    1.5640 c3        1 W02     -0.117700
      8 C2C        -2.3890    1.1240    2.0510 c3        1 W02     -0.085400
      9 C3C        -3.8830    0.9960    2.2860 c3        1 W02      0.129400
     10 O1B        -4.3170    2.2850    2.7550 os        1 W02     -0.343900
     11 C1B        -5.6910    2.3540    2.9580 ca        1 W02      0.089100
     12 C2B        -6.1830    2.2630    4.2720 ca        1 W02     -0.070800
     13 CM2        -5.2730    2.0130    5.4150 c3        1 W02     -0.055300
     14 C3B        -7.5500    2.4310    4.5030 ca        1 W02     -0.120000
     15 C4B        -8.4180    2.6950    3.4280 ca        1 W02      0.028800
     16 C5B        -7.9150    2.7940    2.1180 ca        1 W02     -0.120000
     17 C6B        -6.5500    2.6200    1.8780 ca        1 W02     -0.070800
     18 CM6        -6.0340    2.7270    0.4930 c3        1 W02     -0.055300
     19 N2A        -9.8250    2.8680    3.6740 na        1 W02      0.264800
     20 N1A       -10.3570    3.2400    4.8790 nc        1 W02     -0.136800
     21 N3A       -10.7800    2.6870    2.7320 nc        1 W02     -0.484800
     22 C4A       -11.9360    2.9600    3.3990 cd        1 W02      0.489300
     23 CM4       -13.3160    2.9220    2.8690 c3        1 W02     -0.114400
     24 N5A       -11.6110    3.3040    4.7580 nd        1 W02     -0.370000
     25 HM33        3.4430    1.1110    2.0450 hc        1 W02      0.058367
     26 HM32        3.9460    0.1090    0.6150 hc        1 W02      0.058367
     27 HM31        3.1330    1.7140    0.3590 hc        1 W02      0.058367
     28 H4          0.5270    1.8510    1.8550 ha        1 W02      0.175000
     29 H1C2       -2.0280   -1.0040    2.3220 hc        1 W02      0.072700
     30 H1C1       -2.3390   -0.5050    0.6110 hc        1 W02      0.072700
     31 H2C2       -2.1970    1.9310    1.2970 hc        1 W02      0.063700
     32 H2C1       -1.8850    1.4340    3.0040 hc        1 W02      0.063700
     33 H3C2       -4.1090    0.2240    3.0670 h1        1 W02      0.039700
     34 H3C1       -4.4260    0.7410    1.3380 h1        1 W02      0.039700
     35 HM23       -4.3350    1.5110    5.0720 hc        1 W02      0.052700
     36 HM22       -4.9920    2.9860    5.8930 hc        1 W02      0.052700
     37 HM21       -5.7670    1.3710    6.1860 hc        1 W02      0.052700
     38 H3B        -7.9250    2.3560    5.5370 ha        1 W02      0.161500
     39 H5B        -8.5790    3.0080    1.2650 ha        1 W02      0.161500
     40 HM63       -4.9450    2.9810    0.4950 hc        1 W02      0.052700
     41 HM62       -6.1710    1.7530   -0.0430 hc        1 W02      0.052700
     42 HM61       -6.5840    3.5180   -0.0740 hc        1 W02      0.052700
     43 HM43      -13.9230    2.1870    3.4540 hc        1 W02      0.065367
     44 HM42      -13.3230    2.6250    1.7920 hc        1 W02      0.065367
     45 HM41      -13.7850    3.9340    2.9710 hc        1 W02      0.065367
@<TRIPOS>BOND
     1    1    2 1   
     2    1    6 1   
     3    2    3 2   
     4    3    4 1   
     5    3    5 1   
     6    4   25 1   
     7    4   26 1   
     8    4   27 1   
     9    5    6 2   
    10    5   28 1   
    11    6    7 1   
    12    7    8 1   
    13    7   29 1   
    14    7   30 1   
    15    8    9 1   
    16    8   31 1   
    17    8   32 1   
    18    9   10 1   
    19    9   33 1   
    20    9   34 1   
    21   10   11 1   
    22   11   12 ar  
    23   11   17 ar  
    24   12   13 1   
    25   12   14 ar  
    26   13   35 1   
    27   13   36 1   
    28   13   37 1   
    29   14   15 ar  
    30   14   38 1   
    31   15   16 ar  
    32   15   19 1   
    33   16   17 ar  
    34   16   39 1   
    35   17   18 1   
    36   18   40 1   
    37   18   41 1   
    38   18   42 1   
    39   19   20 1   
    40   19   21 1   
    41   20   24 2   
    42   21   22 2   
    43   22   23 1   
    44   22   24 1   
    45   23   43 1   
    46   23   44 1   
    47   23   45 1   
@<TRIPOS>SUBSTRUCTURE
     1 W02         1 TEMP              0 ****  ****    0 ROOT
