@<TRIPOS>MOLECULE
W03
   46    48     1     0     0
SMALL
bcc


@<TRIPOS>ATOM
      1 O1          0.3740   -1.3200    1.0580 os        1 W03     -0.125100
      2 N2          1.6610   -1.0880    0.9010 nc        1 W03     -0.361300
      3 C3          1.9110    0.2170    1.1410 cd        1 W03      0.321600
      4 CM3         3.2180    0.8930    1.0760 c3        1 W03     -0.132400
      5 C4          0.6500    0.8800    1.4850 cd        1 W03     -0.362600
      6 C5         -0.2950   -0.1220    1.4220 cc        1 W03      0.265000
      7 C1C        -1.7440   -0.2320    1.6320 c3        1 W03     -0.118700
      8 C2C        -2.3590    1.1050    1.9900 c3        1 W03     -0.085400
      9 C3C        -3.8540    0.9470    2.2030 c3        1 W03      0.130400
     10 O1B        -4.3470    2.2610    2.5170 os        1 W03     -0.346900
     11 C1B        -5.7050    2.2720    2.8210 ca        1 W03      0.091100
     12 C2B        -6.1400    1.9470    4.1180 ca        1 W03     -0.084300
     13 CM2        -5.1890    1.4870    5.1570 c3        1 W03     -0.052800
     14 C3B        -7.4980    2.0670    4.4250 ca        1 W03     -0.109000
     15 C4B        -8.4140    2.5030    3.4600 ca        1 W03     -0.109500
     16 C5B        -7.9610    2.8250    2.1730 ca        1 W03     -0.109000
     17 C6B        -6.6100    2.7140    1.8390 ca        1 W03     -0.084300
     18 CM6        -6.1470    3.0820    0.4810 c3        1 W03     -0.052800
     19 C2A        -9.8250    2.6340    3.7720 cc        1 W03      0.295500
     20 C1A       -10.8020    3.2910    3.0240 cd        1 W03      0.156300
     21 N3A       -10.4350    2.0910    4.9280 nc        1 W03     -0.663000
     22 C4A       -11.7230    2.4190    4.8540 cd        1 W03      0.494700
     23 CM4       -12.8620    2.1440    5.7490 c3        1 W03     -0.125400
     24 O5A       -12.0140    3.1670    3.6920 os        1 W03     -0.384800
     25 HM33        3.1740    1.7180    0.3210 hc        1 W03      0.057367
     26 HM32        4.0400    0.1910    0.7900 hc        1 W03      0.057367
     27 HM31        3.4580    1.3370    2.0750 hc        1 W03      0.057367
     28 H4          0.5230    1.9290    1.7300 ha        1 W03      0.175000
     29 H1C2       -2.2200   -0.6380    0.6970 hc        1 W03      0.072700
     30 H1C1       -1.9380   -0.9780    2.4520 hc        1 W03      0.072700
     31 H2C2       -1.8910    1.5130    2.9240 hc        1 W03      0.063200
     32 H2C1       -2.1750    1.8510    1.1740 hc        1 W03      0.063200
     33 H3C2       -4.0740    0.2510    3.0540 h1        1 W03      0.038700
     34 H3C1       -4.3610    0.5750    1.2740 h1        1 W03      0.038700
     35 HM23       -4.1500    1.8270    4.9220 hc        1 W03      0.048700
     36 HM22       -5.4780    1.8880    6.1600 hc        1 W03      0.048700
     37 HM21       -5.1930    0.3690    5.2130 hc        1 W03      0.048700
     38 H3B        -7.8410    1.8160    5.4410 ha        1 W03      0.143500
     39 H5B        -8.6760    3.1670    1.4090 ha        1 W03      0.143500
     40 HM63       -5.1990    2.5460    0.2280 hc        1 W03      0.048700
     41 HM62       -5.9460    4.1820    0.4340 hc        1 W03      0.048700
     42 HM61       -6.9200    2.8310   -0.2860 hc        1 W03      0.048700
     43 H1A       -10.8340    3.8510    2.0960 h4        1 W03      0.066100
     44 HM43      -13.7950    2.5920    5.3270 hc        1 W03      0.070367
     45 HM42      -13.0000    1.0390    5.8580 hc        1 W03      0.070367
     46 HM41      -12.6650    2.5850    6.7580 hc        1 W03      0.070367
@<TRIPOS>BOND
     1    1    2 1   
     2    1    6 1   
     3    2    3 2   
     4    3    4 1   
     5    3    5 1   
     6    4   25 1   
     7    4   26 1   
     8    4   27 1   
     9    5    6 2   
    10    5   28 1   
    11    6    7 1   
    12    7    8 1   
    13    7   29 1   
    14    7   30 1   
    15    8    9 1   
    16    8   31 1   
    17    8   32 1   
    18    9   10 1   
    19    9   33 1   
    20    9   34 1   
    21   10   11 1   
    22   11   12 ar  
    23   11   17 ar  
    24   12   13 1   
    25   12   14 ar  
    26   13   35 1   
    27   13   36 1   
    28   13   37 1   
    29   14   15 ar  
    30   14   38 1   
    31   15   16 ar  
    32   15   19 1   
    33   16   17 ar  
    34   16   39 1   
    35   17   18 1   
    36   18   40 1   
    37   18   41 1   
    38   18   42 1   
    39   19   20 2   
    40   19   21 1   
    41   20   24 1   
    42   20   43 1   
    43   21   22 2   
    44   22   23 1   
    45   22   24 1   
    46   23   44 1   
    47   23   45 1   
    48   23   46 1   
@<TRIPOS>SUBSTRUCTURE
     1 W03         1 TEMP              0 ****  ****    0 ROOT
