@<TRIPOS>MOLECULE
W03
   46    40     1     0     0
SMALL
bcc


@<TRIPOS>ATOM
      1 O1          5.2720   -0.5100   -2.0190 os        1 W03     -0.068000
      2 N2          6.4740   -0.8590   -2.6430 n2        1 W03     -0.026000
      3 C3          6.6410   -2.1900   -2.5130 c1        1 W03     -0.101000
      4 CM3         7.8670   -3.0050   -2.9980 c2        1 W03     -0.152500
      5 C4          5.5580   -2.6890   -1.8130 c1        1 W03     -0.232000
      6 C5          4.7200   -1.6350   -1.5150 c1        1 W03     -0.024000
      7 C1C         3.2950   -1.7440   -0.8190 c2        1 W03     -0.103000
      8 C2C         2.7530   -0.3540   -0.5520 c3        1 W03     -0.164000
      9 C3C         1.3070   -0.4480   -0.1340 c3        1 W03     -0.020000
     10 O1B         0.7600    0.8900    0.0320 os        1 W03     -0.230000
     11 C1B        -0.6380    0.9070    0.3910 c2        1 W03      0.046000
     12 C2B        -1.0140    0.9310    1.7400 c2        1 W03     -0.074000
     13 CM2         0.0350    1.0130    2.8090 c3        1 W03     -0.175000
     14 C3B        -2.3680    0.9650    2.0870 c1        1 W03     -0.096000
     15 C4B        -3.3440    0.9750    1.0900 c1        1 W03     -0.002000
     16 C5B        -2.9680    0.9510   -0.2600 c1        1 W03     -0.122000
     17 C6B        -1.6170    0.9170   -0.6090 c1        1 W03     -0.079000
     18 CM6        -1.2160    1.0330   -2.0420 c3        1 W03     -0.180000
     19 C2A        -4.7050    1.0330    1.4390 c1        1 W03     -0.075000
     20 C1A        -5.5830   -0.0440    1.4920 c1        1 W03     -0.110000
     21 N3A        -5.3960    2.1520    1.7660 n2        1 W03     -0.137000
     22 C4A        -6.7000    1.7890    2.0240 c1        1 W03      0.008000
     23 CM4        -7.8330    2.7240    2.2890 c2        1 W03     -0.152500
     24 O5A        -6.8040    0.4290    1.8520 os        1 W03     -0.126000
     25 HM33        8.3730   -3.3280   -2.2200 ha        1 W03      0.103333
     26 HM32        8.4540   -2.4220   -3.5590 ha        1 W03      0.103333
     27 HM31        7.5570   -3.7800   -3.5360 ha        1 W03      0.103333
     28 H4          5.4080   -3.6540   -1.5640 DU        1 W03      0.189000
     29 H1C2        3.3820   -2.2240    0.0200 ha        1 W03      0.112000
     30 H1C1        2.6860   -2.2220   -1.4020 ha        1 W03      0.112000
     31 H2C2        3.2610    0.0550    0.1480 hc        1 W03      0.102000
     32 H2C1        2.8250    0.1950   -1.3780 hc        1 W03      0.102000
     33 H3C2        0.8030   -0.9210   -0.8160 h1        1 W03      0.078000
     34 H3C1        1.2430   -0.9430    0.7310 h1        1 W03      0.078000
     35 HM23        0.6880    1.6970    2.5720 hc        1 W03      0.088000
     36 HM22        0.4880    0.1420    2.8940 hc        1 W03      0.088000
     37 HM21       -0.3890    1.2470    3.6670 hc        1 W03      0.088000
     38 H3B        -2.6270    0.9820    3.0140 ha        1 W03      0.156000
     39 H5B        -3.6320    0.9580   -0.9360 ha        1 W03      0.131000
     40 HM63       -1.1090    0.1400   -2.4240 hc        1 W03      0.087667
     41 HM62       -1.9250    1.5320   -2.5490 hc        1 W03      0.087667
     42 HM61       -0.3640    1.5200   -2.1040 hc        1 W03      0.087667
     43 H1A        -5.3610   -0.9770    1.3050 DU        1 W03      0.189000
     44 HM43       -7.5930    3.3310    3.0130 ha        1 W03      0.103333
     45 HM42       -8.6400    2.2000    2.5480 ha        1 W03      0.103333
     46 HM41       -8.0250    3.2400    1.4810 ha        1 W03      0.103333
@<TRIPOS>BOND
     1    1    2 1   
     2    1    6 1   
     3    2    3 1   
     4    3    5 1   
     5    4   25 1   
     6    4   26 1   
     7    4   27 1   
     8    5    6 1   
     9    7    8 1   
    10    7   29 1   
    11    7   30 1   
    12    8    9 1   
    13    8   31 1   
    14    8   32 1   
    15    9   10 1   
    16    9   33 1   
    17    9   34 1   
    18   10   11 1   
    19   11   12 1   
    20   11   17 1   
    21   12   13 1   
    22   12   14 1   
    23   13   35 1   
    24   13   36 1   
    25   13   37 1   
    26   14   38 1   
    27   15   16 1   
    28   16   39 1   
    29   17   18 1   
    30   18   40 1   
    31   18   41 1   
    32   18   42 1   
    33   19   20 1   
    34   19   21 1   
    35   20   24 1   
    36   21   22 1   
    37   22   24 1   
    38   23   44 1   
    39   23   45 1   
    40   23   46 1   
@<TRIPOS>SUBSTRUCTURE
     1 W03         1 TEMP              0 ****  ****    0 ROOT
