@<TRIPOS>MOLECULE
W03
   46    48     1     0     0
SMALL
bcc


@<TRIPOS>ATOM
      1 O1          0.4710   -1.8160   -6.2940 os        1 W03     -0.125100
      2 N2          0.5260   -1.3170   -7.5120 nc        1 W03     -0.361300
      3 C3          0.4530    0.0290   -7.4440 cd        1 W03      0.321600
      4 CM3         0.4790    0.9730   -8.5750 c3        1 W03     -0.132400
      5 C4          0.3400    0.4230   -6.0370 cd        1 W03     -0.362600
      6 C5          0.3550   -0.7690   -5.3430 cc        1 W03      0.265000
      7 C1C         0.2840   -1.1800   -3.9360 c3        1 W03     -0.118700
      8 C2C         0.1370    0.0120   -3.0120 c3        1 W03     -0.085400
      9 C3C         0.0720   -0.4570   -1.5690 c3        1 W03      0.130400
     10 O1B        -0.0850    0.7330   -0.7780 os        1 W03     -0.346900
     11 C1B        -0.0800    0.4780    0.5900 ca        1 W03      0.091100
     12 C2B         1.1390    0.3440    1.2780 ca        1 W03     -0.084300
     13 CM2         2.4350    0.3650    0.5620 c3        1 W03     -0.052800
     14 C3B         1.1170    0.1930    2.6680 ca        1 W03     -0.109000
     15 C4B        -0.0970    0.1750    3.3670 ca        1 W03     -0.109500
     16 C5B        -1.3010    0.3130    2.6640 ca        1 W03     -0.109000
     17 C6B        -1.3090    0.4650    1.2760 ca        1 W03     -0.084300
     18 CM6        -2.5900    0.6330    0.5530 c3        1 W03     -0.052800
     19 C2A        -0.1270    0.0220    4.8100 cc        1 W03      0.295500
     20 C1A        -1.2070    0.2440    5.6630 cd        1 W03      0.156300
     21 N3A         0.9820   -0.3910    5.5870 nc        1 W03     -0.663000
     22 C4A         0.5600   -0.4100    6.8490 cd        1 W03      0.494700
     23 CM4         1.2420   -0.7550    8.1100 c3        1 W03     -0.125400
     24 O5A        -0.7930   -0.0250    6.9630 os        1 W03     -0.384800
     25 HM33       -0.4610    1.5790   -8.5770 hc        1 W03      0.057367
     26 HM32        1.3500    1.6670   -8.4600 hc        1 W03      0.057367
     27 HM31        0.5680    0.4480   -9.5580 hc        1 W03      0.057367
     28 H4          0.2630    1.4360   -5.6600 ha        1 W03      0.175000
     29 H1C2        1.2140   -1.7570   -3.6770 hc        1 W03      0.072700
     30 H1C1       -0.5870   -1.8810   -3.8030 hc        1 W03      0.072700
     31 H2C2       -0.7930    0.5860   -3.2610 hc        1 W03      0.063200
     32 H2C1        1.0040    0.7120   -3.1380 hc        1 W03      0.063200
     33 H3C2        1.0140   -0.9860   -1.2690 h1        1 W03      0.038700
     34 H3C1       -0.8070   -1.1310   -1.3990 h1        1 W03      0.038700
     35 HM23        2.7850   -0.6810    0.3730 hc        1 W03      0.048700
     36 HM22        2.3360    0.8890   -0.4210 hc        1 W03      0.048700
     37 HM21        3.2130    0.8890    1.1690 hc        1 W03      0.048700
     38 H3B         2.0700    0.0910    3.2100 ha        1 W03      0.143500
     39 H5B        -2.2580    0.2970    3.2070 ha        1 W03      0.143500
     40 HM63       -3.4040    0.0420    1.0410 hc        1 W03      0.048700
     41 HM62       -2.8870    1.7120    0.5540 hc        1 W03      0.048700
     42 HM61       -2.4910    0.3030   -0.5110 hc        1 W03      0.048700
     43 H1A        -2.2360    0.5670    5.5570 h4        1 W03      0.066100
     44 HM43        0.5340   -0.6490    8.9680 hc        1 W03      0.070367
     45 HM42        1.6110   -1.8110    8.0640 hc        1 W03      0.070367
     46 HM41        2.1160   -0.0740    8.2660 hc        1 W03      0.070367
@<TRIPOS>BOND
     1    1    2 1   
     2    1    6 1   
     3    2    3 2   
     4    3    4 1   
     5    3    5 1   
     6    4   25 1   
     7    4   26 1   
     8    4   27 1   
     9    5    6 2   
    10    5   28 1   
    11    6    7 1   
    12    7    8 1   
    13    7   29 1   
    14    7   30 1   
    15    8    9 1   
    16    8   31 1   
    17    8   32 1   
    18    9   10 1   
    19    9   33 1   
    20    9   34 1   
    21   10   11 1   
    22   11   12 ar  
    23   11   17 ar  
    24   12   13 1   
    25   12   14 ar  
    26   13   35 1   
    27   13   36 1   
    28   13   37 1   
    29   14   15 ar  
    30   14   38 1   
    31   15   16 ar  
    32   15   19 1   
    33   16   17 ar  
    34   16   39 1   
    35   17   18 1   
    36   18   40 1   
    37   18   41 1   
    38   18   42 1   
    39   19   20 2   
    40   19   21 1   
    41   20   24 1   
    42   20   43 1   
    43   21   22 2   
    44   22   23 1   
    45   22   24 1   
    46   23   44 1   
    47   23   45 1   
    48   23   46 1   
@<TRIPOS>SUBSTRUCTURE
     1 W03         1 TEMP              0 ****  ****    0 ROOT
