@<TRIPOS>MOLECULE
W03
   46    48     1     0     0
SMALL
bcc


@<TRIPOS>ATOM
      1 O1          0.3680   -1.3220    1.0420 os        1 W03     -0.125100
      2 N2          1.6560   -1.0920    0.8860 nc        1 W03     -0.361300
      3 C3          1.9080    0.2100    1.1340 cd        1 W03      0.321600
      4 CM3         3.2170    0.8840    1.0730 c3        1 W03     -0.132400
      5 C4          0.6490    0.8740    1.4840 cd        1 W03     -0.362600
      6 C5         -0.2980   -0.1250    1.4150 cc        1 W03      0.265000
      7 C1C        -1.7470   -0.2330    1.6250 c3        1 W03     -0.118700
      8 C2C        -2.3590    1.1030    1.9940 c3        1 W03     -0.085400
      9 C3C        -3.8540    0.9480    2.2050 c3        1 W03      0.130400
     10 O1B        -4.3430    2.2590    2.5310 os        1 W03     -0.346900
     11 C1B        -5.7020    2.2720    2.8300 ca        1 W03      0.091100
     12 C2B        -6.1420    1.9360    4.1230 ca        1 W03     -0.084300
     13 CM2        -5.1970    1.4630    5.1600 c3        1 W03     -0.052800
     14 C3B        -7.5010    2.0580    4.4260 ca        1 W03     -0.109000
     15 C4B        -8.4130    2.5080    3.4620 ca        1 W03     -0.109500
     16 C5B        -7.9540    2.8410    2.1800 ca        1 W03     -0.109000
     17 C6B        -6.6020    2.7280    1.8500 ca        1 W03     -0.084300
     18 CM6        -6.1330    3.1080    0.4970 c3        1 W03     -0.052800
     19 C2A        -9.8240    2.6400    3.7710 cc        1 W03      0.295500
     20 C1A       -10.7960    3.3080    3.0260 cd        1 W03      0.156300
     21 N3A       -10.4400    2.0880    4.9200 nc        1 W03     -0.663000
     22 C4A       -11.7260    2.4210    4.8450 cd        1 W03      0.494700
     23 CM4       -12.8700    2.1420    5.7330 c3        1 W03     -0.125400
     24 O5A       -12.0110    3.1820    3.6890 os        1 W03     -0.384800
     25 HM33        3.1740    1.7150    0.3250 hc        1 W03      0.057700
     26 HM32        4.0370    0.1820    0.7810 hc        1 W03      0.057700
     27 HM31        3.4590    1.3190    2.0760 hc        1 W03      0.057700
     28 H4          0.5250    1.9210    1.7360 ha        1 W03      0.175000
     29 H1C2       -2.2240   -0.6300    0.6860 hc        1 W03      0.072700
     30 H1C1       -1.9430   -0.9850    2.4380 hc        1 W03      0.072700
     31 H2C2       -1.8890    1.5010    2.9320 hc        1 W03      0.063200
     32 H2C1       -2.1710    1.8550    1.1840 hc        1 W03      0.063200
     33 H3C2       -4.0770    0.2440    3.0500 h1        1 W03      0.038700
     34 H3C1       -4.3620    0.5860    1.2730 h1        1 W03      0.038700
     35 HM23       -4.1560    1.8020    4.9330 hc        1 W03      0.048700
     36 HM22       -5.4880    1.8540    6.1670 hc        1 W03      0.048700
     37 HM21       -5.2040    0.3440    5.2040 hc        1 W03      0.048700
     38 H3B        -7.8490    1.7980    5.4390 ha        1 W03      0.143500
     39 H5B        -8.6650    3.1920    1.4170 ha        1 W03      0.143500
     40 HM63       -5.1860    2.5710    0.2420 hc        1 W03      0.048700
     41 HM62       -5.9290    4.2080    0.4620 hc        1 W03      0.048700
     42 HM61       -6.9040    2.8660   -0.2750 hc        1 W03      0.048700
     43 H1A       -10.8220    3.8770    2.1050 h4        1 W03      0.066100
     44 HM43      -13.8000    2.5980    5.3120 hc        1 W03      0.070367
     45 HM42      -13.0120    1.0360    5.8300 hc        1 W03      0.070367
     46 HM41      -12.6740    2.5710    6.7470 hc        1 W03      0.070367
@<TRIPOS>BOND
     1    1    2 1   
     2    1    6 1   
     3    2    3 2   
     4    3    4 1   
     5    3    5 1   
     6    4   25 1   
     7    4   26 1   
     8    4   27 1   
     9    5    6 2   
    10    5   28 1   
    11    6    7 1   
    12    7    8 1   
    13    7   29 1   
    14    7   30 1   
    15    8    9 1   
    16    8   31 1   
    17    8   32 1   
    18    9   10 1   
    19    9   33 1   
    20    9   34 1   
    21   10   11 1   
    22   11   12 ar  
    23   11   17 ar  
    24   12   13 1   
    25   12   14 ar  
    26   13   35 1   
    27   13   36 1   
    28   13   37 1   
    29   14   15 ar  
    30   14   38 1   
    31   15   16 ar  
    32   15   19 1   
    33   16   17 ar  
    34   16   39 1   
    35   17   18 1   
    36   18   40 1   
    37   18   41 1   
    38   18   42 1   
    39   19   20 2   
    40   19   21 1   
    41   20   24 1   
    42   20   43 1   
    43   21   22 2   
    44   22   23 1   
    45   22   24 1   
    46   23   44 1   
    47   23   45 1   
    48   23   46 1   
@<TRIPOS>SUBSTRUCTURE
     1 W03         1 TEMP              0 ****  ****    0 ROOT
