@<TRIPOS>MOLECULE
W05
   41    40     1     0     0
SMALL
bcc


@<TRIPOS>ATOM
      1 C1          6.1510    9.1680    0.4830 c         1 W05      0.886600
      2 C2          4.8500    8.4190    0.9250 c3        1 W05      0.025500
      3 C3          5.1350    6.9240    1.0730 c3        1 W05     -0.061400
      4 C4          5.1440    6.1520   -0.2300 c3        1 W05     -0.073400
      5 C7          5.7640    4.7840   -0.0230 c3        1 W05     -0.142400
      6 C10         5.4300    3.8170   -1.1430 c         1 W05      0.663100
      7 N11         6.0590    2.5810   -1.0940 n         1 W05     -0.564900
      8 C12         5.8680    1.5840   -2.1120 c3        1 W05      0.034700
      9 C13         6.2090    0.1640   -1.5730 c         1 W05      0.630100
     10 N14         3.6720    8.7270    0.1260 n3        1 W05     -0.894800
     11 O15         4.6010    4.0650   -2.0420 o         1 W05     -0.626100
     12 C16         6.6840    1.8070   -3.3910 c3        1 W05     -0.005300
     13 S17         8.4360    1.9850   -3.2030 sh        1 W05     -0.434900
     14 O18         7.1440    0.0200   -0.7460 o         1 W05     -0.673100
     15 O19         7.2030    8.9530    1.1470 o         1 W05     -0.848800
     16 O20         6.0760    9.9810   -0.4830 o         1 W05     -0.848800
     17 N29         5.4770   -0.8680   -2.0650 n         1 W05     -0.513900
     18 C30         5.6950   -2.2590   -1.7280 c3        1 W05     -0.036300
     19 C31         4.5690   -3.1820   -2.3220 c         1 W05      0.916600
     20 C32         7.0410   -2.8030   -2.1960 c3        1 W05     -0.092100
     21 O42         3.8040   -2.7170   -3.2120 o         1 W05     -0.833300
     22 O43         4.5140   -4.3520   -1.8570 o         1 W05     -0.833300
     23 H2          4.6260    8.8100    1.9640 h1        1 W05      0.034700
     24 H3C1        4.3750    6.4650    1.7600 hc        1 W05      0.035700
     25 H3C2        6.1420    6.8400    1.5660 hc        1 W05      0.035700
     26 H4C1        4.1000    6.0260   -0.6210 hc        1 W05      0.059700
     27 H4C2        5.7270    6.7190   -1.0020 hc        1 W05      0.059700
     28 H7C1        6.8780    4.8900    0.0650 hc        1 W05      0.061700
     29 H7C2        5.3870    4.3390    0.9380 hc        1 W05      0.061700
     30 H11         6.8140    2.4320   -0.4650 hn        1 W05      0.325500
     31 H12         4.7740    1.6300   -2.4160 h1        1 W05      0.094700
     32 H141        3.7140    8.2070   -0.7320 hn        1 W05      0.332300
     33 H142        3.7350    9.7000   -0.1330 hn        1 W05      0.332300
     34 H161        6.4700    0.9640   -4.0920 h1        1 W05      0.082700
     35 H162        6.3540    2.7640   -3.8730 h1        1 W05      0.082700
     36 H29         4.7440   -0.7070   -2.7250 hn        1 W05      0.338500
     37 H30         5.6540   -2.3520   -0.6040 h1        1 W05      0.051700
     38 H321        7.8840   -2.2450   -1.7200 hc        1 W05      0.030700
     39 H322        7.0950   -3.8790   -1.9020 hc        1 W05      0.030700
     40 H323        7.1400   -2.7320   -3.3040 hc        1 W05      0.030700
     41 HS1         8.6590    1.0470   -2.2820 hs        1 W05      0.245800
@<TRIPOS>BOND
     1    1    2 1   
     2    1   15 1   
     3    1   16 1   
     4    2    3 1   
     5    2   10 1   
     6    2   23 1   
     7    3    4 1   
     8    3   24 1   
     9    3   25 1   
    10    4    5 1   
    11    4   26 1   
    12    4   27 1   
    13    5    6 1   
    14    5   28 1   
    15    5   29 1   
    16    6    7 1   
    17    6   11 2   
    18    7    8 1   
    19    7   30 1   
    20    8    9 1   
    21    8   12 1   
    22    8   31 1   
    23    9   14 2   
    24    9   17 1   
    25   10   32 1   
    26   10   33 1   
    27   12   13 1   
    28   12   34 1   
    29   12   35 1   
    30   13   41 1   
    31   17   18 1   
    32   17   36 1   
    33   18   19 1   
    34   18   20 1   
    35   18   37 1   
    36   19   21 1   
    37   19   22 1   
    38   20   38 1   
    39   20   39 1   
    40   20   40 1   
@<TRIPOS>SUBSTRUCTURE
     1 W05         1 TEMP              0 ****  ****    0 ROOT
