@<TRIPOS>MOLECULE
W05
   44    43     1     0     0
SMALL
bcc


@<TRIPOS>ATOM
      1 C1          0.7510    0.4970    2.7000 c         1 W05      0.903600
      2 C2          1.4240    0.1630    1.3340 c3        1 W05     -0.012500
      3 C3          2.9040    0.5390    1.4130 c3        1 W05     -0.095400
      4 C4          3.1790    1.8720    2.0870 c3        1 W05     -0.082400
      5 C7          3.3350    1.7530    3.5990 c3        1 W05     -0.149400
      6 C10         2.3970    2.6900    4.3140 c         1 W05      0.590100
      7 N11         1.3580    2.0490    5.1980 n4        1 W05     -0.680800
      8 C12         1.1490    2.7490    6.5020 c3        1 W05      0.060500
      9 C13         2.5030    2.9520    7.2350 c         1 W05      0.664100
     10 N14         0.6960    0.8800    0.2350 n4        1 W05     -0.834600
     11 O15         2.3720    3.9100    4.2280 o         1 W05     -0.447100
     12 C16         0.1390    1.9810    7.3540 c3        1 W05     -0.046300
     13 S17         0.6370    0.2990    7.5650 sh        1 W05     -0.314900
     14 O18         3.5600    2.5440    6.7100 o         1 W05     -0.607100
     15 O19         0.9990   -0.2440    3.6780 o         1 W05     -0.802800
     16 O20         0.0610    1.5620    2.7610 o         1 W05     -0.802800
     17 N29         2.4630    3.5820    8.4500 n         1 W05     -0.514900
     18 C30         3.6730    4.0050    9.1250 c3        1 W05      0.005700
     19 C31         3.8660    5.5210    9.0210 c         1 W05      0.600100
     20 C32         3.6760    3.6250   10.6070 c3        1 W05     -0.112100
     21 O42         5.0880    6.0480    9.2990 oh        1 W05     -0.550100
     22 O43         3.0080    6.3440    8.7070 o         1 W05     -0.483000
     23 H2          1.3320   -0.9450    1.1390 hx        1 W05      0.119700
     24 H3C1        3.4070   -0.2900    1.9860 hc        1 W05      0.083200
     25 H3C2        3.3610    0.5450    0.3870 hc        1 W05      0.083200
     26 H4C1        2.3620    2.6020    1.8400 hc        1 W05      0.071200
     27 H4C2        4.1330    2.2930    1.6680 hc        1 W05      0.071200
     28 H7C1        3.1880    0.6870    3.9290 hc        1 W05      0.117700
     29 H7C2        4.3730    2.0590    3.9140 hc        1 W05      0.117700
     30 H11         1.6130    1.0540    5.3860 hn        1 W05      0.503300
     31 H12         0.7410    3.7810    6.2630 hx        1 W05      0.134700
     32 H141        1.3270    1.1300   -0.5260 hn        1 W05      0.458800
     33 H142       -0.0600    0.2920   -0.1180 hn        1 W05      0.458800
     34 H161        0.0700    2.4550    8.3670 h1        1 W05      0.108700
     35 H162       -0.8780    2.0560    6.8950 h1        1 W05      0.108700
     36 H29         5.7080    5.3480    9.5510 ho        1 W05      0.434000
     37 H30         4.5540    3.5030    8.6150 h1        1 W05      0.112700
     38 H321        3.6240    2.5160   10.7250 hc        1 W05      0.066033
     39 H322        2.8140    4.0860   11.1460 hc        1 W05      0.066033
     40 H323        4.6240    3.9910   11.0710 hc        1 W05      0.066033
     41 HS1        -0.4000   -0.3200    7.0130 hs        1 W05      0.234800
     42 H112        0.4620    2.0310    4.6610 hn        1 W05      0.503300
     43 H143        0.2780    1.7380    0.6460 hn        1 W05      0.458800
     44 H292        1.6230    4.0320    8.7440 hn        1 W05      0.335500
@<TRIPOS>BOND
     1    1    2 1   
     2    1   15 1   
     3    1   16 1   
     4    2    3 1   
     5    2   10 1   
     6    2   23 1   
     7    3    4 1   
     8    3   24 1   
     9    3   25 1   
    10    4    5 1   
    11    4   26 1   
    12    4   27 1   
    13    5    6 1   
    14    5   28 1   
    15    5   29 1   
    16    6    7 1   
    17    6   11 2   
    18    7    8 1   
    19    7   30 1   
    20    7   42 1   
    21    8    9 1   
    22    8   12 1   
    23    8   31 1   
    24    9   14 2   
    25    9   17 1   
    26   10   32 1   
    27   10   33 1   
    28   10   43 1   
    29   12   13 1   
    30   12   34 1   
    31   12   35 1   
    32   13   41 1   
    33   17   18 1   
    34   17   44 1   
    35   18   19 1   
    36   18   20 1   
    37   18   37 1   
    38   19   21 1   
    39   19   22 2   
    40   20   38 1   
    41   20   39 1   
    42   20   40 1   
    43   21   36 1   
@<TRIPOS>SUBSTRUCTURE
     1 W05         1 TEMP              0 ****  ****    0 ROOT
