@<TRIPOS>MOLECULE
W05
   44    43     1     0     0
SMALL
bcc


@<TRIPOS>ATOM
      1 C1          0.8340    0.4390    2.6960 c         1 W05      0.903600
      2 C2          1.5080    0.1660    1.3170 c3        1 W05     -0.012500
      3 C3          2.9610    0.6370    1.3810 c3        1 W05     -0.094400
      4 C4          3.1570    1.9770    2.0690 c3        1 W05     -0.082400
      5 C7          3.3420    1.8500    3.5770 c3        1 W05     -0.149400
      6 C10         2.3560    2.7150    4.3160 c         1 W05      0.590100
      7 N11         1.3730    1.9970    5.2050 ny        1 W05     -0.680800
      8 C12         1.1360    2.6660    6.5210 c3        1 W05      0.060500
      9 C13         2.4840    2.9460    7.2390 c         1 W05      0.664100
     10 N14         0.7200    0.8470    0.2360 nz        1 W05     -0.834600
     11 O15         2.2510    3.9320    4.2480 o         1 W05     -0.447100
     12 C16         0.1890    1.8230    7.3750 c3        1 W05     -0.046300
     13 S17         0.7980    0.1740    7.5580 sh        1 W05     -0.314900
     14 O18         3.5580    2.6150    6.6960 o         1 W05     -0.608100
     15 O19         1.1420   -0.2970    3.6610 o         1 W05     -0.802800
     16 O20         0.0770    1.4550    2.7790 o         1 W05     -0.802800
     17 N29         2.4190    3.5560    8.4630 ns        1 W05     -0.514900
     18 C30         3.6090    4.0480    9.1290 c3        1 W05      0.005700
     19 C31         3.7010    5.5740    9.0460 c         1 W05      0.600100
     20 C32         3.6580    3.6480   10.6050 c3        1 W05     -0.112100
     21 O42         4.8890    6.1760    9.3160 oh        1 W05     -0.550100
     22 O43         2.7870    6.3440    8.7550 o         1 W05     -0.483000
     23 H2          1.4860   -0.9430    1.1080 hx        1 W05      0.119700
     24 H3C1        3.5250   -0.1640    1.9360 hc        1 W05      0.083200
     25 H3C2        3.4020    0.6850    0.3490 hc        1 W05      0.083200
     26 H4C1        2.2900    2.6540    1.8430 hc        1 W05      0.071200
     27 H4C2        4.0750    2.4650    1.6420 hc        1 W05      0.071200
     28 H7C1        4.3630    2.2200    3.8820 hc        1 W05      0.117700
     29 H7C2        3.2700    0.7730    3.8950 hc        1 W05      0.117700
     30 H11         0.4720    1.9280    4.6790 hn        1 W05      0.503300
     31 H12         0.6590    3.6720    6.3010 hx        1 W05      0.134700
     32 H141       -0.0020    0.2140   -0.1140 hn        1 W05      0.458800
     33 H142        0.2530    1.6700    0.6630 hn        1 W05      0.458800
     34 H161       -0.8370    1.8380    6.9290 h1        1 W05      0.108700
     35 H162        0.1030    2.2790    8.3950 h1        1 W05      0.108700
     36 H29         1.5570    3.9460    8.7750 hn        1 W05      0.335500
     37 H30         4.5140    3.6120    8.6000 h1        1 W05      0.112700
     38 H321        2.7750    4.0430   11.1630 hc        1 W05      0.066033
     39 H322        3.6790    2.5360   10.7070 hc        1 W05      0.066033
     40 H323        4.5860    4.0690   11.0620 hc        1 W05      0.066033
     41 HS1        -0.2040   -0.5040    7.0090 hs        1 W05      0.234800
     42 H112        1.6940    1.0180    5.3770 hn        1 W05      0.503300
     43 H143        1.3220    1.1460   -0.5300 hn        1 W05      0.458800
     44 H292        5.5580    5.5150    9.5490 ho        1 W05      0.434000
@<TRIPOS>BOND
     1    1    2 1   
     2    1   15 1   
     3    1   16 1   
     4    2    3 1   
     5    2   10 1   
     6    2   23 1   
     7    3    4 1   
     8    3   24 1   
     9    3   25 1   
    10    4    5 1   
    11    4   26 1   
    12    4   27 1   
    13    5    6 1   
    14    5   28 1   
    15    5   29 1   
    16    6    7 1   
    17    6   11 2   
    18    7    8 1   
    19    7   30 1   
    20    7   42 1   
    21    8    9 1   
    22    8   12 1   
    23    8   31 1   
    24    9   14 2   
    25    9   17 1   
    26   10   32 1   
    27   10   33 1   
    28   10   43 1   
    29   12   13 1   
    30   12   34 1   
    31   12   35 1   
    32   13   41 1   
    33   17   18 1   
    34   17   36 1   
    35   18   19 1   
    36   18   20 1   
    37   18   37 1   
    38   19   21 1   
    39   19   22 2   
    40   20   38 1   
    41   20   39 1   
    42   20   40 1   
    43   21   44 1   
@<TRIPOS>SUBSTRUCTURE
     1 W05         1 TEMP              0 ****  ****    0 ROOT
