@<TRIPOS>MOLECULE
W05
   44    43     1     0     0
SMALL
bcc


@<TRIPOS>ATOM
      1 C1          0.7400    0.4730    2.7210 c         1 W05      0.903600
      2 C2          1.3980    0.1490    1.3460 c3        1 W05     -0.012500
      3 C3          2.8740    0.5440    1.4060 c3        1 W05     -0.095400
      4 C4          3.1400    1.8800    2.0750 c3        1 W05     -0.082400
      5 C7          3.3170    1.7650    3.5850 c3        1 W05     -0.149400
      6 C10         2.3740    2.6890    4.3110 c         1 W05      0.590100
      7 N11         1.3580    2.0340    5.2100 n4        1 W05     -0.680800
      8 C12         1.1570    2.7330    6.5160 c3        1 W05      0.060500
      9 C13         2.5190    2.9570    7.2290 c         1 W05      0.664100
     10 N14         0.6470    0.8560    0.2570 n4        1 W05     -0.834600
     11 O15         2.3290    3.9090    4.2230 o         1 W05     -0.447100
     12 C16         0.1720    1.9510    7.3850 c3        1 W05     -0.046300
     13 S17         0.6980    0.2760    7.5900 sh        1 W05     -0.315900
     14 O18         3.5740    2.5640    6.6900 o         1 W05     -0.608100
     15 O19         1.0100   -0.2650    3.6960 o         1 W05     -0.802800
     16 O20         0.0350    1.5280    2.7910 o         1 W05     -0.802800
     17 N29         2.4870    3.5880    8.4440 n         1 W05     -0.514900
     18 C30         3.7010    4.0310    9.1000 c3        1 W05      0.005700
     19 C31         3.8700    5.5490    8.9900 c         1 W05      0.600100
     20 C32         3.7310    3.6540   10.5820 c3        1 W05     -0.112100
     21 O42         5.0870    6.0940    9.2490 oh        1 W05     -0.550100
     22 O43         2.9960    6.3590    8.6860 o         1 W05     -0.483000
     23 H2          1.3180   -0.9600    1.1510 hx        1 W05      0.119700
     24 H3C1        3.3170    0.5540    0.3730 hc        1 W05      0.083200
     25 H3C2        3.3950   -0.2790    1.9720 hc        1 W05      0.083200
     26 H4C1        2.3110    2.6000    1.8380 hc        1 W05      0.070700
     27 H4C2        4.0840    2.3130    1.6430 hc        1 W05      0.070700
     28 H7C1        4.3540    2.0870    3.8870 hc        1 W05      0.117700
     29 H7C2        3.1890    0.6980    3.9170 hc        1 W05      0.117700
     30 H11         0.4540    2.0030    4.6860 hn        1 W05      0.503300
     31 H12         0.7300    3.7580    6.2830 hx        1 W05      0.134700
     32 H141        1.2640    1.1150   -0.5120 hn        1 W05      0.458800
     33 H142        0.2220    1.7070    0.6740 hn        1 W05      0.458800
     34 H161       -0.8530    2.0100    6.9400 h1        1 W05      0.108700
     35 H162        0.1100    2.4250    8.3970 h1        1 W05      0.108700
     36 H29         5.7210    5.4040    9.4940 ho        1 W05      0.434000
     37 H30         4.5820    3.5410    8.5790 h1        1 W05      0.112700
     38 H321        2.8700    4.1040   11.1340 hc        1 W05      0.066033
     39 H322        4.6800    4.0360   11.0320 hc        1 W05      0.066033
     40 H323        3.6960    2.5450   10.7040 hc        1 W05      0.066033
     41 HS1        -0.3390   -0.3590    7.0550 hs        1 W05      0.234800
     42 H112        1.6300    1.0430    5.3960 hn        1 W05      0.503300
     43 H143       -0.1060    0.2580   -0.0870 hn        1 W05      0.458800
     44 H292        1.6450    4.0260    8.7500 hn        1 W05      0.335500
@<TRIPOS>BOND
     1    1    2 1   
     2    1   15 1   
     3    1   16 1   
     4    2    3 1   
     5    2   10 1   
     6    2   23 1   
     7    3    4 1   
     8    3   24 1   
     9    3   25 1   
    10    4    5 1   
    11    4   26 1   
    12    4   27 1   
    13    5    6 1   
    14    5   28 1   
    15    5   29 1   
    16    6    7 1   
    17    6   11 2   
    18    7    8 1   
    19    7   30 1   
    20    7   42 1   
    21    8    9 1   
    22    8   12 1   
    23    8   31 1   
    24    9   14 2   
    25    9   17 1   
    26   10   32 1   
    27   10   33 1   
    28   10   43 1   
    29   12   13 1   
    30   12   34 1   
    31   12   35 1   
    32   13   41 1   
    33   17   18 1   
    34   17   44 1   
    35   18   19 1   
    36   18   20 1   
    37   18   37 1   
    38   19   21 1   
    39   19   22 2   
    40   20   38 1   
    41   20   39 1   
    42   20   40 1   
    43   21   36 1   
@<TRIPOS>SUBSTRUCTURE
     1 W05         1 TEMP              0 ****  ****    0 ROOT
