@<TRIPOS>MOLECULE
W07
   63    64     1     0     0
SMALL
bcc


@<TRIPOS>ATOM
      1 C4         -4.0050   -0.4750   -0.3430 ca        1 W07      0.121100
      2 C3         -5.3810    1.2310    0.5910 c3        1 W07      0.094400
      3 C2         -6.6510    1.9920    0.2040 c3        1 W07      0.097100
      4 C5         -3.8010   -1.3920   -1.3890 ca        1 W07     -0.180000
      5 C6         -2.7150   -2.2590   -1.3350 ca        1 W07     -0.093000
      6 C9         -3.1250   -0.4330    0.7450 ca        1 W07     -0.180000
      7 C8         -2.0450   -1.3130    0.7780 ca        1 W07     -0.093000
      8 C1         -6.6990    3.3350    0.9450 c3        1 W07      0.093400
      9 C11        -0.4440   -3.9920   -1.4250 c3        1 W07     -0.086100
     10 C13         0.6110   -2.3870    0.1010 ca        1 W07     -0.107300
     11 C16         2.9580   -0.8960    0.4530 ca        1 W07      0.124100
     12 C17         2.6460   -1.9350    1.3470 ca        1 W07     -0.181500
     13 C18         1.4800   -2.6700    1.1610 ca        1 W07     -0.092500
     14 C19         4.4380    0.8820   -0.1200 c3        1 W07      0.097400
     15 C20         5.7350    1.4840    0.4370 c3        1 W07      0.142100
     16 C21         6.5440    2.2240   -0.6500 c3        1 W07     -0.086000
     17 O01        -5.6370    4.1830    0.5650 oh        1 W07     -0.591800
     18 O02        -7.8270    1.2530    0.4680 oh        1 W07     -0.577800
     19 O03        -5.1050    0.3470   -0.4990 os        1 W07     -0.324900
     20 C7         -1.8240   -2.2330   -0.2560 ca        1 W07     -0.105300
     21 C12        -0.9510   -4.1610    0.9840 c3        1 W07     -0.086100
     22 C14         0.9390   -1.3470   -0.7790 ca        1 W07     -0.092500
     23 C15         2.1020   -0.6000   -0.6140 ca        1 W07     -0.181500
     24 O04         4.1440   -0.2390    0.7200 os        1 W07     -0.321900
     25 O05         5.4530    2.3210    1.5440 oh        1 W07     -0.582800
     26 C22         7.7150    2.9290    0.0250 c3        1 W07     -0.088767
     27 C23         7.0930    1.2240   -1.6570 c3        1 W07     -0.088767
     28 C24         5.6870    3.2540   -1.3660 c3        1 W07     -0.088767
     29 H1         -4.5290    1.9500    0.7200 h1        1 W07      0.053200
     30 H2         -5.5350    0.6400    1.5310 h1        1 W07      0.053200
     31 H3         -6.6730    2.1550   -0.9120 h1        1 W07      0.096700
     32 H4         -4.5020   -1.4120   -2.2350 ha        1 W07      0.143000
     33 H5         -2.5740   -2.9710   -2.1630 ha        1 W07      0.138000
     34 H6         -3.2680    0.2800    1.5680 ha        1 W07      0.143000
     35 H7         -1.3470   -1.2780    1.6290 ha        1 W07      0.138000
     36 H8         -7.6910    3.8260    0.7540 h1        1 W07      0.056200
     37 H9         -6.5640    3.1860    2.0500 h1        1 W07      0.056200
     38 H10         0.4710   -4.6240   -1.3230 hc        1 W07      0.039533
     39 H11        -1.3170   -4.6640   -1.6050 hc        1 W07      0.039533
     40 H12        -0.3130   -3.3180   -2.3040 hc        1 W07      0.039533
     41 H13         3.3280   -2.1540    2.1800 ha        1 W07      0.141500
     42 H14         1.2550   -3.4810    1.8710 ha        1 W07      0.137000
     43 H15         3.6000    1.6260   -0.0700 h1        1 W07      0.045200
     44 H16         4.5720    0.5260   -1.1740 h1        1 W07      0.045200
     45 H17         6.3700    0.6620    0.8810 h1        1 W07      0.097700
     46 H18        -5.7380    4.3660   -0.3780 ho        1 W07      0.404000
     47 H19        -7.8040    0.9890    1.3960 ho        1 W07      0.398000
     48 H20        -1.0250   -3.6250    1.9600 hc        1 W07      0.039533
     49 H21        -1.9230   -4.6740    0.7870 hc        1 W07      0.039533
     50 H22        -0.1510   -4.9360    1.0500 hc        1 W07      0.039533
     51 H23         0.2610   -1.1120   -1.6150 ha        1 W07      0.137000
     52 H24         2.3310    0.2090   -1.3210 ha        1 W07      0.141500
     53 H25         4.9150    3.0560    1.2250 ho        1 W07      0.395000
     54 H26         7.3430    3.6370    0.8040 hc        1 W07      0.039033
     55 H27         8.3820    2.1810    0.5160 hc        1 W07      0.039033
     56 H28         8.3070    3.4990   -0.7300 hc        1 W07      0.039033
     57 H29         7.8210    1.7320   -2.3350 hc        1 W07      0.039033
     58 H30         7.6180    0.3910   -1.1330 hc        1 W07      0.039033
     59 H31         6.2770    0.7940   -2.2850 hc        1 W07      0.039033
     60 H32         5.2990    4.0120   -0.6440 hc        1 W07      0.039033
     61 H33         6.2950    3.7840   -2.1390 hc        1 W07      0.039033
     62 H34         4.8210    2.7660   -1.8740 hc        1 W07      0.039033
     63 C10        -0.6510   -3.1790   -0.1480 c3        1 W07      0.050600
@<TRIPOS>BOND
     1    1    4 ar  
     2    1    6 ar  
     3    1   19 1   
     4    2    3 1   
     5    2   19 1   
     6    2   29 1   
     7    2   30 1   
     8    3    8 1   
     9    3   18 1   
    10    3   31 1   
    11    4    5 ar  
    12    4   32 1   
    13    5   20 ar  
    14    5   33 1   
    15    6    7 ar  
    16    6   34 1   
    17    7   20 ar  
    18    7   35 1   
    19    8   17 1   
    20    8   36 1   
    21    8   37 1   
    22    9   38 1   
    23    9   39 1   
    24    9   40 1   
    25    9   63 1   
    26   10   13 ar  
    27   10   22 ar  
    28   10   63 1   
    29   11   12 ar  
    30   11   23 ar  
    31   11   24 1   
    32   12   13 ar  
    33   12   41 1   
    34   13   42 1   
    35   14   15 1   
    36   14   24 1   
    37   14   43 1   
    38   14   44 1   
    39   15   16 1   
    40   15   25 1   
    41   15   45 1   
    42   16   26 1   
    43   16   27 1   
    44   16   28 1   
    45   17   46 1   
    46   18   47 1   
    47   20   63 1   
    48   21   48 1   
    49   21   49 1   
    50   21   50 1   
    51   21   63 1   
    52   22   23 ar  
    53   22   51 1   
    54   23   52 1   
    55   25   53 1   
    56   26   54 1   
    57   26   55 1   
    58   26   56 1   
    59   27   57 1   
    60   27   58 1   
    61   27   59 1   
    62   28   60 1   
    63   28   61 1   
    64   28   62 1   
@<TRIPOS>SUBSTRUCTURE
     1 W07         1 TEMP              0 ****  ****    0 ROOT
