@<TRIPOS>MOLECULE
W07
   63    61     1     0     0
SMALL
bcc


@<TRIPOS>ATOM
      1 C4          0.7910    0.4450   -0.1930 c2        1 W07      0.195000
      2 C3         -0.6580    2.1810   -0.9680 c3        1 W07     -0.134000
      3 C2         -1.4650    3.0600    2.0610 c1        1 W07     -0.067000
      4 C5          1.1070   -1.0160   -0.2010 c3        1 W07     -0.195500
      5 C6          1.5690   -1.5360    1.0810 c1        1 W07     -0.173500
      6 C9          1.4450    1.3290    0.8030 c3        1 W07     -0.195500
      7 C8          1.9580    0.6650    2.0060 c1        1 W07     -0.173500
      8 C1         -2.4690    2.7670    3.1180 c3        1 W07     -0.124000
      9 C11         3.7650   -1.8340    3.3280 c3        1 W07     -0.197000
     10 C13         2.2040   -0.4020    4.5290 c1        1 W07     -0.064000
     11 C16         1.7280    2.7350    5.9810 c2        1 W07      0.297000
     12 C17         1.9980    1.3340    6.4870 c3        1 W07     -0.076000
     13 C18         2.1090    0.3910    5.4210 c1        1 W07     -0.231000
     14 C19        -0.6020    6.4620    6.3140 c2        1 W07     -0.316000
     15 C20        -1.4070    6.1230    5.2980 c2        1 W07      0.039000
     16 C21        -2.2590    7.0490    4.4670 c3        1 W07     -0.012000
     17 O01        -3.3670    1.7430    2.7420 oh        1 W07     -0.303000
     18 O02        -0.4970    3.8800    2.2760 oh        1 W07     -0.155000
     19 O03        -0.1900    0.8150   -0.9920 os        1 W07     -0.138000
     20 C7          1.9010   -0.7110    2.1350 c2        1 W07     -0.267000
     21 C12         1.4160   -2.5580    3.7310 c3        1 W07     -0.197000
     22 C14         3.2610    2.9590    4.0450 c2        1 W07     -0.157000
     23 C15         2.7950    3.3970    5.2130 c2        1 W07     -0.267000
     24 O04         0.6680    3.3130    6.2620 o         1 W07     -0.355000
     25 O05        -1.5420    4.8080    4.8800 oh        1 W07     -0.322000
     26 C22        -3.7250    6.6660    4.6420 c3        1 W07     -0.202667
     27 C23        -2.0660    8.4970    4.8960 c3        1 W07     -0.202667
     28 C24        -1.8700    6.9100    3.0000 c3        1 W07     -0.202667
     29 H1          0.1890    2.8680   -1.2000 h1        1 W07      0.130000
     30 H2         -1.1110    2.4140    0.0370 h1        1 W07      0.130000
     31 H3         -1.4270    2.1920   -1.7810 h1        1 W07      0.130000
     32 H4          1.9350   -1.1920   -0.9500 hc        1 W07      0.163250
     33 H5          0.2110   -1.6000   -0.5550 hc        1 W07      0.163250
     34 H6          2.3180    1.8430    0.3010 hc        1 W07      0.163250
     35 H7          0.7300    2.1420    1.1400 hc        1 W07      0.163250
     36 H8         -3.0460    3.7070    3.3650 h1        1 W07      0.123000
     37 H9         -1.9840    2.4000    4.0680 h1        1 W07      0.123000
     38 H10         4.4450   -0.9720    3.1320 hc        1 W07      0.077500
     39 H11         4.0820   -2.3380    4.2710 hc        1 W07      0.077500
     40 H12         3.8450   -2.5590    2.4820 hc        1 W07      0.077500
     41 H13         2.9560    1.3590    7.0820 hc        1 W07      0.115500
     42 H14         1.1680    1.0280    7.1850 hc        1 W07      0.115500
     43 H15         3.1700    4.3220    5.6850 ha        1 W07      0.135000
     44 H16        -0.0180    5.7070    6.8600 ha        1 W07      0.133500
     45 H17        -0.4820    7.4960    6.6520 ha        1 W07      0.133500
     46 H18        -3.5480    1.8480    1.8000 ho        1 W07      0.203000
     47 H19        -0.4500    4.2870    3.1740 ho        1 W07      0.210000
     48 H20         1.4690   -3.2710    2.8730 hc        1 W07      0.077500
     49 H21         0.3580   -2.2290    3.8600 hc        1 W07      0.077500
     50 H22         1.7500   -3.0740    4.6620 hc        1 W07      0.077500
     51 H23         2.8830    2.0470    3.5340 ha        1 W07      0.150000
     52 H24         4.0560    3.5010    3.5120 ha        1 W07      0.150000
     53 H25        -1.1040    4.2350    5.5310 ho        1 W07      0.249000
     54 H26        -3.8780    5.5980    4.3550 hc        1 W07      0.078444
     55 H27        -4.3670    7.3110    3.9960 hc        1 W07      0.078444
     56 H28        -4.0360    6.7980    5.7050 hc        1 W07      0.078444
     57 H29        -2.3650    8.6330    5.9630 hc        1 W07      0.078444
     58 H30        -0.9990    8.8020    4.7780 hc        1 W07      0.078444
     59 H31        -2.7000    9.1630    4.2620 hc        1 W07      0.078444
     60 H32        -0.7960    7.1770    2.8550 hc        1 W07      0.078444
     61 H33        -2.0230    5.8550    2.6610 hc        1 W07      0.078444
     62 H34        -2.4980    7.5840    2.3710 hc        1 W07      0.078444
     63 C10         2.3160   -1.3540    3.4410 c3        1 W07      0.143000
@<TRIPOS>BOND
     1    1    4 1   
     2    1    6 1   
     3    1   19 1   
     4    2   19 1   
     5    2   29 1   
     6    2   30 1   
     7    2   31 1   
     8    3    8 1   
     9    3   18 1   
    10    4    5 1   
    11    4   32 1   
    12    4   33 1   
    13    5   20 1   
    14    6    7 1   
    15    6   34 1   
    16    6   35 1   
    17    7   20 1   
    18    8   17 1   
    19    8   36 1   
    20    8   37 1   
    21    9   38 1   
    22    9   39 1   
    23    9   40 1   
    24    9   63 1   
    25   10   13 1   
    26   10   63 1   
    27   11   12 1   
    28   11   23 1   
    29   11   24 1   
    30   12   13 1   
    31   12   41 1   
    32   12   42 1   
    33   14   15 1   
    34   14   44 1   
    35   14   45 1   
    36   15   16 1   
    37   15   25 1   
    38   16   26 1   
    39   16   27 1   
    40   16   28 1   
    41   17   46 1   
    42   18   47 1   
    43   20   63 1   
    44   21   48 1   
    45   21   49 1   
    46   21   50 1   
    47   21   63 1   
    48   22   23 1   
    49   22   51 1   
    50   22   52 1   
    51   23   43 1   
    52   25   53 1   
    53   26   54 1   
    54   26   55 1   
    55   26   56 1   
    56   27   57 1   
    57   27   58 1   
    58   27   59 1   
    59   28   60 1   
    60   28   61 1   
    61   28   62 1   
@<TRIPOS>SUBSTRUCTURE
     1 W07         1 TEMP              0 ****  ****    0 ROOT
