@<TRIPOS>MOLECULE
W09
   53    54     1     0     0
SMALL
bcc


@<TRIPOS>ATOM
      1 FBN        -0.2310   -0.1820    0.0430 f         1 W09     -0.199633
      2 CAY         1.0200    0.2550    0.3630 c3        1 W09      0.611900
      3 FBO         1.0260    0.4560    1.7120 f         1 W09     -0.199633
      4 FBP         1.8730   -0.7810    0.1220 f         1 W09     -0.199633
      5 CAX         1.4370    1.5940   -0.4420 c3        1 W09      0.347600
      6 FBL         0.7550    2.6730    0.0490 f         1 W09     -0.176300
      7 FBM         2.7520    1.8890   -0.2160 f         1 W09     -0.176300
      8 CAW         1.1420    1.4000   -2.0120 c3        1 W09      0.351600
      9 FBJ         1.5890    0.1830   -2.4470 f         1 W09     -0.175800
     10 FBK        -0.2050    1.3730   -2.2460 f         1 W09     -0.175800
     11 CAV         1.8460    2.5870   -2.8460 c3        1 W09      0.351600
     12 FBH         1.6220    3.8000   -2.2570 f         1 W09     -0.176300
     13 FBI         3.2060    2.4430   -2.8260 f         1 W09     -0.176300
     14 CAU         1.2900    2.5880   -4.3590 c3        1 W09      0.353600
     15 FBF         1.2570    1.3220   -4.8730 f         1 W09     -0.174300
     16 FBG        -0.0130    3.0030   -4.3880 f         1 W09     -0.174300
     17 CAT         2.2160    3.5410   -5.2730 c3        1 W09      0.349600
     18 FBD         2.4590    4.7340   -4.6500 f         1 W09     -0.175300
     19 FBE         3.4530    2.9860   -5.4440 f         1 W09     -0.175300
     20 CAS         1.4950    3.7900   -6.6950 c3        1 W09      0.364600
     21 FBB         1.0640    2.6150   -7.2410 f         1 W09     -0.171800
     22 FBC         0.3610    4.5370   -6.5310 f         1 W09     -0.171800
     23 CAR         2.5210    4.5340   -7.6920 c3        1 W09      0.304600
     24 FAZ         3.0270    5.6720   -7.1160 f         1 W09     -0.179800
     25 FBA         3.6310    3.7640   -7.9240 f         1 W09     -0.179800
     26 CAP         1.7810    4.8670   -9.0400 c         1 W09      0.501100
     27 OAQ         0.6290    4.5260   -9.2480 o         1 W09     -0.371100
     28 N           2.6010    5.6050  -10.0060 ny        1 W09     -0.654800
     29 CA          2.0070    5.7770  -11.3770 c3        1 W09     -0.057500
     30 C           2.9310    4.9950  -12.4330 c         1 W09      0.934600
     31 OXT         3.9630    4.4670  -11.9330 o         1 W09     -0.748300
     32 O           2.5160    5.0000  -13.6000 o         1 W09     -0.748300
     33 CB          1.9230    7.2410  -11.7910 c3        1 W09     -0.016200
     34 CG          1.2230    8.0780  -10.8100 cc        1 W09     -0.193400
     35 CD2         1.8400    8.8200   -9.7270 ca        1 W09     -0.115800
     36 CE3         3.1570    9.0040   -9.3000 ca        1 W09     -0.121000
     37 CZ3         3.3980    9.8080   -8.1970 ca        1 W09     -0.140000
     38 CH2         2.3450   10.4420   -7.5100 ca        1 W09     -0.112000
     39 CZ2         1.0260   10.3000   -7.9100 ca        1 W09     -0.133000
     40 CE2         0.7660    9.4900   -9.0270 ca        1 W09     -0.048200
     41 NE1        -0.4350    9.1610   -9.6610 na        1 W09     -0.185400
     42 CD1        -0.1500    8.3290  -10.7430 cd        1 W09     -0.072100
     43 H1          2.8370    6.5230   -9.6020 hn        1 W09      0.490300
     44 H2          0.9880    5.3040  -11.3960 hx        1 W09      0.106700
     45 H4          1.3940    7.2470  -12.7860 hc        1 W09      0.091200
     46 H5          2.9570    7.6450  -11.9680 hc        1 W09      0.091200
     47 H6          3.9890    8.5450   -9.8540 ha        1 W09      0.134000
     48 H7          4.4300    9.9670   -7.8510 ha        1 W09      0.138000
     49 H8          2.5810   11.0730   -6.6390 ha        1 W09      0.138000
     50 H9          0.2110   10.8070   -7.3760 ha        1 W09      0.139000
     51 H10        -1.3180    9.5370   -9.4380 hn        1 W09      0.306700
     52 H11        -0.9480    7.9640  -11.3950 h4        1 W09      0.179000
     53 H21         3.5010    5.0510  -10.1790 hn        1 W09      0.490300
@<TRIPOS>BOND
     1    1    2 1   
     2    2    3 1   
     3    2    4 1   
     4    2    5 1   
     5    5    6 1   
     6    5    7 1   
     7    5    8 1   
     8    8    9 1   
     9    8   10 1   
    10    8   11 1   
    11   11   12 1   
    12   11   13 1   
    13   11   14 1   
    14   14   15 1   
    15   14   16 1   
    16   14   17 1   
    17   17   18 1   
    18   17   19 1   
    19   17   20 1   
    20   20   21 1   
    21   20   22 1   
    22   20   23 1   
    23   23   24 1   
    24   23   25 1   
    25   23   26 1   
    26   26   27 2   
    27   26   28 1   
    28   28   29 1   
    29   28   43 1   
    30   28   53 1   
    31   29   30 1   
    32   29   33 1   
    33   29   44 1   
    34   30   31 1   
    35   30   32 1   
    36   33   34 1   
    37   33   45 1   
    38   33   46 1   
    39   34   35 1   
    40   34   42 2   
    41   35   36 ar  
    42   35   40 ar  
    43   36   37 ar  
    44   36   47 1   
    45   37   38 ar  
    46   37   48 1   
    47   38   39 ar  
    48   38   49 1   
    49   39   40 ar  
    50   39   50 1   
    51   40   41 1   
    52   41   42 1   
    53   41   51 1   
    54   42   52 1   
@<TRIPOS>SUBSTRUCTURE
     1 W09         1 TEMP              0 ****  ****    0 ROOT
