@<TRIPOS>MOLECULE
W09
   53    54     1     0     0
SMALL
bcc


@<TRIPOS>ATOM
      1 FBN        -0.2410   -0.1320    0.0740 f         1 W09     -0.199633
      2 CAY         1.0230    0.2770    0.3770 c3        1 W09      0.611900
      3 FBO         1.0520    0.4790    1.7260 f         1 W09     -0.199633
      4 FBP         1.8500   -0.7770    0.1250 f         1 W09     -0.199633
      5 CAX         1.4580    1.6070   -0.4350 c3        1 W09      0.347600
      6 FBL         0.8070    2.7000    0.0640 f         1 W09     -0.176300
      7 FBM         2.7820    1.8730   -0.2260 f         1 W09     -0.176300
      8 CAW         1.1390    1.4170   -2.0010 c3        1 W09      0.351600
      9 FBJ         1.5540    0.1910   -2.4410 f         1 W09     -0.175800
     10 FBK        -0.2110    1.4180   -2.2170 f         1 W09     -0.175800
     11 CAV         1.8570    2.5880   -2.8450 c3        1 W09      0.351600
     12 FBH         1.6660    3.8070   -2.2550 f         1 W09     -0.176300
     13 FBI         3.2140    2.4170   -2.8420 f         1 W09     -0.176300
     14 CAU         1.2820    2.5990   -4.3520 c3        1 W09      0.353600
     15 FBF         1.2200    1.3340   -4.8640 f         1 W09     -0.174300
     16 FBG        -0.0130    3.0380   -4.3650 f         1 W09     -0.174300
     17 CAT         2.2150    3.5340   -5.2770 c3        1 W09      0.349600
     18 FBD         2.4850    4.7240   -4.6600 f         1 W09     -0.175300
     19 FBE         3.4410    2.9580   -5.4600 f         1 W09     -0.175300
     20 CAS         1.4840    3.7930   -6.6920 c3        1 W09      0.364600
     21 FBB         1.0310    2.6230   -7.2330 f         1 W09     -0.171800
     22 FBC         0.3610    4.5550   -6.5170 f         1 W09     -0.171800
     23 CAR         2.5090    4.5220   -7.7000 c3        1 W09      0.304600
     24 FAZ         3.0350    5.6540   -7.1300 f         1 W09     -0.179800
     25 FBA         3.6070    3.7380   -7.9410 f         1 W09     -0.179800
     26 CAP         1.7610    4.8640   -9.0410 c         1 W09      0.501100
     27 OAQ         0.6030    4.5350   -9.2380 o         1 W09     -0.371100
     28 N           2.5800    5.5920  -10.0140 n4        1 W09     -0.654800
     29 CA          1.9770    5.7690  -11.3810 c3        1 W09     -0.057500
     30 C           2.8830    4.9770  -12.4440 c         1 W09      0.934600
     31 OXT         3.9150    4.4390  -11.9530 o         1 W09     -0.748300
     32 O           2.4590    4.9860  -13.6080 o         1 W09     -0.748300
     33 CB          1.9040    7.2340  -11.7940 c3        1 W09     -0.016200
     34 CG          1.2200    8.0780  -10.8080 cc        1 W09     -0.193400
     35 CD2         1.8530    8.8140   -9.7320 ca        1 W09     -0.115800
     36 CE3         3.1760    8.9860   -9.3150 ca        1 W09     -0.121000
     37 CZ3         3.4330    9.7880   -8.2140 ca        1 W09     -0.140000
     38 CH2         2.3930   10.4330   -7.5190 ca        1 W09     -0.112000
     39 CZ2         1.0690   10.3030   -7.9080 ca        1 W09     -0.133000
     40 CE2         0.7920    9.4950   -9.0230 ca        1 W09     -0.048200
     41 NE1        -0.4180    9.1780   -9.6470 na        1 W09     -0.185400
     42 CD1        -0.1500    8.3430  -10.7300 cd        1 W09     -0.072100
     43 H1          3.4730    5.0290  -10.1950 hn        1 W09      0.490300
     44 H2          0.9530    5.3060  -11.3910 hx        1 W09      0.106700
     45 H4          1.3670    7.2450  -12.7850 hc        1 W09      0.091200
     46 H5          2.9410    7.6280  -11.9800 hc        1 W09      0.091200
     47 H6          3.9990    8.5180   -9.8750 ha        1 W09      0.134000
     48 H7          4.4700    9.9370   -7.8770 ha        1 W09      0.138000
     49 H8          2.6420   11.0620   -6.6500 ha        1 W09      0.138000
     50 H9          0.2640   10.8190   -7.3680 ha        1 W09      0.139000
     51 H10        -1.2950    9.5630   -9.4170 hn        1 W09      0.306700
     52 H11        -0.9570    7.9850  -11.3760 h4        1 W09      0.179000
     53 H21         2.8300    6.5070   -9.6140 hn        1 W09      0.490300
@<TRIPOS>BOND
     1    1    2 1   
     2    2    3 1   
     3    2    4 1   
     4    2    5 1   
     5    5    6 1   
     6    5    7 1   
     7    5    8 1   
     8    8    9 1   
     9    8   10 1   
    10    8   11 1   
    11   11   12 1   
    12   11   13 1   
    13   11   14 1   
    14   14   15 1   
    15   14   16 1   
    16   14   17 1   
    17   17   18 1   
    18   17   19 1   
    19   17   20 1   
    20   20   21 1   
    21   20   22 1   
    22   20   23 1   
    23   23   24 1   
    24   23   25 1   
    25   23   26 1   
    26   26   27 2   
    27   26   28 1   
    28   28   29 1   
    29   28   43 1   
    30   28   53 1   
    31   29   30 1   
    32   29   33 1   
    33   29   44 1   
    34   30   31 1   
    35   30   32 1   
    36   33   34 1   
    37   33   45 1   
    38   33   46 1   
    39   34   35 1   
    40   34   42 2   
    41   35   36 ar  
    42   35   40 ar  
    43   36   37 ar  
    44   36   47 1   
    45   37   38 ar  
    46   37   48 1   
    47   38   39 ar  
    48   38   49 1   
    49   39   40 ar  
    50   39   50 1   
    51   40   41 1   
    52   41   42 1   
    53   41   51 1   
    54   42   52 1   
@<TRIPOS>SUBSTRUCTURE
     1 W09         1 TEMP              0 ****  ****    0 ROOT
