@<TRIPOS>MOLECULE
W0I
   42    60     1     0     0
SMALL
bcc


@<TRIPOS>ATOM
      1 CAA         0.0000    0.0000    0.0000 c3        1 W0I     -0.247000
      2 FAC         5.7200    2.3300    4.4570 f         1 W0I     -0.081000
      3 CAD         7.5320    3.5970   10.2330 c3        1 W0I      0.430000
      4 CAE         6.4170    2.7800   10.2890 DU        1 W0I     -0.120000
      5 CAF         8.6360    3.2140    9.4940 c2        1 W0I     -0.063000
      6 CAG         6.4060    1.5790    9.6070 c2        1 W0I     -0.251000
      7 CAH         8.6320    2.0110    8.8150 c2        1 W0I     -0.178000
      8 CAI         6.5390   -1.1800    4.8860 c2        1 W0I     -0.245000
      9 CAJ         6.6180    1.1880    6.3270 c2        1 W0I     -0.326000
     10 CAK         1.5300    0.0000    0.0000 DU        1 W0I     -0.012000
     11 CAL         2.0400    0.0000    1.4420 DU        1 W0I     -0.173000
     12 CAM         3.5700   -0.0000    1.4420 DU        1 W0I     -0.254000
     13 CAN         4.0800   -0.0000    2.8840 DU        1 W0I     -0.250000
     14 CAO         5.6110    0.0000    2.8830 c3        1 W0I     -0.407000
     15 OAP         7.5030    0.0110    8.1940 os        1 W0I     -0.085000
     16 CAQ         7.0060   -1.1810    6.1900 DU        1 W0I      0.159000
     17 CAR         6.1470    1.1820    5.0240 c3        1 W0I      0.112000
     18 CAS         7.5130    1.1920    8.8650 c3        1 W0I      0.443000
     19 CAT         6.1140    0.0000    4.3040 c2        1 W0I     -0.146000
     20 CAU         7.0460    0.0070    6.9130 c3        1 W0I      0.030000
     21 H1AA        0.7490   -0.2630    0.7370 DU        1 W0I      0.214000
     22 H2AA       -0.3610    0.8840    0.5110 hc        1 W0I      0.102000
     23 H3AA       -0.3610    0.0000   -1.0210 hc        1 W0I      0.102000
     24 HOAB        6.6980   -2.2060    6.1790 DU        1 W0I      0.308000
     25 HAD         7.3260    2.6420    9.7650 DU        1 W0I     -0.140000
     26 HAE         6.9840    3.6710   10.5310 DU        1 W0I      0.132000
     27 HAF         7.6470    3.1720    9.9350 DU        1 W0I     -0.380000
     28 HAG         7.2790    2.2190    9.5640 DU        1 W0I      0.418000
     29 HAH         7.6400    1.6680    9.0820 ha        1 W0I     -0.210000
     30 HAI         7.1420   -0.5920    5.5670 DU        1 W0I      0.101000
     31 HAJ         6.5960    0.2650    5.7600 DU        1 W0I      0.168000
     32 H1AK        2.1610    0.2600    0.8410 DU        1 W0I     -0.017000
     33 H2AK        1.8910   -0.8840   -0.5110 ha        1 W0I      0.109000
     34 H1AL        1.9660    0.4470    0.4590 DU        1 W0I     -0.017000
     35 H2AL        1.6790   -0.8840    1.9530 ha        1 W0I      0.155000
     36 H1AM        2.6180    0.4470    1.7000 DU        1 W0I      0.193000
     37 H2AM        3.9310    0.8840    0.9310 ha        1 W0I      0.126000
     38 H1AN        4.0060   -0.4480    1.9000 DU        1 W0I      0.188000
     39 H2AN        3.7190   -0.8850    3.3950 ha        1 W0I      0.106000
     40 H1AO        4.6580    0.4470    3.1420 DU        1 W0I      0.195000
     41 H2AO        6.0610    0.9130    2.5120 hc        1 W0I      0.085000
     42 OAB         7.4260   -2.3410    6.7630 oh        1 W0I     -0.275000
@<TRIPOS>BOND
     1    1   10 1   
     2    1   21 1   
     3    1   22 1   
     4    1   23 1   
     5    2   17 1   
     6    3    4 1   
     7    3    5 1   
     8    3   25 1   
     9    3   26 1   
    10    4    6 1   
    11    4   25 1   
    12    4   26 1   
    13    4   28 1   
    14    5    7 1   
    15    5   27 1   
    16    6   18 1   
    17    6   28 1   
    18    7   18 1   
    19    7   29 1   
    20    8   16 1   
    21    8   19 1   
    22    8   30 1   
    23    9   17 1   
    24    9   20 1   
    25    9   31 1   
    26   10   11 1   
    27   10   21 1   
    28   10   32 1   
    29   10   33 1   
    30   10   34 1   
    31   11   12 1   
    32   11   32 1   
    33   11   34 1   
    34   11   35 1   
    35   11   36 1   
    36   12   13 1   
    37   12   36 1   
    38   12   37 1   
    39   12   38 1   
    40   13   14 1   
    41   13   38 1   
    42   13   39 1   
    43   13   40 1   
    44   14   19 1   
    45   14   40 1   
    46   14   41 1   
    47   15   18 1   
    48   15   20 1   
    49   16   20 1   
    50   16   24 1   
    51   16   30 1   
    52   16   42 1   
    53   17   19 1   
    54   17   31 1   
    55   18   28 1   
    56   20   31 1   
    57   24   42 1   
    58   25   27 1   
    59   25   28 1   
    60   32   34 1   
@<TRIPOS>SUBSTRUCTURE
     1 W0I         1 TEMP              0 ****  ****    0 ROOT
