@<TRIPOS>MOLECULE
W11
   45    47     1     0     0
SMALL
bcc


@<TRIPOS>ATOM
      1 O1          0.2520   -1.2430    0.7420 os        1 W11     -0.124100
      2 N2          1.5380   -1.0230    0.5580 nc        1 W11     -0.360300
      3 C3          1.8340    0.2340    0.9500 cd        1 W11      0.321600
      4 CM3         3.1560    0.8830    0.9130 c3        1 W11     -0.133400
      5 C4          0.6080    0.8760    1.4320 cd        1 W11     -0.361600
      6 C5         -0.3670   -0.0870    1.2850 cc        1 W11      0.262000
      7 C1C        -1.8080   -0.1910    1.5450 c3        1 W11     -0.117700
      8 C2C        -2.3760    1.1120    2.0680 c3        1 W11     -0.085400
      9 C3C        -3.8650    0.9620    2.3230 c3        1 W11      0.130400
     10 O1B        -4.3030    2.2320    2.8360 os        1 W11     -0.346900
     11 C1B        -5.6780    2.2970    3.0290 ca        1 W11      0.113100
     12 C2B        -6.1780    2.1800    4.3400 ca        1 W11     -0.089800
     13 CM2        -5.2740    1.9090    5.4820 c3        1 W11     -0.054800
     14 C3B        -7.5480    2.3480    4.5570 ca        1 W11     -0.085500
     15 C4B        -8.4080    2.6270    3.4870 ca        1 W11     -0.142500
     16 C5B        -7.8970    2.7460    2.1890 ca        1 W11     -0.085500
     17 C6B        -6.5310    2.5820    1.9470 ca        1 W11     -0.089800
     18 CM6        -6.0080    2.7180    0.5680 c3        1 W11     -0.054800
     19 C2A        -9.8380    2.7960    3.7320 cc        1 W11      0.599500
     20 N1A       -10.4410    2.9310    4.9490 nd        1 W11     -0.344300
     21 N3A       -10.8190    2.8420    2.6870 nc        1 W11     -0.614000
     22 C3A       -11.9590    3.0010    3.3430 cd        1 W11      0.400700
     23 CM4       -13.3930    3.1260    2.8560 c3        1 W11      0.649600
     24 O1A       -11.7290    3.0560    4.7420 os        1 W11     -0.095100
     25 F1        -14.2970    3.2930    3.8690 f         1 W11     -0.206967
     26 F2        -13.5820    4.1900    2.0150 f         1 W11     -0.206967
     27 F3        -13.8200    2.0280    2.1590 f         1 W11     -0.206967
     28 HM31        3.1040    1.7990    0.2730 hc        1 W11      0.058367
     29 HM32        3.9450    0.2050    0.5030 hc        1 W11      0.058367
     30 HM33        3.4510    1.1880    1.9490 hc        1 W11      0.058367
     31 H41         0.5220    1.8880    1.8130 ha        1 W11      0.175000
     32 H1C1       -2.3310   -0.4860    0.5930 hc        1 W11      0.072700
     33 H1C2       -1.9860   -1.0160    2.2890 hc        1 W11      0.072700
     34 H2C1       -2.2050    1.9380    1.3280 hc        1 W11      0.064200
     35 H2C2       -1.8610    1.4080    3.0190 hc        1 W11      0.064200
     36 H3C1       -4.4200    0.7270    1.3770 h1        1 W11      0.040700
     37 H3C2       -4.0710    0.1680    3.0870 h1        1 W11      0.040700
     38 HM21       -5.7860    1.2880    6.2570 hc        1 W11      0.052033
     39 HM22       -4.3530    1.3750    5.1390 hc        1 W11      0.052033
     40 HM23       -4.9600    2.8760    5.9520 hc        1 W11      0.052033
     41 H3B        -7.9380    2.2560    5.5830 ha        1 W11      0.155500
     42 H5B        -8.5630    2.9740    1.3410 ha        1 W11      0.155500
     43 HM61       -6.5560    3.5200    0.0150 hc        1 W11      0.052033
     44 HM62       -4.9190    2.9740    0.5800 hc        1 W11      0.052033
     45 HM63       -6.1400    1.7560    0.0100 hc        1 W11      0.052033
@<TRIPOS>BOND
     1    1    2 1   
     2    1    6 1   
     3    2    3 2   
     4    3    4 1   
     5    3    5 1   
     6    4   28 1   
     7    4   29 1   
     8    4   30 1   
     9    5    6 2   
    10    5   31 1   
    11    6    7 1   
    12    7    8 1   
    13    7   32 1   
    14    7   33 1   
    15    8    9 1   
    16    8   34 1   
    17    8   35 1   
    18    9   10 1   
    19    9   36 1   
    20    9   37 1   
    21   10   11 1   
    22   11   12 ar  
    23   11   17 ar  
    24   12   13 1   
    25   12   14 ar  
    26   13   38 1   
    27   13   39 1   
    28   13   40 1   
    29   14   15 ar  
    30   14   41 1   
    31   15   16 ar  
    32   15   19 1   
    33   16   17 ar  
    34   16   42 1   
    35   17   18 1   
    36   18   43 1   
    37   18   44 1   
    38   18   45 1   
    39   19   20 2   
    40   19   21 1   
    41   20   24 1   
    42   21   22 2   
    43   22   23 1   
    44   22   24 1   
    45   23   25 1   
    46   23   26 1   
    47   23   27 1   
@<TRIPOS>SUBSTRUCTURE
     1 W11         1 TEMP              0 ****  ****    0 ROOT
