@<TRIPOS>MOLECULE
W11
   45    47     1     0     0
SMALL
bcc


@<TRIPOS>ATOM
      1 O1          0.2630   -1.2810    0.8420 os        1 W11     -0.124100
      2 N2          1.5450   -1.0590    0.6370 nc        1 W11     -0.360300
      3 C3          1.8330    0.2180    0.9650 cd        1 W11      0.321600
      4 CM3         3.1500    0.8760    0.8850 c3        1 W11     -0.133400
      5 C4          0.6060    0.8730    1.4250 cd        1 W11     -0.361600
      6 C5         -0.3620   -0.1050    1.3330 cc        1 W11      0.262000
      7 C1C        -1.8000   -0.2080    1.6100 c3        1 W11     -0.117700
      8 C2C        -2.3740    1.1130    2.0790 c3        1 W11     -0.085400
      9 C3C        -3.8600    0.9620    2.3520 c3        1 W11      0.130400
     10 O1B        -4.3040    2.2510    2.8130 os        1 W11     -0.346900
     11 C1B        -5.6790    2.3140    3.0110 ca        1 W11      0.113100
     12 C2B        -6.1700    2.2510    4.3290 ca        1 W11     -0.089800
     13 CM2        -5.2580    2.0360    5.4760 c3        1 W11     -0.054800
     14 C3B        -7.5390    2.4180    4.5470 ca        1 W11     -0.085500
     15 C4B        -8.4080    2.6440    3.4710 ca        1 W11     -0.143500
     16 C5B        -7.9060    2.7110    2.1660 ca        1 W11     -0.085500
     17 C6B        -6.5390    2.5460    1.9230 ca        1 W11     -0.089800
     18 CM6        -6.0250    2.6260    0.5360 c3        1 W11     -0.054800
     19 C2A        -9.8370    2.8140    3.7170 cc        1 W11      0.599500
     20 N1A       -10.4350    2.9970    4.9310 nd        1 W11     -0.344300
     21 N3A       -10.8240    2.8090    2.6780 nc        1 W11     -0.614000
     22 C3A       -11.9620    2.9890    3.3320 cd        1 W11      0.400700
     23 CM4       -13.3990    3.0840    2.8490 c3        1 W11      0.649600
     24 O1A       -11.7250    3.1040    4.7270 os        1 W11     -0.095100
     25 F1        -14.2990    3.2870    3.8600 f         1 W11     -0.206967
     26 F2        -13.6010    4.1100    1.9660 f         1 W11     -0.206967
     27 F3        -13.8230    1.9540    2.2010 f         1 W11     -0.206967
     28 HM31        3.0850    1.7560    0.1970 hc        1 W11      0.058367
     29 HM32        3.9420    0.1840    0.5060 hc        1 W11      0.058367
     30 HM33        3.4470    1.2380    1.9010 hc        1 W11      0.058367
     31 H41         0.5140    1.9010    1.7570 ha        1 W11      0.175000
     32 H1C1       -2.3280   -0.5500    0.6770 hc        1 W11      0.072700
     33 H1C2       -1.9650   -1.0010    2.3920 hc        1 W11      0.072700
     34 H2C1       -2.2160    1.9050    1.3020 hc        1 W11      0.064200
     35 H2C2       -1.8550    1.4540    3.0130 hc        1 W11      0.064200
     36 H3C1       -4.4200    0.6820    1.4220 h1        1 W11      0.040700
     37 H3C2       -4.0540    0.2010    3.1520 h1        1 W11      0.040700
     38 HM21       -5.7600    1.4460    6.2810 hc        1 W11      0.052033
     39 HM22       -4.3350    1.4930    5.1520 hc        1 W11      0.052033
     40 HM23       -4.9470    3.0240    5.9020 hc        1 W11      0.052033
     41 H3B        -7.9230    2.3680    5.5790 ha        1 W11      0.155500
     42 H5B        -8.5780    2.8970    1.3130 ha        1 W11      0.155500
     43 HM61       -6.5820    3.4010   -0.0470 hc        1 W11      0.052033
     44 HM62       -4.9380    2.8890    0.5310 hc        1 W11      0.052033
     45 HM63       -6.1540    1.6400    0.0210 hc        1 W11      0.052033
@<TRIPOS>BOND
     1    1    2 1   
     2    1    6 1   
     3    2    3 2   
     4    3    4 1   
     5    3    5 1   
     6    4   28 1   
     7    4   29 1   
     8    4   30 1   
     9    5    6 2   
    10    5   31 1   
    11    6    7 1   
    12    7    8 1   
    13    7   32 1   
    14    7   33 1   
    15    8    9 1   
    16    8   34 1   
    17    8   35 1   
    18    9   10 1   
    19    9   36 1   
    20    9   37 1   
    21   10   11 1   
    22   11   12 ar  
    23   11   17 ar  
    24   12   13 1   
    25   12   14 ar  
    26   13   38 1   
    27   13   39 1   
    28   13   40 1   
    29   14   15 ar  
    30   14   41 1   
    31   15   16 ar  
    32   15   19 1   
    33   16   17 ar  
    34   16   42 1   
    35   17   18 1   
    36   18   43 1   
    37   18   44 1   
    38   18   45 1   
    39   19   20 2   
    40   19   21 1   
    41   20   24 1   
    42   21   22 2   
    43   22   23 1   
    44   22   24 1   
    45   23   25 1   
    46   23   26 1   
    47   23   27 1   
@<TRIPOS>SUBSTRUCTURE
     1 W11         1 TEMP              0 ****  ****    0 ROOT
