@<TRIPOS>MOLECULE
W11
   45    47     1     0     0
SMALL
bcc


@<TRIPOS>ATOM
      1 O1         -0.9580    1.8200    7.3660 os        1 W11     -0.124100
      2 N2         -0.8400    1.4080    8.6120 nc        1 W11     -0.360300
      3 C3         -0.1920    0.2240    8.6300 cd        1 W11      0.321600
      4 CM3         0.1460   -0.5810    9.8160 c3        1 W11     -0.133400
      5 C4          0.1340   -0.1530    7.2510 cd        1 W11     -0.361600
      6 C5         -0.3650    0.8790    6.4840 cc        1 W11      0.262000
      7 C1C        -0.4220    1.2110    5.0560 c3        1 W11     -0.117700
      8 C2C         0.1900    0.1190    4.2040 c3        1 W11     -0.085400
      9 C3C         0.1110    0.5010    2.7370 c3        1 W11      0.130400
     10 O1B         0.7340   -0.5770    2.0170 os        1 W11     -0.346900
     11 C1B         0.6530   -0.4310    0.6370 ca        1 W11      0.113100
     12 C2B         1.7950    0.0050   -0.0590 ca        1 W11     -0.089800
     13 CM2         3.0330    0.3830    0.6610 c3        1 W11     -0.054800
     14 C3B         1.7560    0.0550   -1.4550 ca        1 W11     -0.085500
     15 C4B         0.5970   -0.3210   -2.1480 ca        1 W11     -0.142500
     16 C5B        -0.5310   -0.7580   -1.4420 ca        1 W11     -0.085500
     17 C6B        -0.5150   -0.8170   -0.0460 ca        1 W11     -0.089800
     18 CM6        -1.7160   -1.2880    0.6830 c3        1 W11     -0.054800
     19 C2A         0.5730   -0.2600   -3.6060 cc        1 W11      0.599500
     20 N1A         1.6460   -0.0730   -4.4280 nd        1 W11     -0.344300
     21 N3A        -0.6250   -0.3910   -4.3820 nc        1 W11     -0.614000
     22 C3A        -0.1970   -0.2740   -5.6300 cd        1 W11      0.400700
     23 CM4        -0.9360   -0.3150   -6.9580 c3        1 W11      0.649600
     24 O1A         1.2080   -0.0760   -5.6620 os        1 W11     -0.095100
     25 F1         -0.1130   -0.1630   -8.0410 f         1 W11     -0.206967
     26 F2         -1.6020   -1.4930   -7.1650 f         1 W11     -0.206967
     27 F3         -1.8830    0.6670   -7.0750 f         1 W11     -0.206967
     28 HM31        1.2560   -0.7140    9.8720 hc        1 W11      0.058367
     29 HM32       -0.2030   -0.1000   10.7630 hc        1 W11      0.058367
     30 HM33       -0.3300   -1.5900    9.7310 hc        1 W11      0.058367
     31 H41         0.6530   -1.0520    6.9390 ha        1 W11      0.175000
     32 H1C1       -1.4950    1.3760    4.7610 hc        1 W11      0.072700
     33 H1C2        0.1200    2.1830    4.8860 hc        1 W11      0.072700
     34 H2C1        1.2620   -0.0450    4.4900 hc        1 W11      0.064200
     35 H2C2       -0.3490   -0.8510    4.3660 hc        1 W11      0.064200
     36 H3C1       -0.9540    0.6120    2.4010 h1        1 W11      0.040700
     37 H3C2        0.6710    1.4510    2.5310 h1        1 W11      0.040700
     38 HM21        3.7160   -0.5020    0.7290 hc        1 W11      0.052033
     39 HM22        3.5710    1.2040    0.1270 hc        1 W11      0.052033
     40 HM23        2.7980    0.7200    1.7010 hc        1 W11      0.052033
     41 H3B         2.6500    0.3970   -2.0000 ha        1 W11      0.155500
     42 H5B        -1.4440   -1.0650   -1.9760 ha        1 W11      0.155500
     43 HM61       -2.2220   -2.1100    0.1200 hc        1 W11      0.052033
     44 HM62       -1.4390   -1.6690    1.6980 hc        1 W11      0.052033
     45 HM63       -2.4450   -0.4470    0.8060 hc        1 W11      0.052033
@<TRIPOS>BOND
     1    1    2 1   
     2    1    6 1   
     3    2    3 2   
     4    3    4 1   
     5    3    5 1   
     6    4   28 1   
     7    4   29 1   
     8    4   30 1   
     9    5    6 2   
    10    5   31 1   
    11    6    7 1   
    12    7    8 1   
    13    7   32 1   
    14    7   33 1   
    15    8    9 1   
    16    8   34 1   
    17    8   35 1   
    18    9   10 1   
    19    9   36 1   
    20    9   37 1   
    21   10   11 1   
    22   11   12 ar  
    23   11   17 ar  
    24   12   13 1   
    25   12   14 ar  
    26   13   38 1   
    27   13   39 1   
    28   13   40 1   
    29   14   15 ar  
    30   14   41 1   
    31   15   16 ar  
    32   15   19 1   
    33   16   17 ar  
    34   16   42 1   
    35   17   18 1   
    36   18   43 1   
    37   18   44 1   
    38   18   45 1   
    39   19   20 2   
    40   19   21 1   
    41   20   24 1   
    42   21   22 2   
    43   22   23 1   
    44   22   24 1   
    45   23   25 1   
    46   23   26 1   
    47   23   27 1   
@<TRIPOS>SUBSTRUCTURE
     1 W11         1 TEMP              0 ****  ****    0 ROOT
