@<TRIPOS>MOLECULE
W12
   75    76     1     0     0
SMALL
bcc


@<TRIPOS>ATOM
      1 C4          3.6890   -0.5370    0.3600 ca        1 W12      0.118100
      2 C5          2.7340   -0.2880    1.3640 ca        1 W12     -0.179500
      3 C6          1.7600    0.6750    1.1460 ca        1 W12     -0.094000
      4 C7          1.7090    1.4060   -0.0560 ca        1 W12     -0.100300
      5 C8          2.6630    1.1390   -1.0390 ca        1 W12     -0.094000
      6 C10         0.6250    2.4520   -0.2140 c3        1 W12      0.056600
      7 C13        -0.7080    1.7820    0.0480 ca        1 W12     -0.106300
      8 C15        -2.8450    1.6120    1.1920 ca        1 W12     -0.181000
      9 C11         0.8940    3.5780    0.7960 c3        1 W12     -0.069900
     10 C20        -6.0520   -1.7620    0.5710 c3        1 W12      0.142100
     11 C21        -6.8130   -2.6470   -0.4390 c3        1 W12     -0.086000
     12 C22        -7.2430   -1.8140   -1.6370 c3        1 W12     -0.088767
     13 C24        -5.9550   -3.8110   -0.9060 c3        1 W12     -0.088767
     14 C26        -0.4620    4.0810   -1.8540 c3        1 W12     -0.082900
     15 C28        -0.6240    4.4010   -3.3180 c3        1 W12     -0.092100
     16 C1          7.8480   -2.8720   -0.4440 c3        1 W12      0.102400
     17 C2          6.4770   -2.9020    0.2420 c3        1 W12      0.091100
     18 O02         5.9070   -4.1910    0.1030 oh        1 W12     -0.587800
     19 C3          5.5860   -1.8000   -0.3330 c3        1 W12      0.100400
     20 O03         4.6190   -1.5110    0.6780 os        1 W12     -0.319900
     21 C9          3.6540    0.1740   -0.8410 ca        1 W12     -0.179500
     22 C25         2.2140    4.2900    0.5760 c3        1 W12     -0.082900
     23 C27         2.5550    5.1760    1.7470 c3        1 W12     -0.092100
     24 C12         0.6040    3.0250   -1.6390 c3        1 W12     -0.069900
     25 C18        -1.0390    0.6400   -0.6960 ca        1 W12     -0.093500
     26 C17        -2.2530   -0.0180   -0.5150 ca        1 W12     -0.181000
     27 C14        -1.6280    2.2530    0.9930 ca        1 W12     -0.093500
     28 C16        -3.1600    0.4710    0.4330 ca        1 W12      0.124100
     29 O04        -4.3990   -0.0790    0.6980 os        1 W12     -0.321900
     30 C19        -4.6910   -1.3080    0.0250 c3        1 W12      0.097400
     31 O05        -5.8900   -2.4080    1.8200 oh        1 W12     -0.582800
     32 C23        -8.0600   -3.1910    0.2500 c3        1 W12     -0.088767
     33 H1          2.7720   -0.8590    2.3030 ha        1 W12      0.142000
     34 H2          1.0040    0.8660    1.9250 ha        1 W12      0.139000
     35 H3          2.6590    1.6830   -1.9960 ha        1 W12      0.139000
     36 H4         -3.5660    1.9820    1.9350 ha        1 W12      0.142000
     37 H5          0.0660    4.3320    0.7350 hc        1 W12      0.043950
     38 H6          0.8820    3.1400    1.8300 hc        1 W12      0.043950
     39 H7         -6.6770   -0.8550    0.8200 h1        1 W12      0.097700
     40 H8         -6.3660   -1.5210   -2.2610 hc        1 W12      0.038700
     41 H9         -7.9420   -2.4060   -2.2770 hc        1 W12      0.038700
     42 H10        -7.7690   -0.8890   -1.3000 hc        1 W12      0.038700
     43 H11        -5.6490   -4.4460   -0.0400 hc        1 W12      0.038700
     44 H12        -6.5310   -4.4460   -1.6210 hc        1 W12      0.038700
     45 H13        -5.0360   -3.4430   -1.4230 hc        1 W12      0.038700
     46 H14        -0.1820    5.0160   -1.2990 hc        1 W12      0.044950
     47 H15        -1.4390    3.7240   -1.4340 hc        1 W12      0.044950
     48 H16         0.3420    4.7520   -3.7550 hc        1 W12      0.032533
     49 H17        -0.9580    3.5000   -3.8860 hc        1 W12      0.032533
     50 H18        -1.3860    5.2060   -3.4550 hc        1 W12      0.032533
     51 H19         8.1690   -4.6910    0.1300 ho        1 W12      0.415000
     52 H21         7.7240   -3.0020   -1.5530 h1        1 W12      0.047700
     53 H22         6.5900   -2.7750    1.3570 h1        1 W12      0.113700
     54 H23         5.6440   -4.3000   -0.8190 ho        1 W12      0.398000
     55 H24         6.1890   -0.8800   -0.5510 h1        1 W12      0.045700
     56 H25         5.0690   -2.1470   -1.2660 h1        1 W12      0.045700
     57 H26         4.3900   -0.0090   -1.6350 ha        1 W12      0.142000
     58 H27         3.0300    3.5360    0.4210 hc        1 W12      0.044950
     59 H28         2.1540    4.9130   -0.3560 hc        1 W12      0.044950
     60 H29         3.5100    5.7210    1.5530 hc        1 W12      0.032533
     61 H30         1.7490    5.9280    1.9210 hc        1 W12      0.032533
     62 H31         2.6780    4.5720    2.6780 hc        1 W12      0.032533
     63 H32         1.6060    3.4750   -1.8700 hc        1 W12      0.043950
     64 H33         0.4350    2.1810   -2.3610 hc        1 W12      0.043950
     65 H34        -0.3210    0.2480   -1.4340 ha        1 W12      0.136500
     66 H35        -2.4800   -0.9100   -1.1140 ha        1 W12      0.142000
     67 H36        -1.4070    3.1430    1.6020 ha        1 W12      0.136500
     68 H37        -3.8970   -2.0660    0.2540 h1        1 W12      0.044700
     69 H38        -4.7350   -1.1220   -1.0790 h1        1 W12      0.044700
     70 H39        -5.3640   -3.2030    1.6730 ho        1 W12      0.395000
     71 H40        -8.7250   -2.3490    0.5600 hc        1 W12      0.038700
     72 H41        -8.6230   -3.8590   -0.4440 hc        1 W12      0.038700
     73 H42        -7.7770   -3.7710    1.1610 hc        1 W12      0.038700
     74 H20         8.3800   -1.9070   -0.2320 h1        1 W12      0.047700
     75 O01         8.6940   -3.8820    0.0610 oh        1 W12     -0.592800
@<TRIPOS>BOND
     1    1    2 ar  
     2    1   20 1   
     3    1   21 ar  
     4    2    3 ar  
     5    2   33 1   
     6    3    4 ar  
     7    3   34 1   
     8    4    5 ar  
     9    4    6 1   
    10    5   21 ar  
    11    5   35 1   
    12    6    7 1   
    13    6    9 1   
    14    6   24 1   
    15    7   25 ar  
    16    7   27 ar  
    17    8   27 ar  
    18    8   28 ar  
    19    8   36 1   
    20    9   22 1   
    21    9   37 1   
    22    9   38 1   
    23   10   11 1   
    24   10   30 1   
    25   10   31 1   
    26   10   39 1   
    27   11   12 1   
    28   11   13 1   
    29   11   32 1   
    30   12   40 1   
    31   12   41 1   
    32   12   42 1   
    33   13   43 1   
    34   13   44 1   
    35   13   45 1   
    36   14   15 1   
    37   14   24 1   
    38   14   46 1   
    39   14   47 1   
    40   15   48 1   
    41   15   49 1   
    42   15   50 1   
    43   16   17 1   
    44   16   52 1   
    45   16   74 1   
    46   16   75 1   
    47   17   18 1   
    48   17   19 1   
    49   17   53 1   
    50   18   54 1   
    51   19   20 1   
    52   19   55 1   
    53   19   56 1   
    54   21   57 1   
    55   22   23 1   
    56   22   58 1   
    57   22   59 1   
    58   23   60 1   
    59   23   61 1   
    60   23   62 1   
    61   24   63 1   
    62   24   64 1   
    63   25   26 ar  
    64   25   65 1   
    65   26   28 ar  
    66   26   66 1   
    67   27   67 1   
    68   28   29 1   
    69   29   30 1   
    70   30   68 1   
    71   30   69 1   
    72   31   70 1   
    73   32   71 1   
    74   32   72 1   
    75   32   73 1   
    76   51   75 1   
@<TRIPOS>SUBSTRUCTURE
     1 W12         1 TEMP              0 ****  ****    0 ROOT
