@<TRIPOS>MOLECULE
W12
   75    74     1     0     0
SMALL
bcc


@<TRIPOS>ATOM
      1 C4         -0.6710   -0.5720    0.3220 c3        1 W12      0.159000
      2 C5          0.1720    0.6200    0.6740 c2        1 W12     -0.114000
      3 C6          1.2850    0.5230    1.3430 c1        1 W12     -0.165000
      4 C7          2.4160    0.4450    1.9840 c2        1 W12     -0.098000
      5 C8         -0.9440   -1.5760    2.6160 c1        1 W12      0.188000
      6 C10         2.5740    0.5100    3.4800 c3        1 W12      0.070000
      7 C13         3.0940   -0.8380    3.9420 c2        1 W12     -0.422000
      8 C15         4.7090   -3.7320    5.0230 c1        1 W12     -0.019000
      9 C11         3.6390    1.5700    3.8100 c3        1 W12     -0.162000
     10 C20         5.8790   -6.9850    4.7700 c3        1 W12     -0.010000
     11 C21         4.5030   -9.1810    4.2520 cx        1 W12     -0.095000
     12 C22         3.5090  -10.0510    4.9520 c3        1 W12     -0.184500
     13 C24         3.9850   -8.1010    3.3360 cx        1 W12     -0.211000
     14 C26         1.3270    0.9330    5.6640 c3        1 W12     -0.157500
     15 C28        -0.0440    1.0300    6.2840 c3        1 W12     -0.212000
     16 C1         -4.1910    0.2150   -1.9190 c3        1 W12     -0.048000
     17 C2         -3.0180   -0.5610   -2.5250 c3        1 W12     -0.011000
     18 O02        -2.2580    0.2900   -3.3640 oh        1 W12     -0.324000
     19 C3         -2.1520   -1.1990   -1.4390 c3        1 W12     -0.055000
     20 O03        -1.5720   -0.1260   -0.6970 os        1 W12     -0.289000
     21 C9         -1.4350   -1.0690    1.5120 c2        1 W12     -0.516000
     22 C25         3.2450    2.9710    3.3950 c3        1 W12     -0.157500
     23 C27         4.4010    3.9270    3.5400 c3        1 W12     -0.212000
     24 C12         1.2380    0.8240    4.1570 c3        1 W12     -0.162000
     25 C18         2.1660   -2.0070    3.8290 c3        1 W12     -0.153000
     26 C17         2.6840   -3.3400    3.6980 c1        1 W12     -0.075000
     27 C14         4.3190   -0.9490    4.4250 c1        1 W12      0.141000
     28 C16         4.1160   -3.6690    3.6810 c3        1 W12     -0.102000
     29 O04         4.3530   -4.8530    2.9280 oh        1 W12     -0.311000
     30 C19         4.5730   -7.7220    4.6650 cx        1 W12     -0.205000
     31 O05         6.5720   -6.8670    3.5420 oh        1 W12     -0.338000
     32 C23         5.7570   -9.9000    3.8760 c3        1 W12     -0.184500
     33 H1         -0.0290   -1.4070   -0.0860 h1        1 W12      0.103000
     34 H2         -0.2150    1.5930    0.3230 ha        1 W12      0.165000
     35 H3          3.3630    0.3210    1.4270 ha        1 W12      0.150000
     36 H4          4.5520   -2.8490    5.6670 ha        1 W12      0.068000
     37 H5          3.8370    1.5500    4.9150 hc        1 W12      0.094250
     38 H6          4.5960    1.2880    3.2910 hc        1 W12      0.094250
     39 H7          5.6910   -5.9580    5.1980 h1        1 W12      0.101000
     40 H8          6.5850   -7.5530    5.4360 h1        1 W12      0.101000
     41 H9          3.9440  -10.4440    5.9040 hc        1 W12      0.078667
     42 H10         3.2350  -10.9190    4.3040 hc        1 W12      0.078667
     43 H11         2.5780   -9.4850    5.1970 hc        1 W12      0.078667
     44 H12         4.5580   -7.8690    2.4190 hc        1 W12      0.113000
     45 H13         2.8950   -8.0040    3.1860 hc        1 W12      0.113000
     46 H14         1.8650    0.0370    6.0750 hc        1 W12      0.083000
     47 H15         1.9280    1.8390    5.9430 hc        1 W12      0.083000
     48 H16        -0.5940    1.9170    5.8860 hc        1 W12      0.075667
     49 H17         0.0410    1.1360    7.3920 hc        1 W12      0.075667
     50 H18        -0.6450    0.1160    6.0610 hc        1 W12      0.075667
     51 H19        -4.4260    1.2040   -3.5630 ho        1 W12      0.212000
     52 H21        -4.8610   -0.4680   -1.3360 h1        1 W12      0.092000
     53 H22        -3.8000    1.0280   -1.2500 h1        1 W12      0.092000
     54 H23        -1.8000    0.9210   -2.7930 ho        1 W12      0.214000
     55 H24        -1.3410   -1.8180   -1.9050 h1        1 W12      0.087000
     56 H25        -2.7760   -1.8370   -0.7600 h1        1 W12      0.087000
     57 H26        -2.5380   -0.9630    1.4200 ha        1 W12      0.211000
     58 H27         2.8920    2.9620    2.3290 hc        1 W12      0.083000
     59 H28         2.3870    3.3240    4.0270 hc        1 W12      0.083000
     60 H29         5.2510    3.6250    2.8810 hc        1 W12      0.075667
     61 H30         4.0850    4.9600    3.2560 hc        1 W12      0.075667
     62 H31         4.7660    3.9470    4.5960 hc        1 W12      0.075667
     63 H32         0.8480    1.7890    3.7360 hc        1 W12      0.094250
     64 H33         0.4970    0.0220    3.8840 hc        1 W12      0.094250
     65 H34         1.4610   -2.0040    4.7200 hc        1 W12      0.175500
     66 H35         1.4830   -1.8590    2.9290 hc        1 W12      0.175500
     67 H36         4.7430   -2.8870    3.1140 h1        1 W12      0.181000
     68 H37         3.8990   -5.5820    3.3770 ho        1 W12      0.228000
     69 H38         3.8700   -7.4050    5.4640 hc        1 W12      0.115000
     70 H39         6.0900   -6.2270    3.0020 ho        1 W12      0.209000
     71 H40         6.4820   -9.2030    3.3840 hc        1 W12      0.078667
     72 H41         6.2420  -10.3310    4.7860 hc        1 W12      0.078667
     73 H42         5.5240  -10.7330    3.1690 hc        1 W12      0.078667
     74 H20        -3.4000   -1.3650   -3.2170 h1        1 W12      0.133000
     75 O01        -5.0100    0.7690   -2.9260 oh        1 W12     -0.323000
@<TRIPOS>BOND
     1    1    2 1   
     2    1   20 1   
     3    1   21 1   
     4    1   33 1   
     5    2    3 1   
     6    2   34 1   
     7    3    4 1   
     8    4    6 1   
     9    4   35 1   
    10    5   21 1   
    11    6    7 1   
    12    6    9 1   
    13    6   24 1   
    14    7   25 1   
    15    7   27 1   
    16    8   28 1   
    17    8   36 1   
    18    9   22 1   
    19    9   37 1   
    20    9   38 1   
    21   10   30 1   
    22   10   31 1   
    23   10   39 1   
    24   10   40 1   
    25   11   12 1   
    26   11   13 1   
    27   11   30 1   
    28   11   32 1   
    29   12   41 1   
    30   12   42 1   
    31   12   43 1   
    32   13   30 1   
    33   13   44 1   
    34   13   45 1   
    35   14   15 1   
    36   14   24 1   
    37   14   46 1   
    38   14   47 1   
    39   15   48 1   
    40   15   49 1   
    41   15   50 1   
    42   16   17 1   
    43   16   52 1   
    44   16   53 1   
    45   16   75 1   
    46   17   18 1   
    47   17   19 1   
    48   17   74 1   
    49   18   54 1   
    50   19   20 1   
    51   19   55 1   
    52   19   56 1   
    53   21   57 1   
    54   22   23 1   
    55   22   58 1   
    56   22   59 1   
    57   23   60 1   
    58   23   61 1   
    59   23   62 1   
    60   24   63 1   
    61   24   64 1   
    62   25   26 1   
    63   25   65 1   
    64   25   66 1   
    65   26   28 1   
    66   28   29 1   
    67   28   67 1   
    68   29   68 1   
    69   30   69 1   
    70   31   70 1   
    71   32   71 1   
    72   32   72 1   
    73   32   73 1   
    74   51   75 1   
@<TRIPOS>SUBSTRUCTURE
     1 W12         1 TEMP              0 ****  ****    0 ROOT
