@<TRIPOS>MOLECULE
W13
   53    54     1     0     0
SMALL
bcc


@<TRIPOS>ATOM
      1 C4         -0.0490    0.1900   -0.3100 c3        1 W13     -0.152000
      2 C5          1.4390   -0.0350   -0.4250 c2        1 W13      0.035000
      3 C11        -0.6350   -1.7670   -3.3010 c2        1 W13     -0.219000
      4 C7          1.4430   -0.4800   -2.7870 c3        1 W13     -0.009000
      5 C8          2.5060   -0.4780   -3.9030 c3        1 W13     -0.218000
      6 C9          1.8800   -0.3140   -5.2520 c2        1 W13      0.182000
      7 C12         0.6360   -1.7480   -2.9070 c2        1 W13     -0.177000
      8 C13         2.1720    0.1410    0.8550 c2        1 W13     -0.068000
      9 C3         -0.6010   -0.2790    0.9770 c2        1 W13     -0.147000
     10 C2          0.1650   -0.4180    2.0770 c2        1 W13     -0.057000
     11 N6          2.0950   -0.3260   -1.4990 n2        1 W13     -0.166000
     12 O10         2.4730   -0.5770   -6.2990 o         1 W13     -0.288000
     13 Cl14        3.8060    0.5920    0.7050 cl        1 W13      0.015000
     14 C15         1.5790   -0.0460    2.0670 c2        1 W13     -0.021000
     15 C16         2.3430    0.1770    3.3380 c3        1 W13     -0.060000
     16 C17         1.6670    1.1710    4.2650 c3        1 W13     -0.195500
     17 C18         2.5070    1.4300    5.4960 c2        1 W13      0.312000
     18 C19         3.1770    0.3030    6.0960 c2        1 W13     -0.789000
     19 S20         3.4970    0.3260    7.6920 ss        1 W13      0.640000
     20 C21         5.0980    0.6910    7.9140 c2        1 W13     -0.352000
     21 C22         5.6170    0.8690    9.2010 c2        1 W13     -0.045000
     22 Cl23        4.6120    0.7530   10.5400 cl        1 W13      0.073000
     23 C24         7.0370    1.1540    9.4640 c3        1 W13     -0.168000
     24 C25         7.8870    1.2570    8.2710 c2        1 W13     -0.028000
     25 C26         7.3750    1.0830    7.0170 c2        1 W13     -0.195000
     26 C27         6.0080    0.7970    6.8340 c2        1 W13      0.137000
     27 C28         3.4830   -0.8580    5.3000 c2        1 W13      0.312000
     28 O29         4.4100   -1.6490    5.5760 o         1 W13     -0.394000
     29 C30         2.6470   -1.1180    4.0700 c3        1 W13     -0.195500
     30 O31         2.5650    2.5930    5.9430 o         1 W13     -0.394000
     31 H1         -1.6780   -0.5110    0.9840 ha        1 W13      0.149000
     32 H3         -1.1950   -0.8560   -3.5560 ha        1 W13      0.117000
     33 H4         -1.2170    1.2330   -4.8150 ha        1 W13      0.001500
     34 H5          0.7560    0.4070   -2.9730 h1        1 W13      0.082000
     35 H6          3.1030   -1.4270   -3.8680 hc        1 W13      0.130000
     36 H7          3.2280    0.3710   -3.7500 hc        1 W13      0.130000
     37 H8          0.8360    0.0790   -5.2610 h4        1 W13      0.085000
     38 H9         -0.8900    1.3890   -4.2430 ha        1 W13      0.001500
     39 H10         1.1820   -2.6740   -2.6610 ha        1 W13      0.143000
     40 H11        -0.5890   -0.3350   -1.1490 hc        1 W13      0.119500
     41 H12        -0.2460    1.2940   -0.4230 hc        1 W13      0.119500
     42 H13         3.3430    0.6340    3.0640 hc        1 W13      0.109000
     43 H14         1.4880    2.1370    3.7250 hc        1 W13      0.109250
     44 H15         0.6740    0.7880    4.6190 hc        1 W13      0.109250
     45 H16         7.1220    2.1210   10.0520 hc        1 W13      0.183000
     46 H17         7.4640    0.3470   10.1390 hc        1 W13      0.183000
     47 H18         8.9540    1.4760    8.4340 ha        1 W13      0.155000
     48 H19         8.0230    1.1550    6.1270 ha        1 W13      0.168000
     49 H20         5.6140    0.6260    5.8080 ha        1 W13      0.203000
     50 H21         1.7050   -1.6230    4.4090 hc        1 W13      0.109250
     51 H22         3.1900   -1.8250    3.3890 hc        1 W13      0.109250
     52 Cl1        -0.5620   -1.0590    3.4780 cl        1 W13     -0.002000
     53 H2         -1.2000   -2.7030   -3.4040 ha        1 W13      0.117000
@<TRIPOS>BOND
     1    1    2 1   
     2    1    9 1   
     3    1   40 1   
     4    1   41 1   
     5    2    8 1   
     6    2   11 1   
     7    3    7 1   
     8    3   32 1   
     9    3   53 1   
    10    4    5 1   
    11    4    7 1   
    12    4   11 1   
    13    4   34 1   
    14    5    6 1   
    15    5   35 1   
    16    5   36 1   
    17    6   12 1   
    18    6   37 1   
    19    7   39 1   
    20    8   13 1   
    21    8   14 1   
    22    9   10 1   
    23    9   31 1   
    24   10   14 1   
    25   10   52 1   
    26   14   15 1   
    27   15   16 1   
    28   15   29 1   
    29   15   42 1   
    30   16   17 1   
    31   16   43 1   
    32   16   44 1   
    33   17   18 1   
    34   17   30 1   
    35   18   19 1   
    36   18   27 1   
    37   19   20 1   
    38   20   21 1   
    39   20   26 1   
    40   21   22 1   
    41   21   23 1   
    42   23   24 1   
    43   23   45 1   
    44   23   46 1   
    45   24   25 1   
    46   24   47 1   
    47   25   26 1   
    48   25   48 1   
    49   26   49 1   
    50   27   28 1   
    51   27   29 1   
    52   29   50 1   
    53   29   51 1   
    54   33   38 1   
@<TRIPOS>SUBSTRUCTURE
     1 W13         1 TEMP              0 ****  ****    0 ROOT
