@<TRIPOS>MOLECULE
W13
   53    54     1     0     0
SMALL
bcc


@<TRIPOS>ATOM
      1 C4          1.9420   -1.4850   -0.9380 c3        1 W13     -0.233000
      2 C5          1.7920   -0.0680   -0.4670 c2        1 W13      0.014000
      3 C11        -1.0910   -0.9930   -4.5340 c2        1 W13     -0.039000
      4 C7          0.4420    0.7670   -2.2560 c3        1 W13     -0.104000
      5 C8          1.3020    0.8510   -3.5170 c3        1 W13     -0.197000
      6 C9          0.4490    0.8010   -4.7710 c3        1 W13     -0.021000
      7 C12        -1.3850   -2.2940   -4.6280 c2        1 W13     -0.280000
      8 C13         2.4990    0.1760    0.8220 c2        1 W13     -0.044000
      9 C3          0.2340   -1.8070    1.8990 c1        1 W13      0.241000
     10 C2          0.5700   -0.5390    2.1260 c2        1 W13     -0.344000
     11 N6          1.1610    0.9110   -1.0190 n2        1 W13     -0.154000
     12 O10         0.0860   -0.5390   -5.1090 os        1 W13     -0.228000
     13 CL14        4.0830    0.7550    0.6140 cl        1 W13      0.009000
     14 C15         1.9500   -0.0500    2.0330 c2        1 W13     -0.030000
     15 C16         2.6890    0.1700    3.3180 c3        1 W13     -0.052000
     16 C17         2.5750    1.6190    3.7640 c3        1 W13     -0.194500
     17 C18         3.3110    1.8720    5.0590 c2        1 W13      0.312500
     18 C19         3.2530    0.8500    6.0760 c2        1 W13     -0.791000
     19 S20         3.4030    1.2690    7.6400 ss        1 W13      0.642000
     20 C21         4.9470    0.9360    8.1410 c2        1 W13     -0.352000
     21 C22         5.3730    1.2890    9.4270 c2        1 W13     -0.043000
     22 CL23        4.3300    2.0860   10.4710 cl        1 W13      0.074000
     23 C24         6.7200    0.9910    9.9380 c3        1 W13     -0.168000
     24 C25         7.6090    0.2980    8.9970 c2        1 W13     -0.028000
     25 C26         7.1870   -0.0460    7.7450 c2        1 W13     -0.195000
     26 C27         5.8790    0.2570    7.3190 c2        1 W13      0.135000
     27 C28         2.9820   -0.5130    5.7000 c2        1 W13      0.312500
     28 O29         3.3610   -1.4990    6.3670 o         1 W13     -0.392000
     29 C30         2.2050   -0.7460    4.4280 c3        1 W13     -0.194500
     30 O31         3.9200    2.9520    5.1970 o         1 W13     -0.392000
     31 H1          1.3580   -2.1610   -0.2610 hc        1 W13      0.102000
     32 H3         -2.3230   -2.6900   -4.2250 ha        1 W13      0.127500
     33 H4         -0.1510   -0.1940   -2.2970 h1        1 W13      0.091000
     34 H5         -0.2970    1.6210   -2.2640 h1        1 W13      0.091000
     35 H6          1.8790    1.8120   -3.5190 hc        1 W13      0.103500
     36 H7          2.0380    0.0060   -3.5360 hc        1 W13      0.103500
     37 H8          1.0560    1.1310   -5.6590 h1        1 W13      0.094000
     38 H9         -0.4570    1.4530   -4.6740 h1        1 W13      0.094000
     39 H10        -0.7200   -3.0160   -5.1150 ha        1 W13      0.127500
     40 H11         3.0180   -1.7840   -0.9000 hc        1 W13      0.102000
     41 H12         1.5730   -1.6220   -1.9840 hc        1 W13      0.102000
     42 H13         3.7810   -0.0580    3.1360 hc        1 W13      0.105000
     43 H14         2.9790    2.2970    2.9660 hc        1 W13      0.108500
     44 H15         1.4970    1.8870    3.9280 hc        1 W13      0.108500
     45 H16         7.2200    1.9580   10.2600 hc        1 W13      0.183500
     46 H17         6.6360    0.3630   10.8800 hc        1 W13      0.183500
     47 H18         8.6270    0.0660    9.3490 ha        1 W13      0.155000
     48 H19         7.8610   -0.5730    7.0470 ha        1 W13      0.167000
     49 H20         5.5410   -0.0580    6.3070 ha        1 W13      0.202000
     50 H21         1.1230   -0.5480    4.6520 hc        1 W13      0.108500
     51 H22         2.3010   -1.8190    4.1160 hc        1 W13      0.108500
     52 CL1        -0.6350    0.5920    2.5470 cl        1 W13      0.040000
     53 H2         -1.7300   -0.2360   -4.0550 h4        1 W13      0.128000
@<TRIPOS>BOND
     1    1    2 1   
     2    1   31 1   
     3    1   40 1   
     4    1   41 1   
     5    2    8 1   
     6    2   11 1   
     7    3    7 1   
     8    3   12 1   
     9    3   53 1   
    10    4    5 1   
    11    4   11 1   
    12    4   33 1   
    13    4   34 1   
    14    5    6 1   
    15    5   35 1   
    16    5   36 1   
    17    6   12 1   
    18    6   37 1   
    19    6   38 1   
    20    7   32 1   
    21    7   39 1   
    22    8   13 1   
    23    8   14 1   
    24    9   10 1   
    25   10   14 1   
    26   10   52 1   
    27   14   15 1   
    28   15   16 1   
    29   15   29 1   
    30   15   42 1   
    31   16   17 1   
    32   16   43 1   
    33   16   44 1   
    34   17   18 1   
    35   17   30 1   
    36   18   19 1   
    37   18   27 1   
    38   19   20 1   
    39   20   21 1   
    40   20   26 1   
    41   21   22 1   
    42   21   23 1   
    43   23   24 1   
    44   23   45 1   
    45   23   46 1   
    46   24   25 1   
    47   24   47 1   
    48   25   26 1   
    49   25   48 1   
    50   26   49 1   
    51   27   28 1   
    52   27   29 1   
    53   29   50 1   
    54   29   51 1   
@<TRIPOS>SUBSTRUCTURE
     1 W13         1 TEMP              0 ****  ****    0 ROOT
