@<TRIPOS>MOLECULE
W14
   27    27     1     0     0
SMALL
bcc


@<TRIPOS>ATOM
      1 OAA         0.2440   -0.4650    0.0860 o         1 W14     -0.548100
      2 FAC         1.5420   -0.8100   -2.2180 f         1 W14     -0.221300
      3 FAD         3.1710   -1.4850   -0.9480 f         1 W14     -0.221300
      4 FAE         3.0820    0.5930   -1.6130 f         1 W14     -0.221300
      5 CAF         5.0360    0.0800    4.8830 c3        1 W14      0.031900
      6 CAG         3.6130    0.2860    4.6770 c1        1 W14     -0.160100
      7 CAH         5.3330    0.3810    2.4590 ce        1 W14     -0.196000
      8 CAI         1.2200    0.3700    3.5810 c3        1 W14     -0.021300
      9 CAJ         1.1160    1.0980    2.2270 c3        1 W14      0.102000
     10 CAK         3.3370    0.8960    1.3620 c2        1 W14     -0.091400
     11 CAL         1.4280   -0.0960    0.1110 c         1 W14      0.630100
     12 CAM         5.4520   -0.4560    3.5300 c2        1 W14      0.067900
     13 CAN         2.5180    0.3710    4.1880 c1        1 W14     -0.108100
     14 CAO         4.3670    0.0140    1.4390 ce        1 W14     -0.090000
     15 NAP         1.9730    0.6360    1.1380 n         1 W14     -0.365000
     16 CAQ         2.3120   -0.4380   -1.1490 c3        1 W14      0.570900
     17 HOAB        5.1750   -2.2490    4.1370 ho        1 W14      0.419000
     18 HAF         5.2370   -0.6460    5.7130 hc        1 W14      0.079700
     19 HAG         5.5580    1.0440    5.1220 hc        1 W14      0.079700
     20 HAH         5.6170    1.4380    2.5650 ha        1 W14      0.143000
     21 HAI         4.3640   -1.0050    1.0290 ha        1 W14      0.162000
     22 HAIA        0.4770    0.8710    4.2650 hc        1 W14      0.075700
     23 HAJ         0.8910   -0.7000    3.4500 hc        1 W14      0.075700
     24 HAJA        0.0430    1.0060    1.8860 h1        1 W14      0.073700
     25 HAK         1.3480    2.1890    2.3940 h1        1 W14      0.073700
     26 HAKA        3.4930    1.9480    1.6890 h4        1 W14      0.144000
     27 OAB         5.4960   -1.8110    3.3350 oh        1 W14     -0.484100
@<TRIPOS>BOND
     1    1   11 2   
     2    2   16 1   
     3    3   16 1   
     4    4   16 1   
     5    5    6 1   
     6    5   12 1   
     7    5   18 1   
     8    5   19 1   
     9    6   13 3   
    10    7   12 2   
    11    7   14 1   
    12    7   20 1   
    13    8    9 1   
    14    8   13 1   
    15    8   22 1   
    16    8   23 1   
    17    9   15 1   
    18    9   24 1   
    19    9   25 1   
    20   10   14 2   
    21   10   15 1   
    22   10   26 1   
    23   11   15 1   
    24   11   16 1   
    25   12   27 1   
    26   14   21 1   
    27   17   27 1   
@<TRIPOS>SUBSTRUCTURE
     1 W14         1 TEMP              0 ****  ****    0 ROOT
