@<TRIPOS>MOLECULE
W14
   27    28     1     0     0
SMALL
bcc


@<TRIPOS>ATOM
      1 OAA        -2.8770   -1.6170   -0.4190 o         1 W14     -0.542100
      2 FAC        -4.1110    0.7350   -0.5640 f         1 W14     -0.223300
      3 FAD        -2.1640    1.5600   -1.0700 f         1 W14     -0.223300
      4 FAE        -2.8220    1.5030    1.0070 f         1 W14     -0.223300
      5 CAF         3.9380   -0.2230   -0.6140 ca        1 W14     -0.204000
      6 CAG         3.0590   -1.3000   -0.6320 ca        1 W14     -0.085000
      7 CAH         2.1890    1.1650    0.3710 ca        1 W14     -0.149000
      8 CAI         0.8260   -2.3290   -0.2060 c3        1 W14     -0.055100
      9 CAJ        -0.3860   -2.1460    0.7080 c3        1 W14      0.081000
     10 CAK        -0.0640    0.2650    0.8990 c3        1 W14      0.127300
     11 CAL        -2.1880   -0.6710   -0.0110 c         1 W14      0.631100
     12 CAM         3.4980    1.0100   -0.1110 ca        1 W14      0.129100
     13 CAN         1.7510   -1.1660   -0.1550 ca        1 W14     -0.105300
     14 CAO         1.3220    0.0720    0.3460 ca        1 W14     -0.070300
     15 NAP        -0.9800   -0.8230    0.6270 n         1 W14     -0.435800
     16 CAQ        -2.8090    0.7730   -0.1520 c3        1 W14      0.562900
     17 HOAB        5.1660    1.8860   -0.4290 ho        1 W14      0.422000
     18 HAF         4.9650   -0.3340   -0.9900 ha        1 W14      0.138000
     19 HAG         3.3960   -2.2720   -1.0260 ha        1 W14      0.137000
     20 HAH         1.8650    2.1420    0.7580 ha        1 W14      0.155000
     21 HAI         1.3610   -3.2650    0.1070 hc        1 W14      0.064700
     22 HAIA        0.4840   -2.4770   -1.2660 hc        1 W14      0.064700
     23 HAJ        -1.1620   -2.9230    0.4560 h1        1 W14      0.074200
     24 HAJA       -0.0670   -2.2950    1.7800 h1        1 W14      0.074200
     25 HAK         0.0200    0.3570    2.0240 h1        1 W14      0.074200
     26 HAKA       -0.4750    1.2390    0.5060 h1        1 W14      0.074200
     27 OAB         4.3040    2.1230   -0.0560 oh        1 W14     -0.494100
@<TRIPOS>BOND
     1    1   11 2   
     2    2   16 1   
     3    3   16 1   
     4    4   16 1   
     5    5    6 ar  
     6    5   12 ar  
     7    5   18 1   
     8    6   13 ar  
     9    6   19 1   
    10    7   12 ar  
    11    7   14 ar  
    12    7   20 1   
    13    8    9 1   
    14    8   13 1   
    15    8   21 1   
    16    8   22 1   
    17    9   15 1   
    18    9   23 1   
    19    9   24 1   
    20   10   14 1   
    21   10   15 1   
    22   10   25 1   
    23   10   26 1   
    24   11   15 1   
    25   11   16 1   
    26   12   27 1   
    27   13   14 ar  
    28   17   27 1   
@<TRIPOS>SUBSTRUCTURE
     1 W14         1 TEMP              0 ****  ****    0 ROOT
