@<TRIPOS>MOLECULE
W14
   27    27     1     0     0
SMALL
bcc


@<TRIPOS>ATOM
      1 OAA         0.2390   -0.5900    0.1010 o         1 W14     -0.548100
      2 FAC         1.5340   -0.9990   -2.1950 f         1 W14     -0.221300
      3 FAD         3.1720   -1.6150   -0.9080 f         1 W14     -0.221300
      4 FAE         3.0610    0.4380   -1.6420 f         1 W14     -0.221300
      5 CAF         5.0410    0.1600    4.8610 c3        1 W14      0.031900
      6 CAG         3.6150    0.3450    4.6530 c1        1 W14     -0.160100
      7 CAH         5.3270    0.3830    2.4270 ce        1 W14     -0.196000
      8 CAI         1.2180    0.3710    3.5630 c3        1 W14     -0.021300
      9 CAJ         1.1030    1.0520    2.1860 c3        1 W14      0.102000
     10 CAK         3.3240    0.8420    1.3210 c2        1 W14     -0.091400
     11 CAL         1.4190   -0.2090    0.1100 c         1 W14      0.630100
     12 CAM         5.4580   -0.4170    3.5260 c2        1 W14      0.067900
     13 CAN         2.5180    0.4040    4.1650 c1        1 W14     -0.108100
     14 CAO         4.3620   -0.0270    1.4240 ce        1 W14     -0.090000
     15 NAP         1.9610    0.5620    1.1100 n         1 W14     -0.365000
     16 CAQ         2.3030   -0.5840   -1.1410 c3        1 W14      0.570900
     17 HOAB        5.1990   -2.1920    4.1930 ho        1 W14      0.419000
     18 HAF         5.2510   -0.5360    5.7140 hc        1 W14      0.079700
     19 HAG         5.5540    1.1360    5.0660 hc        1 W14      0.079700
     20 HAH         5.6010    1.4450    2.4970 ha        1 W14      0.143000
     21 HAI         4.3670   -1.0590    1.0470 ha        1 W14      0.162000
     22 HAIA        0.8990   -0.7070    3.4690 hc        1 W14      0.075700
     23 HAJ         0.4720    0.8860    4.2330 hc        1 W14      0.075700
     24 HAJA        0.0300    0.9380    1.8520 h1        1 W14      0.073700
     25 HAK         1.3250    2.1500    2.3160 h1        1 W14      0.073700
     26 HAKA        3.4700    1.9050    1.6120 h4        1 W14      0.144000
     27 OAB         5.5140   -1.7780    3.3760 oh        1 W14     -0.484100
@<TRIPOS>BOND
     1    1   11 2   
     2    2   16 1   
     3    3   16 1   
     4    4   16 1   
     5    5    6 1   
     6    5   12 1   
     7    5   18 1   
     8    5   19 1   
     9    6   13 3   
    10    7   12 2   
    11    7   14 1   
    12    7   20 1   
    13    8    9 1   
    14    8   13 1   
    15    8   22 1   
    16    8   23 1   
    17    9   15 1   
    18    9   24 1   
    19    9   25 1   
    20   10   14 2   
    21   10   15 1   
    22   10   26 1   
    23   11   15 1   
    24   11   16 1   
    25   12   27 1   
    26   14   21 1   
    27   17   27 1   
@<TRIPOS>SUBSTRUCTURE
     1 W14         1 TEMP              0 ****  ****    0 ROOT
