@<TRIPOS>MOLECULE
W16
   15    15     1     0     0
SMALL
bcc


@<TRIPOS>ATOM
      1 CLA        -3.7770   -0.0730   -0.0360 cl        1 W16     -0.195400
      2 CAC        -2.1120    0.2500   -0.4940 c3        1 W16      0.042000
      3 CAD        -1.1730   -0.0410    0.6570 c3        1 W16     -0.110700
      4 CAI         0.2410    0.1390    0.2540 cc        1 W16      0.326700
      5 SAG         1.4360   -1.0670    0.5450 ss        1 W16     -0.210800
      6 NAF         0.7420    1.2390   -0.3490 nd        1 W16     -0.290000
      7 NAE         2.0190    1.1920   -0.5760 nd        1 W16     -0.381000
      8 CAH         2.6040    0.0160   -0.1700 cc        1 W16      0.583300
      9 NAA         3.9170   -0.3590   -0.3950 nh        1 W16     -0.889500
     10 HAC1       -1.8890   -0.4000   -1.3730 h1        1 W16      0.079200
     11 HAC2       -2.0620    1.3240   -0.7940 h1        1 W16      0.079200
     12 HAD1       -1.4040    0.6470    1.5180 hc        1 W16      0.072200
     13 HAD2       -1.3240   -1.0940    1.0200 hc        1 W16      0.072200
     14 HAA1        4.3520   -0.7950    0.3900 hn        1 W16      0.411300
     15 HAA2        4.4880    0.3370   -0.8280 hn        1 W16      0.411300
@<TRIPOS>BOND
     1    1    2 1   
     2    2    3 1   
     3    2   10 1   
     4    2   11 1   
     5    3    4 1   
     6    3   12 1   
     7    3   13 1   
     8    4    5 1   
     9    4    6 2   
    10    5    8 1   
    11    6    7 1   
    12    7    8 2   
    13    8    9 1   
    14    9   14 1   
    15    9   15 1   
@<TRIPOS>SUBSTRUCTURE
     1 W16         1 TEMP              0 ****  ****    0 ROOT
