@<TRIPOS>MOLECULE
W16
   16    16     1     0     0
SMALL
bcc


@<TRIPOS>ATOM
      1 CLA        -0.0020   -0.0120    0.2180 cl        1 W16     -0.132400
      2 CAC         1.7300    0.1310    0.0690 c3        1 W16      0.023000
      3 CAD         2.3910   -0.0760    1.4190 c3        1 W16     -0.145700
      4 CAI         3.8690   -0.0860    1.3170 cc        1 W16      0.403700
      5 SAG         4.8500   -1.2530    2.0510 ss        1 W16      0.078200
      6 NAF         4.5950    0.8640    0.6260 nd        1 W16     -0.273000
      7 NAE         5.8560    0.6850    0.6760 nd        1 W16     -0.221000
      8 CAH         6.2100   -0.4340    1.4190 cc        1 W16      0.221300
      9 NAA         7.5950   -0.8030    1.5970 n4        1 W16     -0.760300
     10 HAC1        1.9470    1.1520   -0.3330 h1        1 W16      0.086700
     11 HAC2        2.0630   -0.6400   -0.6660 h1        1 W16      0.086700
     12 HAD1        2.0390   -1.0410    1.8780 hc        1 W16      0.101700
     13 HAD2        2.0840    0.7590    2.1160 hc        1 W16      0.101700
     14 HAA1        7.8310   -0.7880    2.5970 hn        1 W16      0.476800
     15 HAA2        8.2090   -0.1350    1.1020 hn        1 W16      0.476800
     16 HAA3        7.7540   -1.7430    1.2120 hn        1 W16      0.476800
@<TRIPOS>BOND
     1    1    2 1   
     2    2    3 1   
     3    2   10 1   
     4    2   11 1   
     5    3    4 1   
     6    3   12 1   
     7    3   13 1   
     8    4    5 1   
     9    4    6 2   
    10    5    8 1   
    11    6    7 1   
    12    7    8 2   
    13    8    9 1   
    14    9   14 1   
    15    9   15 1   
    16    9   16 1   
@<TRIPOS>SUBSTRUCTURE
     1 W16         1 TEMP              0 ****  ****    0 ROOT
