@<TRIPOS>MOLECULE
W16
   15    15     1     0     0
SMALL
bcc


@<TRIPOS>ATOM
      1 ClA         0.0520    0.1050    0.0400 cl        1 W16     -0.196400
      2 CAC         1.7910    0.3450    0.0790 c3        1 W16      0.043000
      3 CAD         2.3870   -0.2380    1.3430 c3        1 W16     -0.111700
      4 CAI         3.8650   -0.1370    1.3410 cc        1 W16      0.327700
      5 SAG         4.8700   -1.4650    1.7780 ss        1 W16     -0.210800
      6 NAF         4.5680    0.9730    1.0270 nd        1 W16     -0.291000
      7 NAE         5.8560    0.8280    1.0930 nd        1 W16     -0.380000
      8 CAH         6.2460   -0.4290    1.4920 cc        1 W16      0.583300
      9 NAA         7.5400   -0.8290    1.7730 nv        1 W16     -0.889500
     10 HAC1        2.2040   -0.1520   -0.8310 h1        1 W16      0.078700
     11 HAC2        1.9670    1.4470    0.0200 h1        1 W16      0.078700
     12 HAD1        1.9810    0.3080    2.2390 hc        1 W16      0.073200
     13 HAD2        2.0900   -1.3170    1.4440 hc        1 W16      0.073200
     14 HAA1        8.2440   -0.1400    1.6000 hn        1 W16      0.411300
     15 HAA2        7.7730   -1.7290    1.4090 hn        1 W16      0.411300
@<TRIPOS>BOND
     1    1    2 1   
     2    2    3 1   
     3    2   10 1   
     4    2   11 1   
     5    3    4 1   
     6    3   12 1   
     7    3   13 1   
     8    4    5 1   
     9    4    6 2   
    10    5    8 1   
    11    6    7 1   
    12    7    8 2   
    13    8    9 1   
    14    9   14 1   
    15    9   15 1   
@<TRIPOS>SUBSTRUCTURE
     1 W16         1 TEMP              0 ****  ****    0 ROOT
