@<TRIPOS>MOLECULE
W16
   15    14     1     0     0
SMALL
bcc


@<TRIPOS>ATOM
      1 CLA         2.8060   -0.9170   -0.8670 cl        1 W16     -0.115000
      2 CAC         1.3520   -1.6470   -1.4950 c3        1 W16     -0.122000
      3 CAD         0.3320   -1.7760   -0.3840 c3        1 W16     -0.099000
      4 CAI         0.0960   -0.4210    0.2440 c2        1 W16     -0.363000
      5 SAG        -1.0950    0.5030   -0.0290 ss        1 W16      0.465000
      6 NAF         0.8830    0.1750    1.2570 n2        1 W16     -0.025000
      7 NAE         0.2060    1.5350    1.6790 n2        1 W16     -0.126000
      8 CAH        -0.9650    1.7100    0.9040 c1        1 W16     -0.211000
      9 NAA        -1.9040    2.7650    1.0390 n2        1 W16     -0.286000
     10 HAC1        1.5600   -2.5340   -1.8510 h1        1 W16      0.116500
     11 HAC2        0.9870   -1.0860   -2.2080 h1        1 W16      0.116500
     12 HAD1       -0.5080   -2.1170   -0.7510 hc        1 W16      0.120500
     13 HAD2        0.6670   -2.3960    0.2950 hc        1 W16      0.120500
     14 HAA1       -2.4930    2.9410    0.3630 hn        1 W16      0.203500
     15 HAA2       -1.9220    3.2660    1.8030 hn        1 W16      0.203500
@<TRIPOS>BOND
     1    1    2 1   
     2    2    3 1   
     3    2   10 1   
     4    2   11 1   
     5    3    4 1   
     6    3   12 1   
     7    3   13 1   
     8    4    5 1   
     9    4    6 1   
    10    5    8 1   
    11    6    7 1   
    12    7    8 1   
    13    9   14 1   
    14    9   15 1   
@<TRIPOS>SUBSTRUCTURE
     1 W16         1 TEMP              0 ****  ****    0 ROOT
