@<TRIPOS>MOLECULE
W16
   15    15     1     0     0
SMALL
bcc


@<TRIPOS>ATOM
      1 CLA         0.0570    0.1040    0.0200 cl        1 W16     -0.196400
      2 CAC         1.7970    0.3430    0.0660 c3        1 W16      0.043000
      3 CAD         2.3850   -0.2350    1.3350 c3        1 W16     -0.111700
      4 CAI         3.8630   -0.1360    1.3400 cc        1 W16      0.327700
      5 SAG         4.8650   -1.4630    1.7870 ss        1 W16     -0.210800
      6 NAF         4.5690    0.9730    1.0260 nd        1 W16     -0.291000
      7 NAE         5.8560    0.8270    1.0980 nd        1 W16     -0.380000
      8 CAH         6.2430   -0.4300    1.5040 cc        1 W16      0.583300
      9 NAA         7.5360   -0.8300    1.7920 nh        1 W16     -0.889500
     10 HAC1        1.9740    1.4440    0.0030 h1        1 W16      0.078700
     11 HAC2        2.2130   -0.1580   -0.8400 h1        1 W16      0.078700
     12 HAD1        1.9760    0.3150    2.2270 hc        1 W16      0.073200
     13 HAD2        2.0870   -1.3140    1.4400 hc        1 W16      0.073200
     14 HAA1        7.7690   -1.7300    1.4310 hn        1 W16      0.411300
     15 HAA2        8.2410   -0.1410    1.6200 hn        1 W16      0.411300
@<TRIPOS>BOND
     1    1    2 1   
     2    2    3 1   
     3    2   10 1   
     4    2   11 1   
     5    3    4 1   
     6    3   12 1   
     7    3   13 1   
     8    4    5 1   
     9    4    6 2   
    10    5    8 1   
    11    6    7 1   
    12    7    8 2   
    13    8    9 1   
    14    9   14 1   
    15    9   15 1   
@<TRIPOS>SUBSTRUCTURE
     1 W16         1 TEMP              0 ****  ****    0 ROOT
