@<TRIPOS>MOLECULE
W19
   57    61     1     0     0
SMALL
bcc


@<TRIPOS>ATOM
      1 C1         -5.8560    0.4660   -2.4680 ca        1 W19     -0.089000
      2 C2         -0.8940   -1.3660   -0.0350 ca        1 W19     -0.161000
      3 C3         -4.8990    0.1140   -1.5010 ca        1 W19     -0.198000
      4 C4         -2.2650   -1.5670    0.0310 ca        1 W19     -0.105000
      5 C5         -7.2080    0.2570   -2.2530 ca        1 W19     -0.126000
      6 C6         -7.3160   -1.2460    1.1100 cc        1 W19     -0.102200
      7 C7         -1.1710    0.8540    0.9290 ca        1 W19     -0.107000
      8 C8         -8.6730   -1.2930    0.9630 cd        1 W19     -0.161400
      9 C9          1.7800    3.2560   -0.9750 ca        1 W19      0.699900
     10 C10        -6.6790   -0.6790   -0.0510 ca        1 W19     -0.101800
     11 C11         3.1780    1.0320   -0.3100 ca        1 W19     -0.387400
     12 C12        -0.3270   -0.1470    0.4090 ca        1 W19      0.151600
     13 C13        -5.3080   -0.4550   -0.3010 ca        1 W19      0.161100
     14 C14        -3.1000   -0.5620    0.5360 ca        1 W19      0.073100
     15 C15        -7.6280   -0.3160   -1.0460 ca        1 W19     -0.051100
     16 C16        -2.5530    0.6500    0.9850 ca        1 W19      0.024400
     17 C17         3.8420    2.2210   -0.7530 ca        1 W19      0.695200
     18 C18         1.7430    1.0900   -0.1700 ca        1 W19      0.718200
     19 C19         3.8980   -0.1960   -0.0590 ce        1 W19     -0.019200
     20 C20         5.0770   -0.2510    0.5910 cf        1 W19     -0.179400
     21 C21         5.7400   -1.5760    0.7620 c         1 W19      0.661300
     22 C22         5.6990    0.9750    1.1460 c3        1 W19     -0.049200
     23 C23         6.1830    1.9050    0.0370 c3        1 W19      0.196800
     24 C24         7.8530   -2.8470    0.7090 c3        1 W19      0.083000
     25 C25         8.3790   -3.2690   -0.6710 c3        1 W19      0.098400
     26 N26         3.1200    3.3470   -1.0880 nb        1 W19     -0.786000
     27 N27         1.0420    2.2130   -0.5340 nb        1 W19     -0.773000
     28 N28         5.2280    2.2420   -0.9970 nh        1 W19     -0.828900
     29 N30         7.1250   -1.6100    0.7220 n         1 W19     -0.547900
     30 O31         5.0710   -2.6120    0.9620 o         1 W19     -0.615100
     31 O32         9.2810   -2.2640   -1.1050 oh        1 W19     -0.611800
     32 O33        -4.4500   -0.8620    0.7160 os        1 W19     -0.239200
     33 S34        -9.1920   -0.6780   -0.5220 ss        1 W19      0.018500
     34 CL1        -3.5310    1.8840    1.6150 cl        1 W19     -0.060400
     35 H1         -5.5140    0.9170   -3.4120 ha        1 W19      0.135000
     36 H2         -0.2540   -2.1690   -0.4330 ha        1 W19      0.142000
     37 H3         -3.8320    0.2940   -1.6970 ha        1 W19      0.147000
     38 H4         -2.7090   -2.5160   -0.3080 ha        1 W19      0.157000
     39 H5         -7.9480    0.5360   -3.0170 ha        1 W19      0.139000
     40 H6         -6.7420   -1.5810    1.9780 ha        1 W19      0.167000
     41 H7         -0.7550    1.8060    1.2970 ha        1 W19      0.173000
     42 H8         -9.3820   -1.6760    1.6960 h4        1 W19      0.171000
     43 H9          1.2030    4.1610   -1.2680 h5        1 W19      0.056100
     44 H10         3.4510   -1.1300   -0.4490 ha        1 W19      0.141000
     45 H11         4.9390    1.5130    1.7800 hc        1 W19      0.068200
     46 H12         6.5710    0.7430    1.8110 hc        1 W19      0.068200
     47 H13         6.5770    2.8460    0.5260 h1        1 W19      0.042700
     48 H14         7.0490    1.4130   -0.4980 h1        1 W19      0.042700
     49 H15         7.1920   -3.6740    1.0970 h1        1 W19      0.073700
     50 H16         8.7370   -2.7270    1.3990 h1        1 W19      0.073700
     51 H17         8.9150   -4.2510   -0.5690 h1        1 W19      0.034200
     52 H18         7.5420   -3.3810   -1.4090 h1        1 W19      0.034200
     53 H19         5.5220    3.0660   -1.4920 hn        1 W19      0.415800
     54 H20         1.5930   -0.8500    0.4380 hn        1 W19      0.448800
     55 H21         7.6010   -0.8240    0.3410 hn        1 W19      0.315500
     56 H22         9.6130   -2.5410   -1.9660 ho        1 W19      0.405000
     57 N29         1.0760    0.0030    0.3930 nh        1 W19     -0.732300
@<TRIPOS>BOND
     1    1    3 ar  
     2    1    5 ar  
     3    1   35 1   
     4    2    4 ar  
     5    2   12 ar  
     6    2   36 1   
     7    3   13 ar  
     8    3   37 1   
     9    4   14 ar  
    10    4   38 1   
    11    5   15 ar  
    12    5   39 1   
    13    6    8 2   
    14    6   10 1   
    15    6   40 1   
    16    7   12 ar  
    17    7   16 ar  
    18    7   41 1   
    19    8   33 1   
    20    8   42 1   
    21    9   26 ar  
    22    9   27 ar  
    23    9   43 1   
    24   10   13 ar  
    25   10   15 ar  
    26   11   17 ar  
    27   11   18 ar  
    28   11   19 1   
    29   12   57 1   
    30   13   32 1   
    31   14   16 ar  
    32   14   32 1   
    33   15   33 1   
    34   16   34 1   
    35   17   26 ar  
    36   17   28 1   
    37   18   27 ar  
    38   18   57 1   
    39   19   20 2   
    40   19   44 1   
    41   20   21 1   
    42   20   22 1   
    43   21   29 1   
    44   21   30 2   
    45   22   23 1   
    46   22   45 1   
    47   22   46 1   
    48   23   28 1   
    49   23   47 1   
    50   23   48 1   
    51   24   25 1   
    52   24   29 1   
    53   24   49 1   
    54   24   50 1   
    55   25   31 1   
    56   25   51 1   
    57   25   52 1   
    58   28   53 1   
    59   29   55 1   
    60   31   56 1   
    61   54   57 1   
@<TRIPOS>SUBSTRUCTURE
     1 W19         1 TEMP              0 ****  ****    0 ROOT
