@<TRIPOS>MOLECULE
W19
   59    59     1     0     0
SMALL
bcc


@<TRIPOS>ATOM
      1 C1          0.2520    0.6260    3.3000 c1        1 W19      0.062000
      2 C2          5.3610   -1.7730   -0.1110 c2        1 W19      0.104000
      3 C3          1.3610    0.8460    2.3740 c3        1 W19     -0.155000
      4 C4          4.1810   -1.2880    0.4170 c2        1 W19     -0.305000
      5 C5         -0.7620   -0.3430    3.0590 c2        1 W19     -0.019000
      6 C6          0.9380   -2.4180    0.3910 c2        1 W19      0.068000
      7 C7          5.9680   -2.7870    2.0380 c1        1 W19     -0.203000
      8 C8          0.3590   -3.0210    1.4010 c1        1 W19     -1.023000
      9 C9          8.0540   -6.2320    2.0270 c1        1 W19     -0.058000
     10 C10         1.0780   -0.9570    0.5780 c2        1 W19     -0.117000
     11 C11         8.2740   -5.2390   -0.5410 c2        1 W19     -0.293000
     12 C12         6.2400   -2.5230    0.7190 c2        1 W19     -0.301000
     13 C13         1.7440   -0.3740    1.5950 c2        1 W19     -0.109000
     14 C14         3.8340   -1.5110    1.7650 c2        1 W19      0.255000
     15 C15        -0.5980   -1.6500    3.0870 c1        1 W19     -0.774000
     16 C16         4.7520   -2.3000    2.6750 c3        1 W19     -0.071000
     17 C17         8.6200   -6.6280   -0.2110 c2        1 W19      0.234000
     18 C18         7.8200   -4.4260    0.4880 c2        1 W19      0.061000
     19 C19         7.3830   -6.6060    5.6470 c1        1 W19      0.259000
     20 C20         7.9460   -7.4060    4.7810 c2        1 W19     -0.592000
     21 C21         8.5230   -8.7390    4.9070 c2        1 W19      0.452000
     22 C22        10.0320   -9.3900   -0.1020 c2        1 W19     -0.198000
     23 C23         9.4340   -8.7830   -1.1330 c2        1 W19     -0.064000
     24 C24         9.1160   -9.3440    8.7000 c3        1 W19     -0.319000
     25 C25         8.4860  -10.6230    8.4010 c2        1 W19      0.320000
     26 N26         8.5090   -7.0630    1.0890 n2        1 W19     -0.266000
     27 N27         7.6990   -4.9200    1.7750 n3        1 W19     -0.183000
     28 N28         9.0300   -7.4390   -1.2300 n3        1 W19     -0.219000
     29 N30         8.9200   -9.4020    3.7860 n         1 W19     -0.394000
     30 O31         8.6630   -9.2920    6.0420 o         1 W19     -0.564000
     31 O32         8.7300  -11.3540    7.3630 oh        1 W19     -0.109000
     32 O33         2.7120   -1.1100    2.3480 os        1 W19     -0.082000
     33 S34        -0.2490   -3.0470    2.7720 ss        1 W19      1.472000
     34 CL1         5.2070   -1.3560    4.0840 cl        1 W19      0.038000
     35 H1          1.0630    1.6910    1.6830 hc        1 W19      0.173000
     36 H2          5.5960   -1.5620   -1.1710 ha        1 W19      0.159000
     37 H3          2.2420    1.2190    2.9740 hc        1 W19      0.173000
     38 H4          3.4900   -0.7090   -0.2220 ha        1 W19      0.192000
     39 H5         -1.7550    0.1160    2.8330 ha        1 W19      0.202000
     40 H6          0.3980   -0.3430   -0.0420 ha        1 W19      0.173000
     41 H7          4.1710   -3.1930    3.0640 h1        1 W19      0.208000
     42 H8          1.2250   -2.8580   -0.5730 ha        1 W19      0.142000
     43 H9          7.2700   -4.3440    2.4980 hn        1 W19      0.325000
     44 H10         8.3840   -4.8780   -1.5740 ha        1 W19      0.167000
     45 H11         7.9690   -6.9200    3.7170 ha        1 W19      0.306000
     46 H12        10.2950   -8.9130    0.8500 ha        1 W19      0.141500
     47 H13        10.3030  -10.4540   -0.1860 ha        1 W19      0.141500
     48 H14         9.2190   -9.3300   -2.0770 h4        1 W19      0.163000
     49 H15         9.2940  -10.3160    3.8530 hn        1 W19      0.246000
     50 H16        10.1010   -9.2130    8.1780 hc        1 W19      0.178000
     51 H17         9.2390   -9.1980    9.8060 hc        1 W19      0.178000
     52 H18         7.7210  -11.0830    9.0780 h4        1 W19      0.222000
     53 H19         9.0460   -7.0470   -2.1500 hn        1 W19      0.256000
     54 H20         8.2690   -2.4300    0.6180 hn        1 W19      0.256500
     55 H21         8.8120   -8.9930    2.8880 hn        1 W19      0.246000
     56 H22         9.3710  -10.9560    6.7100 ho        1 W19      0.331000
     57 H302        8.4380   -8.5250    8.3090 hc        1 W19      0.178000
     58 H292        7.5480   -2.8670   -0.8330 hn        1 W19      0.256500
     59 N29         7.5230   -2.9980    0.1860 n4        1 W19      0.076000
@<TRIPOS>BOND
     1    1    3 1   
     2    1    5 1   
     3    2    4 1   
     4    2   12 1   
     5    2   36 1   
     6    3   13 1   
     7    3   35 1   
     8    3   37 1   
     9    4   14 1   
    10    4   38 1   
    11    5   15 1   
    12    5   39 1   
    13    6    8 1   
    14    6   10 1   
    15    6   42 1   
    16    7   12 1   
    17    7   16 1   
    18    8   33 1   
    19    9   26 1   
    20    9   27 1   
    21   10   13 1   
    22   10   40 1   
    23   11   17 1   
    24   11   18 1   
    25   11   44 1   
    26   12   59 1   
    27   13   32 1   
    28   14   16 1   
    29   14   32 1   
    30   15   33 1   
    31   16   34 1   
    32   16   41 1   
    33   17   26 1   
    34   17   28 1   
    35   18   27 1   
    36   18   59 1   
    37   19   20 1   
    38   20   21 1   
    39   20   45 1   
    40   21   29 1   
    41   21   30 1   
    42   22   23 1   
    43   22   46 1   
    44   22   47 1   
    45   23   28 1   
    46   23   48 1   
    47   24   25 1   
    48   24   50 1   
    49   24   51 1   
    50   24   57 1   
    51   25   31 1   
    52   25   52 1   
    53   27   43 1   
    54   28   53 1   
    55   29   49 1   
    56   29   55 1   
    57   31   56 1   
    58   54   59 1   
    59   58   59 1   
@<TRIPOS>SUBSTRUCTURE
     1 W19         1 TEMP              0 ****  ****    0 ROOT
