@<TRIPOS>MOLECULE
W19
   58    61     1     0     0
SMALL
bcc


@<TRIPOS>ATOM
      1 C1          0.0060    0.8740    0.3020 c1        1 W19      0.052000
      2 C2          3.9520   -4.2360    1.4490 c2        1 W19      0.094000
      3 C3          0.3170   -0.5550    0.2410 c3        1 W19     -0.160000
      4 C4          3.0090   -3.2020    1.4030 c2        1 W19     -0.313000
      5 C5         -0.0540    1.5810    1.5390 c2        1 W19     -0.023000
      6 C6          1.6680   -0.8990    3.8170 c2        1 W19      0.089000
      7 C7          5.7270   -2.7120    0.7610 c1        1 W19     -0.189000
      8 C8          2.0150    0.3660    3.8720 c1        1 W19     -1.026000
      9 C9          9.5910   -3.7010    0.4340 c1        1 W19      0.131000
     10 C10         0.8330   -1.2350    2.6430 c2        1 W19     -0.138000
     11 C11         8.3820   -6.2220    1.0200 c3        1 W19     -0.092000
     12 C12         5.3060   -3.9810    1.1520 c2        1 W19     -0.158000
     13 C13         1.1920   -1.0260    1.3610 c2        1 W19     -0.086000
     14 C14         3.3730   -1.9140    1.0410 c2        1 W19      0.200000
     15 C15         0.9660    1.8400    2.3280 c1        1 W19     -0.789000
     16 C16         4.8040   -1.5890    0.6950 c3        1 W19     -0.072000
     17 C17         9.8980   -5.9650    0.9190 c2        1 W19      0.135000
     18 C18         7.5590   -4.9290    0.9310 c2        1 W19      0.236000
     19 C19         8.0130   -6.9240    2.2470 c1        1 W19     -0.381000
     20 C20         8.7670   -7.2990    3.2850 c2        1 W19     -0.258000
     21 C21         8.0160   -8.0220    4.3140 c2        1 W19      0.362000
     22 C22        10.1850   -6.9590    3.6050 c3        1 W19     -0.176000
     23 C23        11.2050   -7.2240    2.4870 c3        1 W19     -0.064000
     24 C24         7.7690  -10.4850    4.8030 c3        1 W19     -0.169000
     25 C25         8.4010  -11.7270    5.4500 c3        1 W19     -0.046000
     26 N26        10.4130   -4.7710    0.6900 n2        1 W19     -0.231000
     27 N27         8.2180   -3.7730    0.5570 n3        1 W19     -0.258000
     28 N28        10.6850   -7.1290    1.1360 n3        1 W19     -0.227000
     29 N30         8.7020   -9.3330    4.7710 n4        1 W19     -0.122000
     30 O31         6.9460   -7.8100    4.8580 o         1 W19     -0.219000
     31 O32         8.9750  -11.3750    6.6900 oh        1 W19     -0.333000
     32 O33         2.5550   -0.8460    1.0020 os        1 W19     -0.116000
     33 S34         2.0730    1.7460    3.2980 ss        1 W19      1.475000
     34 CL1         4.9270   -0.8670   -0.9040 cl        1 W19      0.018000
     35 H1         -0.6650   -1.1130    0.2270 hc        1 W19      0.165000
     36 H2          3.6000   -5.2470    1.7230 ha        1 W19      0.154000
     37 H3          0.8170   -0.7530   -0.7520 hc        1 W19      0.165000
     38 H4          1.9590   -3.4210    1.6610 ha        1 W19      0.175000
     39 H5         -1.0900    1.9100    1.7940 ha        1 W19      0.187000
     40 H6         -0.2240   -1.4530    2.8790 ha        1 W19      0.158000
     41 H7          5.1700   -0.8010    1.4250 h1        1 W19      0.206000
     42 H8          1.8530   -1.6720    4.5730 ha        1 W19      0.139000
     43 H9          7.6570   -2.9190    0.4270 hn        1 W19      0.334000
     44 H10         8.0740   -6.8760    0.1440 hc        1 W19      0.168000
     45 H11        10.2130   -5.8570    3.8420 hc        1 W19      0.089500
     46 H12        10.5530   -7.4800    4.5270 hc        1 W19      0.089500
     47 H13        12.0470   -6.4790    2.5840 h1        1 W19      0.115500
     48 H14        11.6390   -8.2570    2.6010 h1        1 W19      0.115500
     49 H15         9.4800   -9.5340    4.1380 hn        1 W19      0.245000
     50 H16         6.8570  -10.1680    5.3860 hx        1 W19      0.148500
     51 H17         7.4560  -10.7250    3.7480 hx        1 W19      0.148500
     52 H18         7.6140  -12.5180    5.5470 h1        1 W19      0.121000
     53 H19        10.1430   -7.9470    0.9070 hn        1 W19      0.175000
     54 H20         5.9460   -5.9310    1.5940 hn        1 W19      0.295000
     55 H21         9.0860   -9.2080    5.7150 hn        1 W19      0.245000
     56 H22         8.3460  -11.5890    7.3900 ho        1 W19      0.230000
     57 H302        9.2480  -12.1180    4.8230 h1        1 W19      0.121000
     58 N29         6.2480   -5.0420    1.2170 n3        1 W19     -0.137000
@<TRIPOS>BOND
     1    1    3 1   
     2    1    5 1   
     3    2    4 1   
     4    2   12 1   
     5    2   36 1   
     6    3   13 1   
     7    3   35 1   
     8    3   37 1   
     9    4   14 1   
    10    4   38 1   
    11    5   15 1   
    12    5   39 1   
    13    6    8 1   
    14    6   10 1   
    15    6   42 1   
    16    7   12 1   
    17    7   16 1   
    18    8   33 1   
    19    9   26 1   
    20    9   27 1   
    21   10   13 1   
    22   10   40 1   
    23   11   17 1   
    24   11   18 1   
    25   11   19 1   
    26   11   44 1   
    27   12   58 1   
    28   13   32 1   
    29   14   16 1   
    30   14   32 1   
    31   15   33 1   
    32   16   34 1   
    33   16   41 1   
    34   17   26 1   
    35   17   28 1   
    36   18   27 1   
    37   18   58 1   
    38   19   20 1   
    39   20   21 1   
    40   20   22 1   
    41   21   29 1   
    42   21   30 1   
    43   22   23 1   
    44   22   45 1   
    45   22   46 1   
    46   23   28 1   
    47   23   47 1   
    48   23   48 1   
    49   24   25 1   
    50   24   29 1   
    51   24   50 1   
    52   24   51 1   
    53   25   31 1   
    54   25   52 1   
    55   25   57 1   
    56   27   43 1   
    57   28   53 1   
    58   29   49 1   
    59   29   55 1   
    60   31   56 1   
    61   54   58 1   
@<TRIPOS>SUBSTRUCTURE
     1 W19         1 TEMP              0 ****  ****    0 ROOT
