@<TRIPOS>MOLECULE
W19
   58    60     1     0     0
SMALL
bcc


@<TRIPOS>ATOM
      1 C1         -0.0430    0.2360    0.7770 c1        1 W19      0.051000
      2 C2          4.4180   -4.5090    1.7620 c2        1 W19      0.078000
      3 C3          0.3730   -1.1640    0.6920 c3        1 W19     -0.161000
      4 C4          3.3780   -3.5630    1.7510 c2        1 W19     -0.309000
      5 C5         -0.0620    0.9440    2.0150 c2        1 W19     -0.023000
      6 C6          2.0120   -1.3790    4.1550 c2        1 W19      0.090000
      7 C7          5.9780   -2.8790    0.8380 c1        1 W19     -0.175000
      8 C8          2.2650   -0.0910    4.1880 c1        1 W19     -1.026000
      9 C9          9.9110   -3.5920    0.2800 c1        1 W19      0.092000
     10 C10         1.1210   -1.7830    3.0460 c2        1 W19     -0.149000
     11 C11         8.9470   -6.1970    1.0460 c3        1 W19      0.069000
     12 C12         5.7070   -4.1610    1.3260 c2        1 W19     -0.140000
     13 C13         1.3670   -1.5570    1.7410 c2        1 W19     -0.076000
     14 C14         3.5900   -2.2770    1.2930 c2        1 W19      0.182000
     15 C15         0.9920    1.2870    2.7240 c1        1 W19     -0.788000
     16 C16         4.9490   -1.8490    0.8030 c3        1 W19     -0.072000
     17 C17        10.4450   -5.7690    0.9790 c2        1 W19      0.201000
     18 C18         8.0210   -4.9410    0.9820 c2        1 W19      0.190000
     19 C19         8.6650   -7.0800    2.0920 c1        1 W19     -0.559000
     20 C20         8.3650   -7.8830    3.0470 c2        1 W19     -0.104000
     21 C21         7.0330   -7.8480    3.6880 c2        1 W19      0.282000
     22 C22        13.5270   -5.7930    0.7000 c2        1 W19     -0.179000
     23 C23        12.7320   -6.6690    1.3280 c2        1 W19     -0.092000
     24 C24         6.7760  -10.1260    4.6850 c3        1 W19     -0.131000
     25 C25         6.6730  -10.9860    5.9500 c3        1 W19     -0.044000
     26 N26        10.8090   -4.5470    0.5250 n2        1 W19     -0.329000
     27 N27         8.5390   -3.7700    0.5090 n7        1 W19     -0.253000
     28 N28        11.3280   -6.7310    1.3440 n7        1 W19     -0.186000
     29 N30         6.8930   -8.6760    4.9810 ny        1 W19     -0.115000
     30 O31         5.9940   -7.2650    3.3890 o         1 W19     -0.297000
     31 O32         5.6380  -10.4350    6.7430 oh        1 W19     -0.353000
     32 O33         2.6770   -1.2820    1.2710 os        1 W19     -0.124000
     33 S34         2.1730    1.2840    3.6060 ss        1 W19      1.471000
     34 Cl1         4.8690   -1.2140   -0.8350 cl        1 W19      0.014000
     35 H1         -0.5600   -1.7980    0.7550 hc        1 W19      0.164500
     36 H2          4.1890   -5.5280    2.1280 ha        1 W19      0.155000
     37 H3          0.8100   -1.3280   -0.3370 hc        1 W19      0.164500
     38 H4          2.3820   -3.8610    2.1190 ha        1 W19      0.171000
     39 H5         -1.0970    1.1940    2.3490 ha        1 W19      0.185000
     40 H6          0.1020   -2.0740    3.3600 ha        1 W19      0.155000
     41 H7          5.3030   -0.9910    1.4570 h1        1 W19      0.203000
     42 H8          2.3140   -2.1330    4.8930 ha        1 W19      0.135000
     43 H9          7.9210   -2.9620    0.3870 hn        1 W19      0.322000
     44 H10         8.7470   -6.7410    0.0620 hc        1 W19      0.172000
     45 H11         9.0310   -8.6530    3.4760 ha        1 W19      0.095000
     46 H12        13.1930   -4.9480    0.0840 ha        1 W19      0.152000
     47 H13        14.6180   -5.8990    0.7940 ha        1 W19      0.152000
     48 H14        13.1650   -7.4990    1.9260 h4        1 W19      0.142000
     49 H15         7.7140   -8.5120    5.5660 hn        1 W19      0.243000
     50 H16         7.6770  -10.4470    4.0900 hx        1 W19      0.147000
     51 H17         5.8490  -10.2680    4.0580 hx        1 W19      0.147000
     52 H18         6.4410  -12.0400    5.6410 h1        1 W19      0.104000
     53 H19        10.9290   -7.5740    1.7160 hn        1 W19      0.265000
     54 H20         6.4970   -6.0410    1.7290 hn        1 W19      0.278000
     55 H21         6.0580   -8.3850    5.5050 hn        1 W19      0.243000
     56 H22         5.3660  -11.1080    7.3810 ho        1 W19      0.244000
     57 H302        7.6370  -10.9710    6.5280 h1        1 W19      0.104000
     58 N29         6.7360   -5.1380    1.3570 n7        1 W19     -0.179000
@<TRIPOS>BOND
     1    1    3 1   
     2    1    5 1   
     3    2    4 1   
     4    2   12 1   
     5    2   36 1   
     6    3   13 1   
     7    3   35 1   
     8    3   37 1   
     9    4   14 1   
    10    4   38 1   
    11    5   15 1   
    12    5   39 1   
    13    6    8 1   
    14    6   10 1   
    15    6   42 1   
    16    7   12 1   
    17    7   16 1   
    18    8   33 1   
    19    9   26 1   
    20    9   27 1   
    21   10   13 1   
    22   10   40 1   
    23   11   17 1   
    24   11   18 1   
    25   11   19 1   
    26   11   44 1   
    27   12   58 1   
    28   13   32 1   
    29   14   16 1   
    30   14   32 1   
    31   15   33 1   
    32   16   34 1   
    33   16   41 1   
    34   17   26 1   
    35   17   28 1   
    36   18   27 1   
    37   18   58 1   
    38   19   20 1   
    39   20   21 1   
    40   20   45 1   
    41   21   29 1   
    42   21   30 1   
    43   22   23 1   
    44   22   46 1   
    45   22   47 1   
    46   23   28 1   
    47   23   48 1   
    48   24   25 1   
    49   24   29 1   
    50   24   50 1   
    51   24   51 1   
    52   25   31 1   
    53   25   52 1   
    54   25   57 1   
    55   27   43 1   
    56   28   53 1   
    57   29   49 1   
    58   29   55 1   
    59   31   56 1   
    60   54   58 1   
@<TRIPOS>SUBSTRUCTURE
     1 W19         1 TEMP              0 ****  ****    0 ROOT
