@<TRIPOS>MOLECULE
W1G
   31    32     1     0     0
SMALL
bcc


@<TRIPOS>ATOM
      1 CAG        -0.1110   -0.4720    0.2850 ca        1 W1G     -0.165500
      2 CAE         1.1490    0.0040   -0.0740 ca        1 W1G     -0.103000
      3 CAD         1.9430    0.6720    0.8570 ca        1 W1G     -0.155000
      4 CAF         1.4810    0.8670    2.1600 ca        1 W1G     -0.103000
      5 CAH         0.2280    0.3980    2.5430 ca        1 W1G     -0.165500
      6 CAP        -0.5640   -0.2690    1.5930 ca        1 W1G      0.107100
      7 OAM        -1.8220   -0.6550    2.0500 os        1 W1G     -0.260200
      8 CAQ        -2.5000   -1.5940    1.2740 ca        1 W1G     -0.001900
      9 CAJ        -2.0160   -2.8900    1.0720 ca        1 W1G     -0.105000
     10 CAI        -2.8040   -3.8140    0.3950 ca        1 W1G     -0.156000
     11 CAO        -4.0760   -3.4600   -0.0790 ca        1 W1G     -0.043300
     12 CAL        -4.9010   -4.4630   -0.8120 c3        1 W1G     -0.010900
     13 CAC        -5.3610   -5.5640    0.0750 c2        1 W1G     -0.163200
     14 CAA        -6.5960   -6.0570    0.0590 c2        1 W1G     -0.219000
     15 CAK        -4.5650   -2.1690    0.1240 ca        1 W1G     -0.148000
     16 CAN        -3.7750   -1.2270    0.8010 ca        1 W1G      0.133100
     17 OAB        -4.3050    0.0250    0.9840 oh        1 W1G     -0.491100
     18 HAG        -0.7410   -1.0020   -0.4450 ha        1 W1G      0.149500
     19 HAE         1.5140   -0.1490   -1.1010 ha        1 W1G      0.135500
     20 HAD         2.9360    1.0460    0.5660 ha        1 W1G      0.135000
     21 HAF         2.1100    1.3940    2.8930 ha        1 W1G      0.135500
     22 HAH        -0.1500    0.5430    3.5640 ha        1 W1G      0.149500
     23 HAJ        -1.0180   -3.1610    1.4470 ha        1 W1G      0.149000
     24 HAI        -2.4300   -4.8360    0.2320 ha        1 W1G      0.138000
     25 HAL1       -5.7800   -3.9570   -1.2970 hc        1 W1G      0.058200
     26 HAL2       -4.2790   -4.9090   -1.6390 hc        1 W1G      0.058200
     27 HAK        -5.5610   -1.8720   -0.2350 ha        1 W1G      0.155000
     28 HAC        -4.5910   -5.9630    0.7570 ha        1 W1G      0.124000
     29 HAA1       -7.3840   -5.6730   -0.6020 ha        1 W1G      0.112500
     30 HAA2       -6.9030   -6.8830    0.7140 ha        1 W1G      0.112500
     31 HAB        -3.6520    0.5570    1.4670 ho        1 W1G      0.437000
@<TRIPOS>BOND
     1    1    2 ar  
     2    1    6 ar  
     3    1   18 1   
     4    2    3 ar  
     5    2   19 1   
     6    3    4 ar  
     7    3   20 1   
     8    4    5 ar  
     9    4   21 1   
    10    5    6 ar  
    11    5   22 1   
    12    6    7 1   
    13    7    8 1   
    14    8    9 ar  
    15    8   16 ar  
    16    9   10 ar  
    17    9   23 1   
    18   10   11 ar  
    19   10   24 1   
    20   11   12 1   
    21   11   15 ar  
    22   12   13 1   
    23   12   25 1   
    24   12   26 1   
    25   13   14 2   
    26   13   28 1   
    27   14   29 1   
    28   14   30 1   
    29   15   16 ar  
    30   15   27 1   
    31   16   17 1   
    32   17   31 1   
@<TRIPOS>SUBSTRUCTURE
     1 W1G         1 TEMP              0 ****  ****    0 ROOT
