@<TRIPOS>MOLECULE
W1G
   31    32     1     0     0
SMALL
bcc


@<TRIPOS>ATOM
      1 CAG        -0.1160   -0.4660    0.2820 ca        1 W1G     -0.165500
      2 CAE         1.1390    0.0170   -0.0880 ca        1 W1G     -0.103000
      3 CAD         1.9480    0.6650    0.8440 ca        1 W1G     -0.155000
      4 CAF         1.5070    0.8340    2.1580 ca        1 W1G     -0.103000
      5 CAH         0.2600    0.3570    2.5510 ca        1 W1G     -0.165500
      6 CAP        -0.5470   -0.2900    1.6010 ca        1 W1G      0.107100
      7 OAM        -1.7980   -0.6850    2.0700 os        1 W1G     -0.260200
      8 CAQ        -2.4900   -1.6070    1.2860 ca        1 W1G     -0.001900
      9 CAJ        -2.0090   -2.8990    1.0490 ca        1 W1G     -0.105000
     10 CAI        -2.8090   -3.8090    0.3660 ca        1 W1G     -0.156000
     11 CAO        -4.0890   -3.4440   -0.0790 ca        1 W1G     -0.043300
     12 CAL        -4.9260   -4.4320   -0.8200 c3        1 W1G     -0.010900
     13 CAC        -5.3710   -5.5510    0.0510 c2        1 W1G     -0.163200
     14 CAA        -6.6070   -6.0430    0.0460 c2        1 W1G     -0.219000
     15 CAK        -4.5740   -2.1580    0.1590 ca        1 W1G     -0.148000
     16 CAN        -3.7720   -1.2300    0.8420 ca        1 W1G      0.133100
     17 OAB        -4.2980    0.0180    1.0600 oh        1 W1G     -0.491100
     18 HAG        -0.7580   -0.9800   -0.4480 ha        1 W1G      0.149500
     19 HAE         1.4860   -0.1150   -1.1230 ha        1 W1G      0.135500
     20 HAD         2.9360    1.0440    0.5440 ha        1 W1G      0.135000
     21 HAF         2.1480    1.3450    2.8910 ha        1 W1G      0.135500
     22 HAH        -0.1010    0.4810    3.5820 ha        1 W1G      0.149500
     23 HAJ        -1.0060   -3.1780    1.4020 ha        1 W1G      0.149000
     24 HAI        -2.4380   -4.8260    0.1750 ha        1 W1G      0.138000
     25 HAL1       -5.8130   -3.9160   -1.2790 hc        1 W1G      0.058200
     26 HAL2       -4.3180   -4.8600   -1.6660 hc        1 W1G      0.058200
     27 HAK        -5.5750   -1.8530   -0.1770 ha        1 W1G      0.155000
     28 HAC        -4.5910   -5.9640    0.7130 ha        1 W1G      0.124000
     29 HAA1       -7.4050   -5.6460   -0.5940 ha        1 W1G      0.112500
     30 HAA2       -6.9040   -6.8830    0.6880 ha        1 W1G      0.112500
     31 HAB        -3.6370    0.5390    1.5430 ho        1 W1G      0.437000
@<TRIPOS>BOND
     1    1    2 ar  
     2    1    6 ar  
     3    1   18 1   
     4    2    3 ar  
     5    2   19 1   
     6    3    4 ar  
     7    3   20 1   
     8    4    5 ar  
     9    4   21 1   
    10    5    6 ar  
    11    5   22 1   
    12    6    7 1   
    13    7    8 1   
    14    8    9 ar  
    15    8   16 ar  
    16    9   10 ar  
    17    9   23 1   
    18   10   11 ar  
    19   10   24 1   
    20   11   12 1   
    21   11   15 ar  
    22   12   13 1   
    23   12   25 1   
    24   12   26 1   
    25   13   14 2   
    26   13   28 1   
    27   14   29 1   
    28   14   30 1   
    29   15   16 ar  
    30   15   27 1   
    31   16   17 1   
    32   17   31 1   
@<TRIPOS>SUBSTRUCTURE
     1 W1G         1 TEMP              0 ****  ****    0 ROOT
