@<TRIPOS>MOLECULE
W1G
   31    26     1     0     0
SMALL
bcc


@<TRIPOS>ATOM
      1 CAG         2.5130   -1.8460    1.5590 c1        1 W1G     -0.151000
      2 CAE         3.8690   -1.6490    1.7700 c1        1 W1G     -0.138750
      3 CAD         4.3030   -0.5780    2.5360 c1        1 W1G     -0.138750
      4 CAF         3.3810    0.2960    3.0910 c1        1 W1G     -0.138750
      5 CAH         2.0250    0.0990    2.8800 c1        1 W1G     -0.138750
      6 CAP         1.5900   -0.9720    2.1140 c1        1 W1G      0.080000
      7 OAM         0.2130   -1.2270    1.9800 os        1 W1G     -0.146000
      8 CAQ        -0.2530   -0.6700    0.7710 c2        1 W1G      0.006000
      9 CAJ        -0.3840   -1.4700   -0.3530 c2        1 W1G     -0.098000
     10 CAI        -0.9410   -0.9510   -1.5130 c1        1 W1G     -0.160000
     11 CAO        -1.3660    0.3670   -1.5470 c1        1 W1G     -0.025000
     12 CAL        -1.9410    0.9440   -2.8230 c3        1 W1G     -0.102000
     13 CAC        -3.4460    0.7790   -2.8190 c2        1 W1G     -0.159000
     14 CAA        -4.1860    1.3170   -3.8090 c1        1 W1G     -0.219000
     15 CAK        -1.2360    1.1670   -0.4230 c1        1 W1G     -0.207000
     16 CAN        -0.6790    0.6480    0.7370 c1        1 W1G      0.084000
     17 OAB        -0.5290    1.4670    1.8720 oh        1 W1G     -0.230000
     18 HAG         2.2080   -2.6010    1.0200 ha        1 W1G      0.150000
     19 HAE         4.5200   -2.2650    1.3790 ha        1 W1G      0.134500
     20 HAD         5.2600   -0.4390    2.6850 ha        1 W1G      0.134500
     21 HAF         3.6870    1.0510    3.6310 ha        1 W1G      0.134500
     22 HAH         1.3750    0.7150    3.2710 ha        1 W1G      0.134500
     23 HAJ        -0.0840   -2.3990   -0.3290 ha        1 W1G      0.152000
     24 HAI        -1.0320   -1.5140   -2.3050 ha        1 W1G      0.139000
     25 HAL1       -1.7180    1.8940   -2.8810 hc        1 W1G      0.096500
     26 HAL2       -1.5640    0.4730   -3.5930 hc        1 W1G      0.096500
     27 HAK        -1.5360    2.0960   -0.4470 ha        1 W1G      0.138000
     28 HAC        -3.8800    0.2820   -2.1000 ha        1 W1G      0.126000
     29 HAA1       -3.7500    1.8150   -4.5300 DU        1 W1G      0.111000
     30 HAA2       -5.1580    1.2110   -3.8060 ha        1 W1G      0.115000
     31 HAB        -1.2600    1.9600    1.9810 ho        1 W1G      0.218000
@<TRIPOS>BOND
     1    1    6 1   
     2    1   18 1   
     3    2    3 1   
     4    2   19 1   
     5    3   20 1   
     6    4    5 1   
     7    4   21 1   
     8    5   22 1   
     9    6    7 1   
    10    7    8 1   
    11    8    9 1   
    12    8   16 1   
    13    9   10 1   
    14    9   23 1   
    15   10   24 1   
    16   11   12 1   
    17   11   15 1   
    18   12   13 1   
    19   12   25 1   
    20   12   26 1   
    21   13   14 1   
    22   13   28 1   
    23   14   30 1   
    24   15   27 1   
    25   16   17 1   
    26   17   31 1   
@<TRIPOS>SUBSTRUCTURE
     1 W1G         1 TEMP              0 ****  ****    0 ROOT
