@<TRIPOS>MOLECULE
W1G
   31    32     1     0     0
SMALL
bcc


@<TRIPOS>ATOM
      1 CAG        -2.4580    0.4940   -0.7580 ca        1 W1G     -0.165500
      2 CAE        -3.6820    0.9750   -1.2210 ca        1 W1G     -0.103000
      3 CAD        -4.8470    0.7660   -0.4840 ca        1 W1G     -0.155000
      4 CAF        -4.7950    0.0730    0.7270 ca        1 W1G     -0.103000
      5 CAH        -3.5840   -0.4140    1.2110 ca        1 W1G     -0.165500
      6 CAP        -2.4190   -0.2000    0.4550 ca        1 W1G      0.107100
      7 OAM        -1.2640   -0.7680    0.9900 os        1 W1G     -0.260200
      8 CAQ        -0.0530   -0.3120    0.4720 ca        1 W1G     -0.001900
      9 CAJ         0.3650    1.0160    0.6020 ca        1 W1G     -0.105000
     10 CAI         1.6400    1.3740    0.1760 ca        1 W1G     -0.156000
     11 CAO         2.5050    0.4170   -0.3760 ca        1 W1G     -0.043300
     12 CAL         3.8640    0.8240   -0.8380 c3        1 W1G     -0.010900
     13 CAC         4.7470    1.2060    0.2940 c2        1 W1G     -0.163200
     14 CAA         6.0190    0.8280    0.3990 c2        1 W1G     -0.219000
     15 CAK         2.0930   -0.9090   -0.5050 ca        1 W1G     -0.148000
     16 CAN         0.8070   -1.2800   -0.0820 ca        1 W1G      0.133100
     17 OAB         0.4530   -2.5980   -0.2210 oh        1 W1G     -0.491100
     18 HAG        -1.5350    0.6580   -1.3340 ha        1 W1G      0.149500
     19 HAE        -3.7240    1.5210   -2.1750 ha        1 W1G      0.135500
     20 HAD        -5.8090    1.1480   -0.8560 ha        1 W1G      0.135000
     21 HAF        -5.7150   -0.0900    1.3070 ha        1 W1G      0.135500
     22 HAH        -3.5250   -0.9600    2.1620 ha        1 W1G      0.149500
     23 HAJ        -0.3180    1.7600    1.0370 ha        1 W1G      0.149000
     24 HAI         1.9760    2.4160    0.2750 ha        1 W1G      0.138000
     25 HAL1        4.3300   -0.0050   -1.4380 hc        1 W1G      0.058200
     26 HAL2        3.7620    1.7120   -1.5250 hc        1 W1G      0.058200
     27 HAK         2.7570   -1.6760   -0.9300 ha        1 W1G      0.155000
     28 HAC         4.2740    1.8460    1.0580 ha        1 W1G      0.124000
     29 HAA1        6.5120    0.1830   -0.3410 ha        1 W1G      0.112500
     30 HAA2        6.6530    1.1390    1.2380 ha        1 W1G      0.112500
     31 HAB        -0.4520   -2.7000    0.1160 ho        1 W1G      0.437000
@<TRIPOS>BOND
     1    1    2 ar  
     2    1    6 ar  
     3    1   18 1   
     4    2    3 ar  
     5    2   19 1   
     6    3    4 ar  
     7    3   20 1   
     8    4    5 ar  
     9    4   21 1   
    10    5    6 ar  
    11    5   22 1   
    12    6    7 1   
    13    7    8 1   
    14    8    9 ar  
    15    8   16 ar  
    16    9   10 ar  
    17    9   23 1   
    18   10   11 ar  
    19   10   24 1   
    20   11   12 1   
    21   11   15 ar  
    22   12   13 1   
    23   12   25 1   
    24   12   26 1   
    25   13   14 2   
    26   13   28 1   
    27   14   29 1   
    28   14   30 1   
    29   15   16 ar  
    30   15   27 1   
    31   16   17 1   
    32   17   31 1   
@<TRIPOS>SUBSTRUCTURE
     1 W1G         1 TEMP              0 ****  ****    0 ROOT
