@<TRIPOS>MOLECULE
W22
   30    31     1     0     0
SMALL
bcc


@<TRIPOS>ATOM
      1 O1         -0.0790   -0.1470    0.1000 o         1 W22     -0.666500
      2 C9          1.1670   -0.0700    0.0350 c         1 W22      0.659500
      3 C10         1.9670   -0.0650    1.3620 c3        1 W22      0.148500
      4 C11         1.6720    1.2600    2.0740 c3        1 W22     -0.198400
      5 C12         2.2070    1.2150    3.5230 c         1 W22      0.924600
      6 O3          3.1710    1.9800    3.8170 o         1 W22     -0.844300
      7 O2          1.6430    0.4320    4.3360 o         1 W22     -0.844300
      8 N1          1.7420    0.0260   -1.2350 n         1 W22     -0.493800
      9 C8          0.8840    0.2260   -2.3730 c3        1 W22      0.081300
     10 C7          3.1420   -0.1280   -1.5570 c3        1 W22      0.159300
     11 C4          4.0910    0.7560   -0.8050 ca        1 W22     -0.153300
     12 C5          4.1460    0.6380    0.6010 ca        1 W22      0.101600
     13 N2          3.3810   -0.3640    1.2710 nu        1 W22     -0.673600
     14 C3          4.8970    1.6830   -1.4630 ca        1 W22     -0.130000
     15 C2          5.7390    2.5160   -0.7290 ca        1 W22     -0.151000
     16 C1          5.7480    2.4480    0.6640 ca        1 W22     -0.134000
     17 C6          4.9500    1.5270    1.3400 ca        1 W22     -0.074000
     18 H10         1.5090   -0.8880    1.9970 h1        1 W22      0.112700
     19 H111        0.5630    1.3980    2.1040 hc        1 W22      0.045700
     20 H112        2.1370    2.1170    1.5290 hc        1 W22      0.045700
     21 H2          3.5210   -1.2520    0.8220 hn        1 W22      0.353800
     22 H81C       -0.1740    0.4040   -2.0440 h1        1 W22      0.033033
     23 H82C        0.9050   -0.6780   -3.0420 h1        1 W22      0.033033
     24 H83C        1.2320    1.1140   -2.9670 h1        1 W22      0.033033
     25 H71C        3.4380   -1.2070   -1.3820 h1        1 W22      0.033200
     26 H72C        3.2730    0.0640   -2.6630 h1        1 W22      0.033200
     27 HA          4.8600    1.7660   -2.5590 ha        1 W22      0.112000
     28 H6          4.8810    1.5240    2.4490 ha        1 W22      0.216000
     29 HB          6.3790    3.2420   -1.2490 ha        1 W22      0.113000
     30 H1          6.3780    3.1400    1.2430 ha        1 W22      0.127000
@<TRIPOS>BOND
     1    1    2 2   
     2    2    3 1   
     3    2    8 1   
     4    3    4 1   
     5    3   13 1   
     6    3   18 1   
     7    4    5 1   
     8    4   19 1   
     9    4   20 1   
    10    5    6 1   
    11    5    7 1   
    12    8    9 1   
    13    8   10 1   
    14    9   22 1   
    15    9   23 1   
    16    9   24 1   
    17   10   11 1   
    18   10   25 1   
    19   10   26 1   
    20   11   12 ar  
    21   11   14 ar  
    22   12   13 1   
    23   12   17 ar  
    24   13   21 1   
    25   14   15 ar  
    26   14   27 1   
    27   15   16 ar  
    28   15   29 1   
    29   16   17 ar  
    30   16   30 1   
    31   17   28 1   
@<TRIPOS>SUBSTRUCTURE
     1 W22         1 TEMP              0 ****  ****    0 ROOT
