@<TRIPOS>MOLECULE
W22
   30    31     1     0     0
SMALL
bcc


@<TRIPOS>ATOM
      1 O1         -0.0720   -0.1670    0.1130 o         1 W22     -0.666500
      2 C9          1.1730   -0.0810    0.0450 c         1 W22      0.659500
      3 C10         1.9770   -0.0670    1.3690 c3        1 W22      0.148500
      4 C11         1.6740    1.2560    2.0800 c3        1 W22     -0.198400
      5 C12         2.2130    1.2180    3.5280 c         1 W22      0.924600
      6 O3          3.1720    1.9900    3.8180 o         1 W22     -0.844300
      7 O2          1.6580    0.4310    4.3440 o         1 W22     -0.844300
      8 N1          1.7440    0.0180   -1.2270 n         1 W22     -0.493800
      9 C8          0.8820    0.2090   -2.3630 c3        1 W22      0.081300
     10 C7          3.1440   -0.1260   -1.5520 c3        1 W22      0.159300
     11 C4          4.0880    0.7660   -0.8050 ca        1 W22     -0.153300
     12 C5          4.1490    0.6510    0.6020 ca        1 W22      0.101600
     13 N2          3.3930   -0.3550    1.2750 nh        1 W22     -0.673600
     14 C3          4.8860    1.6990   -1.4660 ca        1 W22     -0.130000
     15 C2          5.7230    2.5390   -0.7350 ca        1 W22     -0.151000
     16 C1          5.7360    2.4730    0.6580 ca        1 W22     -0.134000
     17 C6          4.9480    1.5480    1.3370 ca        1 W22     -0.074000
     18 H10         1.5270   -0.8930    2.0070 h1        1 W22      0.112700
     19 H111        2.1300    2.1160    1.5330 hc        1 W22      0.045700
     20 H112        0.5640    1.3860    2.1140 hc        1 W22      0.045700
     21 H2          3.5380   -1.2430    0.8270 hn        1 W22      0.353800
     22 H81C        0.9070   -0.6960   -3.0300 h1        1 W22      0.033033
     23 H82C        1.2210    1.0990   -2.9590 h1        1 W22      0.033033
     24 H83C       -0.1770    0.3800   -2.0320 h1        1 W22      0.033033
     25 H71C        3.4500   -1.2030   -1.3770 h1        1 W22      0.033200
     26 H72C        3.2710    0.0650   -2.6590 h1        1 W22      0.033200
     27 HA          4.8450    1.7800   -2.5620 ha        1 W22      0.112000
     28 H6          4.8820    1.5460    2.4470 ha        1 W22      0.216000
     29 HB          6.3560    3.2690   -1.2580 ha        1 W22      0.113000
     30 H1          6.3630    3.1710    1.2340 ha        1 W22      0.127000
@<TRIPOS>BOND
     1    1    2 2   
     2    2    3 1   
     3    2    8 1   
     4    3    4 1   
     5    3   13 1   
     6    3   18 1   
     7    4    5 1   
     8    4   19 1   
     9    4   20 1   
    10    5    6 1   
    11    5    7 1   
    12    8    9 1   
    13    8   10 1   
    14    9   22 1   
    15    9   23 1   
    16    9   24 1   
    17   10   11 1   
    18   10   25 1   
    19   10   26 1   
    20   11   12 ar  
    21   11   14 ar  
    22   12   13 1   
    23   12   17 ar  
    24   13   21 1   
    25   14   15 ar  
    26   14   27 1   
    27   15   16 ar  
    28   15   29 1   
    29   16   17 ar  
    30   16   30 1   
    31   17   28 1   
@<TRIPOS>SUBSTRUCTURE
     1 W22         1 TEMP              0 ****  ****    0 ROOT
