@<TRIPOS>MOLECULE
W22
   30    31     1     0     0
SMALL
bcc


@<TRIPOS>ATOM
      1 O1         -0.3520   -3.1930    0.2430 o         1 W22     -0.676500
      2 C9         -0.5580   -1.9950   -0.0580 c         1 W22      0.701500
      3 C10         0.6390   -1.1720   -0.5610 c3        1 W22      0.148500
      4 C11         1.5870   -0.9630    0.6270 c3        1 W22     -0.229400
      5 C12         2.9580   -0.4040    0.2020 c         1 W22      0.911600
      6 O3          3.9790   -0.8870    0.7590 o         1 W22     -0.845800
      7 O2          3.0070    0.5280   -0.6600 o         1 W22     -0.845800
      8 N1         -1.8350   -1.4800    0.1470 n         1 W22     -0.477800
      9 C8         -2.8160   -2.2990    0.8070 c3        1 W22      0.083300
     10 C7         -2.3570   -0.3140   -0.5260 c3        1 W22      0.166300
     11 C4         -1.6360    0.9670   -0.2400 ca        1 W22     -0.132300
     12 C5         -0.2830    1.0890   -0.6270 ca        1 W22      0.137600
     13 N2          0.3400    0.0270   -1.3300 nh        1 W22     -0.707600
     14 C3         -2.2970    2.0420    0.3540 ca        1 W22     -0.117000
     15 C2         -1.6370    3.2490    0.5620 ca        1 W22     -0.173000
     16 C1         -0.2970    3.3780    0.1930 ca        1 W22     -0.120000
     17 C6          0.3830    2.3140   -0.3860 ca        1 W22     -0.151000
     18 H10         1.1640   -1.8630   -1.2950 h1        1 W22      0.088700
     19 H111        1.1360   -0.2460    1.3580 hc        1 W22      0.052200
     20 H112        1.7420   -1.9460    1.1400 hc        1 W22      0.052200
     21 H2          1.2270    0.3540   -1.7110 hn        1 W22      0.431800
     22 H81C       -2.3130   -3.1260    1.3740 h1        1 W22      0.032033
     23 H82C       -3.4070   -1.6700    1.5260 h1        1 W22      0.032033
     24 H83C       -3.5270   -2.7550    0.0650 h1        1 W22      0.032033
     25 H71C       -2.3300   -0.4880   -1.6450 h1        1 W22      0.039200
     26 H72C       -3.4420   -0.1950   -0.2340 h1        1 W22      0.039200
     27 HA         -3.3490    1.9330    0.6570 ha        1 W22      0.112000
     28 H6          1.4600    2.3910   -0.6300 ha        1 W22      0.184000
     29 HB         -2.1660    4.0930    1.0260 ha        1 W22      0.112000
     30 H1          0.2320    4.3250    0.3760 ha        1 W22      0.119000
@<TRIPOS>BOND
     1    1    2 2   
     2    2    3 1   
     3    2    8 1   
     4    3    4 1   
     5    3   13 1   
     6    3   18 1   
     7    4    5 1   
     8    4   19 1   
     9    4   20 1   
    10    5    6 1   
    11    5    7 1   
    12    8    9 1   
    13    8   10 1   
    14    9   22 1   
    15    9   23 1   
    16    9   24 1   
    17   10   11 1   
    18   10   25 1   
    19   10   26 1   
    20   11   12 ar  
    21   11   14 ar  
    22   12   13 1   
    23   12   17 ar  
    24   13   21 1   
    25   14   15 ar  
    26   14   27 1   
    27   15   16 ar  
    28   15   29 1   
    29   16   17 ar  
    30   16   30 1   
    31   17   28 1   
@<TRIPOS>SUBSTRUCTURE
     1 W22         1 TEMP              0 ****  ****    0 ROOT
