@<TRIPOS>MOLECULE
W22
   30    31     1     0     0
SMALL
bcc


@<TRIPOS>ATOM
      1 O1         -0.0480   -0.2320    0.1060 o         1 W22     -0.666500
      2 C9          1.1960   -0.1220    0.0370 c         1 W22      0.659500
      3 C10         2.0010   -0.1020    1.3600 c3        1 W22      0.148500
      4 C11         1.6730    1.2110    2.0810 c3        1 W22     -0.198400
      5 C12         2.2150    1.1730    3.5270 c         1 W22      0.924600
      6 O3          3.1590    1.9620    3.8220 o         1 W22     -0.844300
      7 O2          1.6760    0.3700    4.3380 o         1 W22     -0.844300
      8 N1          1.7630   -0.0050   -1.2350 n         1 W22     -0.493800
      9 C8          0.8960    0.1780   -2.3690 c3        1 W22      0.081300
     10 C7          3.1650   -0.1190   -1.5630 c3        1 W22      0.159300
     11 C4          4.0930    0.7860   -0.8100 ca        1 W22     -0.153300
     12 C5          4.1570    0.6620    0.5950 ca        1 W22      0.101600
     13 N2          3.4210   -0.3620    1.2630 nh        1 W22     -0.673600
     14 C3          4.8720    1.7380   -1.4670 ca        1 W22     -0.130000
     15 C2          5.6940    2.5900   -0.7320 ca        1 W22     -0.151000
     16 C1          5.7100    2.5150    0.6610 ca        1 W22     -0.134000
     17 C6          4.9390    1.5700    1.3350 ca        1 W22     -0.074000
     18 H10         1.5670   -0.9400    1.9930 h1        1 W22      0.112700
     19 H111        2.1120    2.0830    1.5380 hc        1 W22      0.045700
     20 H112        0.5600    1.3190    2.1160 hc        1 W22      0.045700
     21 H2          3.5830   -1.2440    0.8080 hn        1 W22      0.353800
     22 H81C        1.2160    1.0790   -2.9590 h1        1 W22      0.033033
     23 H82C        0.9380   -0.7220   -3.0420 h1        1 W22      0.033033
     24 H83C       -0.1660    0.3250   -2.0350 h1        1 W22      0.033033
     25 H71C        3.2860    0.0820   -2.6680 h1        1 W22      0.033200
     26 H72C        3.4910   -1.1910   -1.3950 h1        1 W22      0.033200
     27 HA          4.8270    1.8250   -2.5620 ha        1 W22      0.112000
     28 H6          4.8750    1.5590    2.4450 ha        1 W22      0.216000
     29 HB          6.3120    3.3350   -1.2500 ha        1 W22      0.113000
     30 H1          6.3230    3.2200    1.2410 ha        1 W22      0.127000
@<TRIPOS>BOND
     1    1    2 2   
     2    2    3 1   
     3    2    8 1   
     4    3    4 1   
     5    3   13 1   
     6    3   18 1   
     7    4    5 1   
     8    4   19 1   
     9    4   20 1   
    10    5    6 1   
    11    5    7 1   
    12    8    9 1   
    13    8   10 1   
    14    9   22 1   
    15    9   23 1   
    16    9   24 1   
    17   10   11 1   
    18   10   25 1   
    19   10   26 1   
    20   11   12 ar  
    21   11   14 ar  
    22   12   13 1   
    23   12   17 ar  
    24   13   21 1   
    25   14   15 ar  
    26   14   27 1   
    27   15   16 ar  
    28   15   29 1   
    29   16   17 ar  
    30   16   30 1   
    31   17   28 1   
@<TRIPOS>SUBSTRUCTURE
     1 W22         1 TEMP              0 ****  ****    0 ROOT
