@<TRIPOS>MOLECULE
W23
   28    29     1     0     0
SMALL
bcc


@<TRIPOS>ATOM
      1 CAA        -0.0310   -0.0610    0.0560 ca        1 W23     -0.023300
      2 CAB         1.3690   -0.0490    0.0150 ca        1 W23     -0.137300
      3 CAC        -0.6920   -0.0510    1.2880 ca        1 W23     -0.210000
      4 CAD        -0.8220   -0.1100   -1.2020 c3        1 W23     -0.060100
      5 CAE         2.1050   -0.0290    1.2070 ca        1 W23     -0.082000
      6 CAF         2.1250   -0.0400   -1.2800 c3        1 W23      0.272100
      7 CAG         1.4640   -0.0180    2.4370 ca        1 W23     -0.151000
      8 CAH         0.0570   -0.0300    2.4710 ca        1 W23      0.138100
      9 CAI        -0.0060    0.3780   -2.3990 c3        1 W23      0.216800
     10 CAJ         1.2380   -2.8920   -3.0940 c3        1 W23      0.565700
     11 FAK        -0.0970   -2.9910   -2.7950 f         1 W23     -0.240967
     12 FAL         1.8830   -3.3150   -1.9600 f         1 W23     -0.240967
     13 FAM         1.4660   -3.8710   -4.0220 f         1 W23     -0.240967
     14 NAN         1.3150   -0.2090   -2.4710 n3        1 W23     -0.815500
     15 OAO        -0.5230   -0.0160    3.7170 oh        1 W23     -0.492100
     16 OAP         3.1900   -1.1760   -3.7900 o         1 W23     -0.588300
     17 OAQ         1.0600   -0.8570   -4.8590 o         1 W23     -0.588300
     18 SAR         1.8060   -1.0710   -3.7050 s6        1 W23      1.382900
     19 HAC        -1.7900   -0.0650    1.3250 ha        1 W23      0.139000
     20 HAD        -1.1610   -1.1690   -1.3770 hc        1 W23      0.075700
     21 HADA       -1.7380    0.5320   -1.1180 hc        1 W23      0.075700
     22 HAE         3.2060   -0.0240    1.1670 ha        1 W23      0.140000
     23 HAF         2.6700    0.9480   -1.3630 h1        1 W23      0.071700
     24 HAFA        2.8970   -0.8680   -1.2560 h1        1 W23      0.071700
     25 HAG         2.0290   -0.0040    3.3790 ha        1 W23      0.157000
     26 HAI        -0.5660    0.1400   -3.3510 h1        1 W23      0.072200
     27 HAIA        0.1130    1.4980   -2.3310 h1        1 W23      0.072200
     28 HOAO       -1.4840   -0.0550    3.6020 ho        1 W23      0.422000
@<TRIPOS>BOND
     1    1    2 ar  
     2    1    3 ar  
     3    1    4 1   
     4    2    5 ar  
     5    2    6 1   
     6    3    8 ar  
     7    3   19 1   
     8    4    9 1   
     9    4   20 1   
    10    4   21 1   
    11    5    7 ar  
    12    5   22 1   
    13    6   14 1   
    14    6   23 1   
    15    6   24 1   
    16    7    8 ar  
    17    7   25 1   
    18    8   15 1   
    19    9   14 1   
    20    9   26 1   
    21    9   27 1   
    22   10   11 1   
    23   10   12 1   
    24   10   13 1   
    25   10   18 1   
    26   14   18 1   
    27   15   28 1   
    28   16   18 2   
    29   17   18 2   
@<TRIPOS>SUBSTRUCTURE
     1 W23         1 TEMP              0 ****  ****    0 ROOT
