@<TRIPOS>MOLECULE
W23
   28    29     1     0     0
SMALL
bcc


@<TRIPOS>ATOM
      1 CAA         1.9220   -0.1380   -0.7130 ca        1 W23     -0.023300
      2 CAB         1.5980   -0.6570    0.5470 ca        1 W23     -0.137300
      3 CAC         3.1840    0.4230   -0.9310 ca        1 W23     -0.210000
      4 CAD         0.9250   -0.1550   -1.8150 c3        1 W23     -0.060100
      5 CAE         2.5370   -0.6120    1.5860 ca        1 W23     -0.082000
      6 CAF         0.2660   -1.2850    0.8280 c3        1 W23      0.272100
      7 CAG         3.7940   -0.0590    1.3840 ca        1 W23     -0.151000
      8 CAH         4.1120    0.4600    0.1160 ca        1 W23      0.138100
      9 CAI        -0.1600   -1.2060   -1.5770 c3        1 W23      0.216800
     10 CAJ        -2.2230    1.0880    0.2110 c3        1 W23      0.565700
     11 FAK        -1.7100    1.7320   -0.8860 f         1 W23     -0.240967
     12 FAL        -1.4780    1.5460    1.2660 f         1 W23     -0.240967
     13 FAM        -3.4670    1.6310    0.3900 f         1 W23     -0.240967
     14 NAN        -0.7100   -1.1700   -0.2380 n3        1 W23     -0.815500
     15 OAO         5.3720    0.9920   -0.0270 oh        1 W23     -0.492100
     16 OAP        -2.6470   -1.3280    1.3150 o         1 W23     -0.588300
     17 OAQ        -3.0620   -1.1490   -1.0460 o         1 W23     -0.588300
     18 SAR        -2.2440   -0.9080    0.0530 s6        1 W23      1.382900
     19 HAC         3.4410    0.8350   -1.9180 ha        1 W23      0.139000
     20 HAD         0.4560    0.8650   -1.8970 hc        1 W23      0.075700
     21 HADA        1.4220   -0.3820   -2.7950 hc        1 W23      0.075700
     22 HAE         2.2730   -1.0180    2.5750 ha        1 W23      0.140000
     23 HAF         0.4320   -2.3850    1.0350 h1        1 W23      0.071700
     24 HAFA       -0.1700   -0.8130    1.7600 h1        1 W23      0.071700
     25 HAG         4.5380   -0.0170    2.1910 ha        1 W23      0.157000
     26 HAI        -0.9940   -1.0540   -2.3220 h1        1 W23      0.072200
     27 HAIA        0.2800   -2.2320   -1.7450 h1        1 W23      0.072200
     28 HOAO        5.4530    1.3370   -0.9280 ho        1 W23      0.422000
@<TRIPOS>BOND
     1    1    2 ar  
     2    1    3 ar  
     3    1    4 1   
     4    2    5 ar  
     5    2    6 1   
     6    3    8 ar  
     7    3   19 1   
     8    4    9 1   
     9    4   20 1   
    10    4   21 1   
    11    5    7 ar  
    12    5   22 1   
    13    6   14 1   
    14    6   23 1   
    15    6   24 1   
    16    7    8 ar  
    17    7   25 1   
    18    8   15 1   
    19    9   14 1   
    20    9   26 1   
    21    9   27 1   
    22   10   11 1   
    23   10   12 1   
    24   10   13 1   
    25   10   18 1   
    26   14   18 1   
    27   15   28 1   
    28   16   18 2   
    29   17   18 2   
@<TRIPOS>SUBSTRUCTURE
     1 W23         1 TEMP              0 ****  ****    0 ROOT
