@<TRIPOS>MOLECULE
W23
   28    29     1     0     0
SMALL
bcc


@<TRIPOS>ATOM
      1 CAA        -0.0290   -0.0610    0.0580 ca        1 W23     -0.023300
      2 CAB         1.3710   -0.0510    0.0150 ca        1 W23     -0.137300
      3 CAC        -0.6880   -0.0530    1.2910 ca        1 W23     -0.210000
      4 CAD        -0.8220   -0.1060   -1.1990 c3        1 W23     -0.060100
      5 CAE         2.1090   -0.0350    1.2060 ca        1 W23     -0.082000
      6 CAF         2.1250   -0.0410   -1.2810 c3        1 W23      0.272100
      7 CAG         1.4680   -0.0260    2.4370 ca        1 W23     -0.151000
      8 CAH         0.0620   -0.0360    2.4730 ca        1 W23      0.138100
      9 CAI        -0.0070    0.3820   -2.3970 c3        1 W23      0.216800
     10 CAJ         1.2310   -2.8880   -3.0990 c3        1 W23      0.565700
     11 FAK        -0.1040   -2.9850   -2.7990 f         1 W23     -0.240967
     12 FAL         1.8760   -3.3150   -1.9670 f         1 W23     -0.240967
     13 FAM         1.4570   -3.8660   -4.0290 f         1 W23     -0.240967
     14 NAN         1.3140   -0.2070   -2.4720 n3        1 W23     -0.815500
     15 OAO        -0.5170   -0.0230    3.7190 oh        1 W23     -0.492100
     16 OAP         3.1860   -1.1750   -3.7940 o         1 W23     -0.588300
     17 OAQ         1.0550   -0.8500   -4.8600 o         1 W23     -0.588300
     18 SAR         1.8020   -1.0680   -3.7070 s6        1 W23      1.382900
     19 HAC        -1.7870   -0.0650    1.3290 ha        1 W23      0.139000
     20 HAD        -1.7360    0.5380   -1.1130 hc        1 W23      0.075700
     21 HADA       -1.1630   -1.1640   -1.3760 hc        1 W23      0.075700
     22 HAE         3.2090   -0.0320    1.1640 ha        1 W23      0.140000
     23 HAF         2.6710    0.9470   -1.3630 h1        1 W23      0.071700
     24 HAFA        2.8970   -0.8700   -1.2600 h1        1 W23      0.071700
     25 HAG         2.0350   -0.0150    3.3780 ha        1 W23      0.157000
     26 HAI        -0.5680    0.1470   -3.3480 h1        1 W23      0.072200
     27 HAIA        0.1150    1.5020   -2.3260 h1        1 W23      0.072200
     28 HOAO       -1.4780   -0.0600    3.6050 ho        1 W23      0.422000
@<TRIPOS>BOND
     1    1    2 ar  
     2    1    3 ar  
     3    1    4 1   
     4    2    5 ar  
     5    2    6 1   
     6    3    8 ar  
     7    3   19 1   
     8    4    9 1   
     9    4   20 1   
    10    4   21 1   
    11    5    7 ar  
    12    5   22 1   
    13    6   14 1   
    14    6   23 1   
    15    6   24 1   
    16    7    8 ar  
    17    7   25 1   
    18    8   15 1   
    19    9   14 1   
    20    9   26 1   
    21    9   27 1   
    22   10   11 1   
    23   10   12 1   
    24   10   13 1   
    25   10   18 1   
    26   14   18 1   
    27   15   28 1   
    28   16   18 2   
    29   17   18 2   
@<TRIPOS>SUBSTRUCTURE
     1 W23         1 TEMP              0 ****  ****    0 ROOT
