@<TRIPOS>MOLECULE
W23
   28    29     1     0     0
SMALL
bcc


@<TRIPOS>ATOM
      1 CAA        -0.0330   -0.0640    0.0560 ca        1 W23     -0.023300
      2 CAB         1.3670   -0.0510    0.0170 ca        1 W23     -0.137300
      3 CAC        -0.6960   -0.0580    1.2870 ca        1 W23     -0.210000
      4 CAD        -0.8210   -0.1090   -1.2040 c3        1 W23     -0.060100
      5 CAE         2.1010   -0.0340    1.2110 ca        1 W23     -0.082000
      6 CAF         2.1260   -0.0380   -1.2760 c3        1 W23      0.272100
      7 CAG         1.4570   -0.0280    2.4400 ca        1 W23     -0.151000
      8 CAH         0.0500   -0.0400    2.4710 ca        1 W23      0.138100
      9 CAI        -0.0030    0.3820   -2.3980 c3        1 W23      0.216800
     10 CAJ         1.2430   -2.8850   -3.0990 c3        1 W23      0.565700
     11 FAK        -0.0930   -2.9850   -2.8040 f         1 W23     -0.240967
     12 FAL         1.8850   -3.3120   -1.9660 f         1 W23     -0.240967
     13 FAM         1.4740   -3.8620   -4.0290 f         1 W23     -0.240967
     14 NAN         1.3190   -0.2040   -2.4690 n3        1 W23     -0.815500
     15 OAO        -0.5330   -0.0300    3.7160 oh        1 W23     -0.492100
     16 OAP         3.1970   -1.1680   -3.7860 o         1 W23     -0.588300
     17 OAQ         1.0690   -0.8450   -4.8590 o         1 W23     -0.588300
     18 SAR         1.8130   -1.0630   -3.7040 s6        1 W23      1.382900
     19 HAC        -1.7940   -0.0710    1.3210 ha        1 W23      0.139000
     20 HAD        -1.7370    0.5330   -1.1200 hc        1 W23      0.075700
     21 HADA       -1.1600   -1.1670   -1.3830 hc        1 W23      0.075700
     22 HAE         3.2020   -0.0290    1.1730 ha        1 W23      0.140000
     23 HAF         2.8990   -0.8660   -1.2530 h1        1 W23      0.071700
     24 HAFA        2.6710    0.9510   -1.3550 h1        1 W23      0.071700
     25 HAG         2.0210   -0.0160    3.3830 ha        1 W23      0.157000
     26 HAI         0.1160    1.5020   -2.3260 h1        1 W23      0.072200
     27 HAIA       -0.5610    0.1470   -3.3520 h1        1 W23      0.072200
     28 HOAO       -1.4940   -0.0690    3.5990 ho        1 W23      0.422000
@<TRIPOS>BOND
     1    1    2 ar  
     2    1    3 ar  
     3    1    4 1   
     4    2    5 ar  
     5    2    6 1   
     6    3    8 ar  
     7    3   19 1   
     8    4    9 1   
     9    4   20 1   
    10    4   21 1   
    11    5    7 ar  
    12    5   22 1   
    13    6   14 1   
    14    6   23 1   
    15    6   24 1   
    16    7    8 ar  
    17    7   25 1   
    18    8   15 1   
    19    9   14 1   
    20    9   26 1   
    21    9   27 1   
    22   10   11 1   
    23   10   12 1   
    24   10   13 1   
    25   10   18 1   
    26   14   18 1   
    27   15   28 1   
    28   16   18 2   
    29   17   18 2   
@<TRIPOS>SUBSTRUCTURE
     1 W23         1 TEMP              0 ****  ****    0 ROOT
