@<TRIPOS>MOLECULE
W23
   28    26     1     0     0
SMALL
bcc


@<TRIPOS>ATOM
      1 CAA        -1.0640   -0.0800    1.1310 c1        1 W23      0.005900
      2 CAB         0.4050    0.0310    1.1130 c1        1 W23     -0.099100
      3 CAC        -1.7340   -0.1550    2.3370 c1        1 W23     -0.154500
      4 CAD        -1.7880   -0.0490   -0.2090 c3        1 W23     -0.084300
      5 CAE         1.1040    0.0590    2.2910 c1        1 W23     -0.026500
      6 CAF         1.1330   -0.0080   -0.3110 c3        1 W23      0.230900
      7 CAG         0.4200   -0.0170    3.5150 c1        1 W23     -0.092500
      8 CAH        -1.0200   -0.1260    3.5330 c1        1 W23      0.120600
      9 CAI        -0.9620    0.2550   -1.3820 c3        1 W23      0.216800
     10 CAJ         1.6290    0.5410   -3.7650 c3        1 W23      0.568700
     11 FAK         0.9950    1.7170   -3.3590 f         1 W23     -0.241967
     12 FAL         1.3830    0.3260   -5.0840 f         1 W23     -0.241967
     13 FAM         2.9620    0.6550   -3.5670 f         1 W23     -0.241967
     14 NAN         0.3350   -0.2610   -1.3940 n3        1 W23     -0.822500
     15 OAO        -1.6590   -0.2360    4.8380 oh        1 W23     -0.475600
     16 OAP         0.0670   -1.6010   -3.5860 o         1 W23     -0.588800
     17 OAQ         2.0200   -1.7640   -2.5720 o         1 W23     -0.588800
     18 SAR         1.0110   -0.8140   -2.8220 s6        1 W23      1.391900
     19 HAC        -2.6510   -0.2230    2.3510 ha        1 W23      0.080500
     20 HAD        -2.2060   -0.9660   -0.3520 hc        1 W23      0.068700
     21 HADA       -2.4880    0.6470   -0.1520 hc        1 W23      0.068700
     22 HAE         2.0690    0.1340    2.2800 ha        1 W23      0.084500
     23 HAF         1.8190   -0.7170   -0.2750 h1        1 W23      0.076200
     24 HAFA        1.5370    0.8430   -0.4480 h1        1 W23      0.076200
     25 HAG         0.9490    0.0020    4.4030 ha        1 W23      0.100500
     26 HAI        -1.4130   -0.0680   -2.1530 h1        1 W23      0.073200
     27 HAIA       -0.8920    1.2920   -1.4590 h1        1 W23      0.073200
     28 HOAO       -1.9590    0.5840    5.1000 ho        1 W23      0.422000
@<TRIPOS>BOND
     1    1    3 3   
     2    1    4 1   
     3    2    5 3   
     4    2    6 1   
     5    3   19 1   
     6    4    9 1   
     7    4   20 1   
     8    4   21 1   
     9    5   22 1   
    10    6   14 1   
    11    6   23 1   
    12    6   24 1   
    13    7    8 3   
    14    7   25 1   
    15    8   15 1   
    16    9   14 1   
    17    9   26 1   
    18    9   27 1   
    19   10   11 1   
    20   10   12 1   
    21   10   13 1   
    22   10   18 1   
    23   14   18 1   
    24   15   28 1   
    25   16   18 2   
    26   17   18 2   
@<TRIPOS>SUBSTRUCTURE
     1 W23         1 TEMP              0 ****  ****    0 ROOT
