@<TRIPOS>MOLECULE
W29
   27    28     1     0     0
SMALL
bcc


@<TRIPOS>ATOM
      1 O2         -0.1250   -0.1870    0.3000 oh        1 W29     -0.516100
      2 C10         1.2460   -0.1130    0.1560 ca        1 W29      0.041100
      3 C05         1.9980   -0.0950    1.3510 ca        1 W29      0.111100
      4 O1          1.4200   -0.1470    2.5970 oh        1 W29     -0.494100
      5 C03         3.3940   -0.0210    1.2940 ca        1 W29     -0.126000
      6 C06         1.8910   -0.0590   -1.0810 ca        1 W29     -0.171000
      7 C04         3.2810    0.0140   -1.1300 ca        1 W29     -0.114000
      8 C01         4.0390    0.0330    0.0500 ca        1 W29     -0.003000
      9 C02         5.4830    0.0970   -0.0100 cc        1 W29     -0.069100
     10 S           6.4470   -1.0370    0.7860 ss        1 W29      0.026200
     11 C07         7.8760   -0.3580    0.2670 cc        1 W29     -0.169100
     12 C09         7.6610    0.7470   -0.5230 cd        1 W29     -0.154000
     13 C08         6.2620    1.0230   -0.6890 cd        1 W29     -0.088300
     14 C11         5.7680    2.1600   -1.4920 c3        1 W29     -0.021100
     15 C12         6.2780    3.4880   -0.9850 c3        1 W29     -0.088100
     16 HO2        -0.5150   -0.1900   -0.5860 ho        1 W29      0.429000
     17 HO1         0.4580   -0.1870    2.4780 ho        1 W29      0.437000
     18 H03         3.9680   -0.0010    2.2320 ha        1 W29      0.158000
     19 H06         1.3040   -0.0750   -2.0100 ha        1 W29      0.136000
     20 H04         3.7920    0.0520   -2.1040 ha        1 W29      0.143000
     21 H07         8.8520   -0.7610    0.5350 h4        1 W29      0.171000
     22 H09         8.4390    1.3610   -0.9800 ha        1 W29      0.154000
     23 H11         6.0960    2.0180   -2.5590 hc        1 W29      0.049700
     24 H11A        4.6440    2.1680   -1.4870 hc        1 W29      0.049700
     25 H12         7.3950    3.5110   -0.9880 hc        1 W29      0.036033
     26 H12A        5.9040    4.3140   -1.6360 hc        1 W29      0.036033
     27 H12B        5.9260    3.6730    0.0590 hc        1 W29      0.036033
@<TRIPOS>BOND
     1    1    2 1   
     2    1   16 1   
     3    2    3 ar  
     4    2    6 ar  
     5    3    4 1   
     6    3    5 ar  
     7    4   17 1   
     8    5    8 ar  
     9    5   18 1   
    10    6    7 ar  
    11    6   19 1   
    12    7    8 ar  
    13    7   20 1   
    14    8    9 1   
    15    9   10 1   
    16    9   13 2   
    17   10   11 1   
    18   11   12 2   
    19   11   21 1   
    20   12   13 1   
    21   12   22 1   
    22   13   14 1   
    23   14   15 1   
    24   14   23 1   
    25   14   24 1   
    26   15   25 1   
    27   15   26 1   
    28   15   27 1   
@<TRIPOS>SUBSTRUCTURE
     1 W29         1 TEMP              0 ****  ****    0 ROOT
