@<TRIPOS>MOLECULE
W29
   27    28     1     0     0
SMALL
bcc


@<TRIPOS>ATOM
      1 O2         -0.1750   -0.2680    0.1100 oh        1 W29     -0.473100
      2 C10         1.1940   -0.1730    0.0300 ca        1 W29      0.105100
      3 C05         1.9100   -0.1040    1.2490 ca        1 W29      0.101100
      4 O1          1.1720   -0.1400    2.4090 oh        1 W29     -0.475100
      5 C03         3.3020   -0.0070    1.2350 ca        1 W29     -0.177000
      6 C06         1.8910   -0.1410   -1.1810 ca        1 W29     -0.187000
      7 C04         3.2810   -0.0430   -1.1860 ca        1 W29     -0.108000
      8 C01         3.9970    0.0240    0.0150 ca        1 W29     -0.004000
      9 C02         5.4400    0.1140    0.0090 cc        1 W29     -0.066100
     10 S           6.3940   -0.9910    0.8550 ss        1 W29      0.014200
     11 C07         7.8300   -0.2900    0.3830 cc        1 W29     -0.166100
     12 C09         7.6230    0.8000   -0.4300 cd        1 W29     -0.153000
     13 C08         6.2260    1.0450   -0.6540 cd        1 W29     -0.088300
     14 C11         5.7420    2.1610   -1.4930 c3        1 W29     -0.021100
     15 C12         6.1920    3.5070   -0.9770 c3        1 W29     -0.087100
     16 HO2        -0.5180   -0.3080   -0.7950 ho        1 W29      0.415000
     17 HO1         1.7910   -0.0650    3.1510 ho        1 W29      0.415000
     18 H03         3.8560    0.0520    2.1840 ha        1 W29      0.142000
     19 H06         1.3390   -0.1950   -2.1310 ha        1 W29      0.137000
     20 H04         3.8230   -0.0230   -2.1440 ha        1 W29      0.143000
     21 H07         8.8020   -0.6700    0.6930 h4        1 W29      0.171000
     22 H09         8.4060    1.4230   -0.8660 ha        1 W29      0.154000
     23 H11         6.1250    2.0160   -2.5410 hc        1 W29      0.050700
     24 H11A        4.6190    2.1380   -1.5420 hc        1 W29      0.050700
     25 H12         7.3060    3.5580   -0.9240 hc        1 W29      0.036033
     26 H12A        5.8300    4.3150   -1.6580 hc        1 W29      0.036033
     27 H12B        5.7830    3.6950    0.0450 hc        1 W29      0.036033
@<TRIPOS>BOND
     1    1    2 1   
     2    1   16 1   
     3    2    3 ar  
     4    2    6 ar  
     5    3    4 1   
     6    3    5 ar  
     7    4   17 1   
     8    5    8 ar  
     9    5   18 1   
    10    6    7 ar  
    11    6   19 1   
    12    7    8 ar  
    13    7   20 1   
    14    8    9 1   
    15    9   10 1   
    16    9   13 2   
    17   10   11 1   
    18   11   12 2   
    19   11   21 1   
    20   12   13 1   
    21   12   22 1   
    22   13   14 1   
    23   14   15 1   
    24   14   23 1   
    25   14   24 1   
    26   15   25 1   
    27   15   26 1   
    28   15   27 1   
@<TRIPOS>SUBSTRUCTURE
     1 W29         1 TEMP              0 ****  ****    0 ROOT
