@<TRIPOS>MOLECULE
W29
   27    28     1     0     0
SMALL
bcc


@<TRIPOS>ATOM
      1 O2         -4.4390    0.1660    0.7060 oh        1 W29     -0.516100
      2 C10        -3.0620    0.1300    0.6110 ca        1 W29      0.041100
      3 C05        -2.4780    1.0080   -0.3280 ca        1 W29      0.111100
      4 O1         -3.2180    1.8600   -1.1130 oh        1 W29     -0.494100
      5 C03        -1.0880    1.0340   -0.4870 ca        1 W29     -0.126000
      6 C06        -2.2560   -0.7120    1.3810 ca        1 W29     -0.171000
      7 C04        -0.8740   -0.6800    1.2180 ca        1 W29     -0.114000
      8 C01        -0.2820    0.1880    0.2880 ca        1 W29     -0.003000
      9 C02         1.1560    0.2230    0.1340 cc        1 W29     -0.069100
     10 S           2.0180    1.6670    0.2600 ss        1 W29      0.026200
     11 C07         3.4960    0.9430    0.0020 cc        1 W29     -0.169100
     12 C09         3.3740   -0.4140   -0.1870 cd        1 W29     -0.154000
     13 C08         2.0070   -0.8450   -0.1140 cd        1 W29     -0.088300
     14 C11         1.6110   -2.2580   -0.2870 c3        1 W29     -0.021100
     15 C12         2.0300   -2.8140   -1.6270 c3        1 W29     -0.088100
     16 HO2        -4.7050   -0.4790    1.3760 ho        1 W29      0.429000
     17 HO1        -4.1550    1.7240   -0.8990 ho        1 W29      0.437000
     18 H03        -0.6460    1.7180   -1.2260 ha        1 W29      0.158000
     19 H06        -2.7130   -1.3940    2.1120 ha        1 W29      0.136000
     20 H04        -0.2370   -1.3390    1.8270 ha        1 W29      0.143000
     21 H07         4.4310    1.5000   -0.0090 h4        1 W29      0.171000
     22 H09         4.1990   -1.1040   -0.3740 ha        1 W29      0.154000
     23 H11         2.0810   -2.8670    0.5330 hc        1 W29      0.049700
     24 H11A        0.4960   -2.3550   -0.1770 hc        1 W29      0.049700
     25 H12         3.1360   -2.7370   -1.7590 hc        1 W29      0.036033
     26 H12A        1.7360   -3.8890   -1.7020 hc        1 W29      0.036033
     27 H12B        1.5380   -2.2530   -2.4580 hc        1 W29      0.036033
@<TRIPOS>BOND
     1    1    2 1   
     2    1   16 1   
     3    2    3 ar  
     4    2    6 ar  
     5    3    4 1   
     6    3    5 ar  
     7    4   17 1   
     8    5    8 ar  
     9    5   18 1   
    10    6    7 ar  
    11    6   19 1   
    12    7    8 ar  
    13    7   20 1   
    14    8    9 1   
    15    9   10 1   
    16    9   13 2   
    17   10   11 1   
    18   11   12 2   
    19   11   21 1   
    20   12   13 1   
    21   12   22 1   
    22   13   14 1   
    23   14   15 1   
    24   14   23 1   
    25   14   24 1   
    26   15   25 1   
    27   15   26 1   
    28   15   27 1   
@<TRIPOS>SUBSTRUCTURE
     1 W29         1 TEMP              0 ****  ****    0 ROOT
