@<TRIPOS>MOLECULE
W2C
   53    55     1     0     0
SMALL
bcc


@<TRIPOS>ATOM
      1 C27        11.9220    0.0610   -1.6490 cg        1 W2C      0.214800
      2 C9         -0.0730   -0.8030    0.2640 c2        1 W2C      0.381200
      3 C23         9.7030   -0.2170   -2.6390 ca        1 W2C     -0.089000
      4 C25         9.9710   -0.3390   -0.2300 ca        1 W2C     -0.089000
      5 C22         8.3350   -0.4340   -2.4950 ca        1 W2C     -0.117000
      6 C26         8.6040   -0.5600   -0.0920 ca        1 W2C     -0.117000
      7 C2          5.8570   -1.7590   -0.1310 ca        1 W2C     -0.111000
      8 C4          5.4190   -0.1470   -1.8790 ca        1 W2C     -0.111000
      9 C1          4.4900   -1.9840    0.0020 ca        1 W2C     -0.129000
     10 C5          4.0520   -0.3740   -1.7460 ca        1 W2C     -0.129000
     11 C24        10.5260   -0.1660   -1.5060 ca        1 W2C      0.011000
     12 C21         7.7730   -0.6070   -1.2210 cp        1 W2C     -0.049000
     13 C3          6.3380   -0.8370   -1.0730 cp        1 W2C     -0.002000
     14 C6          3.5760   -1.2920   -0.8020 ca        1 W2C     -0.158300
     15 C12         1.6740    0.8450    2.3080 c         1 W2C      0.550100
     16 C17         3.4180    1.3950    6.2330 c3        1 W2C     -0.153400
     17 C15         1.8630    2.1990    4.4090 c3        1 W2C     -0.102400
     18 C18         3.5760    0.0820    5.4660 c3        1 W2C      0.149800
     19 C14         2.0250    0.8040    3.7900 c3        1 W2C      0.086500
     20 C16         2.0870    2.0750    5.9190 c3        1 W2C      0.142100
     21 C7          2.1190   -1.5580   -0.6840 c3        1 W2C     -0.048100
     22 C8          1.4170   -0.4900    0.1660 c3        1 W2C      0.015200
     23 N28        13.0640    0.2470   -1.7650 n1        1 W2C     -0.324800
     24 N10        -1.0370    0.0150    0.3630 n2        1 W2C     -0.672100
     25 N19         3.3290    0.1900    4.0330 n3        1 W2C     -0.814200
     26 N11         2.0340   -0.4020    1.5340 n4        1 W2C     -0.668800
     27 O13         1.0950    1.7350    1.7070 o         1 W2C     -0.423100
     28 O20         0.9980    1.3030    6.4110 oh        1 W2C     -0.611800
     29 H9         -0.3120   -1.8880    0.2040 h4        1 W2C      0.049800
     30 H8          1.5780    0.5200   -0.3240 hx        1 W2C      0.120700
     31 H10        -0.8390    0.9950    0.4010 hn        1 W2C      0.417400
     32 H25        10.6180   -0.3010    0.6610 ha        1 W2C      0.157000
     33 H26         8.1750   -0.6940    0.9120 ha        1 W2C      0.140000
     34 H2          6.5690   -2.3260    0.4900 ha        1 W2C      0.156500
     35 H1          4.1350   -2.7440    0.7160 ha        1 W2C      0.138500
     36 H4          5.7830    0.5770   -2.6270 ha        1 W2C      0.156500
     37 H5          3.3440    0.1610   -2.3990 ha        1 W2C      0.138500
     38 H71C        1.6350   -1.5340   -1.7000 hc        1 W2C      0.092200
     39 H72C        1.9370   -2.5800   -0.2540 hc        1 W2C      0.092200
     40 H14         1.2390    0.1350    4.2760 h1        1 W2C      0.138700
     41 H11         3.0620   -0.4370    1.4240 hn        1 W2C      0.471800
     42 H171        3.4770    1.1760    7.3310 hc        1 W2C      0.072700
     43 H172        4.2540    2.0970    5.9790 hc        1 W2C      0.072700
     44 H181        2.8510   -0.6740    5.8840 h1        1 W2C      0.081200
     45 H182        4.6200   -0.3160    5.6010 h1        1 W2C      0.081200
     46 H16         2.0680    3.1030    6.3790 h1        1 W2C      0.068700
     47 H151        2.6000    2.9220    3.9790 hc        1 W2C      0.084200
     48 H152        0.8280    2.5810    4.2110 hc        1 W2C      0.084200
     49 H19         4.0470    0.7650    3.6210 hn        1 W2C      0.358800
     50 H20         1.0040    1.3800    7.3730 ho        1 W2C      0.426000
     51 H23        10.1370   -0.0870   -3.6430 ha        1 W2C      0.157000
     52 H112        1.7560   -1.2180    2.0910 hn        1 W2C      0.471800
     53 H22         7.6950   -0.4830   -3.3900 ha        1 W2C      0.140000
@<TRIPOS>BOND
     1    1   11 1   
     2    1   23 3   
     3    2   22 1   
     4    2   24 2   
     5    2   29 1   
     6    3    5 ar  
     7    3   11 ar  
     8    3   51 1   
     9    4    6 ar  
    10    4   11 ar  
    11    4   32 1   
    12    5   12 ar  
    13    5   53 1   
    14    6   12 ar  
    15    6   33 1   
    16    7    9 ar  
    17    7   13 ar  
    18    7   34 1   
    19    8   10 ar  
    20    8   13 ar  
    21    8   36 1   
    22    9   14 ar  
    23    9   35 1   
    24   10   14 ar  
    25   10   37 1   
    26   12   13 1   
    27   14   21 1   
    28   15   19 1   
    29   15   26 1   
    30   15   27 2   
    31   16   18 1   
    32   16   20 1   
    33   16   42 1   
    34   16   43 1   
    35   17   19 1   
    36   17   20 1   
    37   17   47 1   
    38   17   48 1   
    39   18   25 1   
    40   18   44 1   
    41   18   45 1   
    42   19   25 1   
    43   19   40 1   
    44   20   28 1   
    45   20   46 1   
    46   21   22 1   
    47   21   38 1   
    48   21   39 1   
    49   22   26 1   
    50   22   30 1   
    51   24   31 1   
    52   25   49 1   
    53   26   41 1   
    54   26   52 1   
    55   28   50 1   
@<TRIPOS>SUBSTRUCTURE
     1 W2C         1 TEMP              0 ****  ****    0 ROOT
