@<TRIPOS>MOLECULE
W2C
   53    55     1     0     0
SMALL
bcc


@<TRIPOS>ATOM
      1 C27        11.5520   -2.1230   -0.1490 cg        1 W2C      0.213800
      2 C9         -0.3640    0.4350   -0.2660 c2        1 W2C      0.381200
      3 C23         9.5210   -1.8170   -1.4780 ca        1 W2C     -0.089000
      4 C25         9.3750   -1.9150    0.9430 ca        1 W2C     -0.089000
      5 C22         8.1410   -1.6440   -1.5510 ca        1 W2C     -0.117000
      6 C26         7.9960   -1.7450    0.8630 ca        1 W2C     -0.117000
      7 C2          5.0630   -2.1350    0.3930 ca        1 W2C     -0.112500
      8 C4          5.3620   -0.5480   -1.4070 ca        1 W2C     -0.112500
      9 C1          3.6830   -1.9720    0.3070 ca        1 W2C     -0.129000
     10 C5          3.9820   -0.3880   -1.4940 ca        1 W2C     -0.129000
     11 C24        10.1440   -1.9510   -0.2290 ca        1 W2C      0.012000
     12 C21         7.3670   -1.6050   -0.3820 cp        1 W2C     -0.049000
     13 C3          5.9190   -1.4250   -0.4630 cp        1 W2C     -0.003000
     14 C6          3.1310   -1.0960   -0.6360 ca        1 W2C     -0.157300
     15 C12         1.6080    1.8150    1.9010 c         1 W2C      0.539100
     16 C17         4.2500    0.8540    5.1040 c3        1 W2C     -0.123400
     17 C15         3.7810    2.1300    3.0170 c3        1 W2C     -0.083400
     18 C18         2.7530    0.6900    5.3280 c3        1 W2C      0.164800
     19 C14         2.2750    1.9580    3.2780 c3        1 W2C      0.118500
     20 C16         4.5430    2.1390    4.3390 c3        1 W2C      0.145100
     21 C7          1.6570   -0.9560   -0.7580 c3        1 W2C     -0.050100
     22 C8          1.1530    0.3430   -0.1160 c3        1 W2C      0.017200
     23 N28        12.7050   -2.2630   -0.0830 n1        1 W2C     -0.323800
     24 N10        -1.0830    1.4770   -0.3420 n2        1 W2C     -0.672100
     25 N19         1.9330    0.8320    4.1330 n3        1 W2C     -0.848200
     26 N11         1.5500    0.4200    1.3330 n4        1 W2C     -0.665800
     27 O13         1.1570    2.7250    1.2240 o         1 W2C     -0.425100
     28 O20         4.0930    3.2820    5.0510 oh        1 W2C     -0.603800
     29 H9         -0.8670   -0.5530   -0.3510 h4        1 W2C      0.049800
     30 H8          1.6530    1.2180   -0.6350 hx        1 W2C      0.117700
     31 H10        -0.6460    2.3750   -0.2840 hn        1 W2C      0.419400
     32 H25         9.8630   -2.0230    1.9250 ha        1 W2C      0.157000
     33 H26         7.3990   -1.7180    1.7870 ha        1 W2C      0.139500
     34 H2          5.4860   -2.8470    1.1200 ha        1 W2C      0.156500
     35 H1          3.0270   -2.5700    0.9570 ha        1 W2C      0.139500
     36 H4          6.0210    0.0130   -2.0890 ha        1 W2C      0.156500
     37 H5          3.5580    0.2860   -2.2550 ha        1 W2C      0.139500
     38 H71C        1.1360   -1.8420   -0.3050 hc        1 W2C      0.092700
     39 H72C        1.3600   -0.9160   -1.8440 hc        1 W2C      0.092700
     40 H14         1.8920    2.9470    3.6940 h1        1 W2C      0.121700
     41 H11         0.8880   -0.1290    1.8950 hn        1 W2C      0.471800
     42 H171        4.7550    0.8790    6.1040 hc        1 W2C      0.070700
     43 H172        4.6640   -0.0160    4.5320 hc        1 W2C      0.070700
     44 H181        2.4430    1.4380    6.1170 h1        1 W2C      0.065700
     45 H182        2.5460   -0.3460    5.7250 h1        1 W2C      0.065700
     46 H16         5.6470    2.2260    4.1330 h1        1 W2C      0.066700
     47 H151        4.1810    1.2960    2.3860 hc        1 W2C      0.072700
     48 H152        3.9410    3.1030    2.4830 hc        1 W2C      0.072700
     49 H19         0.9710    0.9220    4.4200 hn        1 W2C      0.378800
     50 H20         4.6680    3.3860    5.8200 ho        1 W2C      0.426000
     51 H23        10.1220   -1.8520   -2.4000 ha        1 W2C      0.157000
     52 H112        2.4840   -0.0110    1.4440 hn        1 W2C      0.471800
     53 H22         7.6580   -1.5500   -2.5350 ha        1 W2C      0.139500
@<TRIPOS>BOND
     1    1   11 1   
     2    1   23 3   
     3    2   22 1   
     4    2   24 2   
     5    2   29 1   
     6    3    5 ar  
     7    3   11 ar  
     8    3   51 1   
     9    4    6 ar  
    10    4   11 ar  
    11    4   32 1   
    12    5   12 ar  
    13    5   53 1   
    14    6   12 ar  
    15    6   33 1   
    16    7    9 ar  
    17    7   13 ar  
    18    7   34 1   
    19    8   10 ar  
    20    8   13 ar  
    21    8   36 1   
    22    9   14 ar  
    23    9   35 1   
    24   10   14 ar  
    25   10   37 1   
    26   12   13 1   
    27   14   21 1   
    28   15   19 1   
    29   15   26 1   
    30   15   27 2   
    31   16   18 1   
    32   16   20 1   
    33   16   42 1   
    34   16   43 1   
    35   17   19 1   
    36   17   20 1   
    37   17   47 1   
    38   17   48 1   
    39   18   25 1   
    40   18   44 1   
    41   18   45 1   
    42   19   25 1   
    43   19   40 1   
    44   20   28 1   
    45   20   46 1   
    46   21   22 1   
    47   21   38 1   
    48   21   39 1   
    49   22   26 1   
    50   22   30 1   
    51   24   31 1   
    52   25   49 1   
    53   26   41 1   
    54   26   52 1   
    55   28   50 1   
@<TRIPOS>SUBSTRUCTURE
     1 W2C         1 TEMP              0 ****  ****    0 ROOT
