@<TRIPOS>MOLECULE
W2C
   53    55     1     0     0
SMALL
bcc


@<TRIPOS>ATOM
      1 C27        11.4880   -2.2370   -0.2200 cg        1 W2C      0.213800
      2 C9         -0.3440    0.6870   -0.2710 c2        1 W2C      0.381200
      3 C23         9.4760   -1.8010   -1.5420 ca        1 W2C     -0.089000
      4 C25         9.3090   -2.0200    0.8700 ca        1 W2C     -0.089000
      5 C22         8.1030   -1.5820   -1.6140 ca        1 W2C     -0.117000
      6 C26         7.9370   -1.8040    0.7910 ca        1 W2C     -0.117000
      7 C2          4.9970   -2.0800    0.2830 ca        1 W2C     -0.112500
      8 C4          5.3560   -0.4110   -1.4290 ca        1 W2C     -0.112500
      9 C1          3.6240   -1.8700    0.1980 ca        1 W2C     -0.129000
     10 C5          3.9830   -0.2040   -1.5150 ca        1 W2C     -0.129000
     11 C24        10.0850   -2.0180   -0.2980 ca        1 W2C      0.012000
     12 C21         7.3210   -1.5800   -0.4500 cp        1 W2C     -0.049000
     13 C3          5.8800   -1.3520   -0.5290 cp        1 W2C     -0.003000
     14 C6          3.1050   -0.9290   -0.7010 ca        1 W2C     -0.157300
     15 C12         1.6530    1.8920    1.9760 c         1 W2C      0.539100
     16 C17         4.2390    0.6850    5.1410 c3        1 W2C     -0.123400
     17 C15         3.8250    2.0800    3.1200 c3        1 W2C     -0.083400
     18 C18         2.7360    0.5550    5.3480 c3        1 W2C      0.164800
     19 C14         2.3130    1.9430    3.3630 c3        1 W2C      0.118500
     20 C16         4.5770    1.9980    4.4460 c3        1 W2C      0.145100
     21 C7          1.6360   -0.7380   -0.8240 c3        1 W2C     -0.050100
     22 C8          1.1670    0.5410   -0.1170 c3        1 W2C      0.017200
     23 N28        12.6350   -2.4160   -0.1540 n1        1 W2C     -0.323800
     24 N10        -1.0310    1.7530   -0.2970 n2        1 W2C     -0.672100
     25 N19         1.9300    0.7850    4.1560 n7        1 W2C     -0.848200
     26 N11         1.5570    0.5300    1.3360 ny        1 W2C     -0.665800
     27 O13         1.2340    2.8490    1.3450 o         1 W2C     -0.425100
     28 O20         4.1560    3.1160    5.2140 oh        1 W2C     -0.603800
     29 H9         -0.8770   -0.2790   -0.4100 h4        1 W2C      0.049800
     30 H8          1.6980    1.4260   -0.5870 hx        1 W2C      0.117700
     31 H10        -0.5670    2.6330   -0.1900 hn        1 W2C      0.419400
     32 H25         9.7870   -2.1940    1.8470 ha        1 W2C      0.157000
     33 H26         7.3340   -1.8070    1.7110 ha        1 W2C      0.139500
     34 H2          5.3930   -2.8400    0.9750 ha        1 W2C      0.156500
     35 H1          2.9440   -2.4800    0.8130 ha        1 W2C      0.139500
     36 H4          6.0380    0.1640   -2.0770 ha        1 W2C      0.156500
     37 H5          3.5850    0.5210   -2.2420 ha        1 W2C      0.139500
     38 H71C        1.0860   -1.6300   -0.4200 hc        1 W2C      0.092700
     39 H72C        1.3490   -0.6330   -1.9070 hc        1 W2C      0.092700
     40 H14         1.9580    2.9200    3.8270 h1        1 W2C      0.121700
     41 H11         0.8740   -0.0270    1.8650 hn        1 W2C      0.471800
     42 H171        4.6300   -0.1670    4.5280 hc        1 W2C      0.070700
     43 H172        4.7360    0.6420    6.1450 hc        1 W2C      0.070700
     44 H181        2.4940   -0.4920    5.6880 h1        1 W2C      0.065700
     45 H182        2.4430    1.2710    6.1720 h1        1 W2C      0.065700
     46 H16         5.6850    2.0610    4.2510 h1        1 W2C      0.066700
     47 H151        4.2050    1.2690    2.4490 hc        1 W2C      0.072700
     48 H152        4.0190    3.0750    2.6390 hc        1 W2C      0.072700
     49 H19         0.9690    0.8890    4.4410 hn        1 W2C      0.378800
     50 H20         4.7290    3.1620    5.9900 ho        1 W2C      0.426000
     51 H23        10.0830   -1.8060   -2.4620 ha        1 W2C      0.157000
     52 H112        2.4760    0.0660    1.4290 hn        1 W2C      0.471800
     53 H22         7.6290   -1.4220   -2.5950 ha        1 W2C      0.139500
@<TRIPOS>BOND
     1    1   11 1   
     2    1   23 3   
     3    2   22 1   
     4    2   24 2   
     5    2   29 1   
     6    3    5 ar  
     7    3   11 ar  
     8    3   51 1   
     9    4    6 ar  
    10    4   11 ar  
    11    4   32 1   
    12    5   12 ar  
    13    5   53 1   
    14    6   12 ar  
    15    6   33 1   
    16    7    9 ar  
    17    7   13 ar  
    18    7   34 1   
    19    8   10 ar  
    20    8   13 ar  
    21    8   36 1   
    22    9   14 ar  
    23    9   35 1   
    24   10   14 ar  
    25   10   37 1   
    26   12   13 1   
    27   14   21 1   
    28   15   19 1   
    29   15   26 1   
    30   15   27 2   
    31   16   18 1   
    32   16   20 1   
    33   16   42 1   
    34   16   43 1   
    35   17   19 1   
    36   17   20 1   
    37   17   47 1   
    38   17   48 1   
    39   18   25 1   
    40   18   44 1   
    41   18   45 1   
    42   19   25 1   
    43   19   40 1   
    44   20   28 1   
    45   20   46 1   
    46   21   22 1   
    47   21   38 1   
    48   21   39 1   
    49   22   26 1   
    50   22   30 1   
    51   24   31 1   
    52   25   49 1   
    53   26   41 1   
    54   26   52 1   
    55   28   50 1   
@<TRIPOS>SUBSTRUCTURE
     1 W2C         1 TEMP              0 ****  ****    0 ROOT
