@<TRIPOS>MOLECULE
W2D
   43    47     1     0     0
SMALL
bcc


@<TRIPOS>ATOM
      1 C21         0.1390    0.1660    0.0720 ca        1 W2D     -0.096000
      2 C22         1.5080    0.0320   -0.0070 ca        1 W2D      0.057100
      3 O23         2.4490    0.1280    1.0110 os        1 W2D     -0.330900
      4 C24         3.7430   -0.1230    0.4100 c3        1 W2D      0.320200
      5 O25         3.5370   -0.3290   -1.0090 os        1 W2D     -0.326900
      6 C26         2.1700   -0.2450   -1.2340 ca        1 W2D      0.073100
      7 C27         1.4760   -0.3960   -2.4170 ca        1 W2D     -0.116000
      8 C28         0.0780   -0.2560   -2.3410 ca        1 W2D     -0.112000
      9 C20        -0.5760    0.0170   -1.1380 ca        1 W2D     -0.099300
     10 C19        -2.0600    0.1150   -1.1110 c3        1 W2D     -0.078400
     11 C9         -2.5750    1.5430   -1.1410 cc        1 W2D      0.626800
     12 N8         -1.7590    2.5830   -1.1040 nd        1 W2D     -0.697000
     13 C7         -2.2660    3.8810   -1.1240 ca        1 W2D      0.393600
     14 C6         -1.3660    4.9700   -1.0680 ca        1 W2D     -0.018300
     15 C5         -1.8210    6.2950   -1.1000 ca        1 W2D     -0.534500
     16 S2         -0.8060    7.5250   -0.9730 sy        1 W2D      1.491200
     17 O3         -1.3780    8.7460   -0.6890 o         1 W2D     -0.564300
     18 O1          0.4680    7.2080   -0.5580 o         1 W2D     -0.564300
     19 N4         -0.4730    7.7640   -2.8590 nz        1 W2D     -0.786500
     20 C18        -3.2190    6.5380   -1.1710 ca        1 W2D     -0.051000
     21 C17        -4.1240    5.4990   -1.2160 ca        1 W2D     -0.079000
     22 C16        -3.6630    4.1710   -1.1960 ca        1 W2D     -0.026300
     23 C15        -4.5530    3.0350   -1.2390 cc        1 W2D     -0.020300
     24 N14        -5.8980    2.9490   -1.3080 nd        1 W2D     -0.368300
     25 N10        -3.9820    1.7130   -1.2040 na        1 W2D     -0.004800
     26 N11        -4.9490    0.7850   -1.2500 nc        1 W2D     -0.588100
     27 C12        -6.1360    1.5280   -1.3250 cd        1 W2D      0.735200
     28 N13        -7.3900    0.9810   -1.4910 nv        1 W2D     -0.867800
     29 H21        -0.3700    0.3720    1.0210 ha        1 W2D      0.156000
     30 H241        4.3810    0.7830    0.5490 h2        1 W2D      0.081700
     31 H242        4.1670   -1.0600    0.8490 h2        1 W2D      0.081700
     32 H27         1.9800   -0.6200   -3.3650 ha        1 W2D      0.164000
     33 H28        -0.5080   -0.3780   -3.2650 ha        1 W2D      0.139000
     34 H191       -2.5010   -0.4340   -1.9900 hc        1 W2D      0.100200
     35 H192       -2.4600   -0.3690   -0.1740 hc        1 W2D      0.100200
     36 H6         -0.2800    4.7630   -0.9790 ha        1 W2D      0.186000
     37 H18        -3.5840    7.5820   -1.1650 ha        1 W2D      0.171000
     38 H41N       -0.9910    7.1040   -3.4300 hn        1 W2D      0.455800
     39 H42N       -0.7370    8.7040   -3.1480 hn        1 W2D      0.455800
     40 H17        -5.2110    5.6970   -1.2610 ha        1 W2D      0.192000
     41 H131       -7.4960    0.0180   -1.2680 hn        1 W2D      0.445800
     42 H132       -8.1660    1.5760   -1.3120 hn        1 W2D      0.445800
     43 H43         0.5180    7.6430   -3.0600 hn        1 W2D      0.455800
@<TRIPOS>BOND
     1    1    2 ar  
     2    1    9 ar  
     3    1   29 1   
     4    2    3 1   
     5    2    6 ar  
     6    3    4 1   
     7    4    5 1   
     8    4   30 1   
     9    4   31 1   
    10    5    6 1   
    11    6    7 ar  
    12    7    8 ar  
    13    7   32 1   
    14    8    9 ar  
    15    8   33 1   
    16    9   10 1   
    17   10   11 1   
    18   10   34 1   
    19   10   35 1   
    20   11   12 2   
    21   11   25 1   
    22   12   13 1   
    23   13   14 ar  
    24   13   22 ar  
    25   14   15 ar  
    26   14   36 1   
    27   15   16 1   
    28   15   20 ar  
    29   16   17 2   
    30   16   18 2   
    31   16   19 1   
    32   19   38 1   
    33   19   39 1   
    34   19   43 1   
    35   20   21 ar  
    36   20   37 1   
    37   21   22 ar  
    38   21   40 1   
    39   22   23 1   
    40   23   24 2   
    41   23   25 1   
    42   24   27 1   
    43   25   26 1   
    44   26   27 2   
    45   27   28 1   
    46   28   41 1   
    47   28   42 1   
@<TRIPOS>SUBSTRUCTURE
     1 W2D         1 TEMP              0 ****  ****    0 ROOT
