@<TRIPOS>MOLECULE
W2D
   44    48     1     0     0
SMALL
bcc


@<TRIPOS>ATOM
      1 C21         0.1050    0.0930    0.0560 ca        1 W2D     -0.103000
      2 C22         1.4740   -0.0500    0.0190 ca        1 W2D      0.065100
      3 O23         2.3760   -0.0230    1.0710 os        1 W2D     -0.324900
      4 C24         3.6910   -0.2640    0.5060 c3        1 W2D      0.320200
      5 O25         3.5310   -0.3790   -0.9320 os        1 W2D     -0.315900
      6 C26         2.1780   -0.2660   -1.2000 ca        1 W2D      0.094100
      7 C27         1.5250   -0.3420   -2.4130 ca        1 W2D     -0.116000
      8 C28         0.1260   -0.1910   -2.3800 ca        1 W2D     -0.102000
      9 C20        -0.5670    0.0190   -1.1870 ca        1 W2D     -0.131300
     10 C19        -2.0500    0.1170   -1.2010 c3        1 W2D     -0.068400
     11 C9         -2.5510    1.5510   -1.2190 cc        1 W2D      0.622800
     12 N8         -1.7700    2.5980   -1.2280 nd        1 W2D     -0.633000
     13 C7         -2.2740    3.9030   -1.2320 ca        1 W2D      0.392600
     14 C6         -1.3640    4.9880   -1.1980 ca        1 W2D     -0.009300
     15 C5         -1.8200    6.3100   -1.1970 ca        1 W2D     -0.485500
     16 S2         -0.7820    7.5540   -1.0090 sy        1 W2D      1.470200
     17 O3         -1.3890    8.7300   -0.6350 o         1 W2D     -0.541300
     18 O1          0.4710    7.1710   -0.5940 o         1 W2D     -0.541300
     19 N4         -0.4350    7.9210   -2.8390 n4        1 W2D     -0.796500
     20 C18        -3.2140    6.5560   -1.2360 ca        1 W2D     -0.018000
     21 C17        -4.1290    5.5180   -1.2640 ca        1 W2D     -0.081000
     22 C16        -3.6690    4.1930   -1.2540 ca        1 W2D     -0.036300
     23 C15        -4.5610    3.0490   -1.2450 cc        1 W2D     -0.000300
     24 N14        -5.9160    2.9600   -1.2390 nd        1 W2D     -0.297300
     25 N10        -3.9960    1.7240   -1.2230 na        1 W2D      0.010200
     26 N11        -4.9520    0.8100   -1.2010 nc        1 W2D     -0.439100
     27 C12        -6.1280    1.5580   -1.2100 cd        1 W2D      0.488200
     28 N13        -7.4630    0.9740   -1.1840 n4        1 W2D     -0.736600
     29 H21        -0.4350    0.2420    1.0000 ha        1 W2D      0.154000
     30 H241        4.0780   -1.2360    0.9010 h2        1 W2D      0.093200
     31 H242        4.3380    0.6210    0.7210 h2        1 W2D      0.093200
     32 H27         2.0620   -0.5220   -3.3550 ha        1 W2D      0.174000
     33 H28        -0.4250   -0.2600   -3.3300 ha        1 W2D      0.137000
     34 H191       -2.4740   -0.3840   -0.2850 hc        1 W2D      0.100200
     35 H192       -2.4650   -0.4050   -2.1090 hc        1 W2D      0.100200
     36 H6         -0.2750    4.7720   -1.1420 ha        1 W2D      0.203000
     37 H18        -3.5830    7.6020   -1.2120 ha        1 W2D      0.188000
     38 H41N       -0.9380    7.3130   -3.4800 hn        1 W2D      0.466467
     39 H42N        0.5630    7.8210   -3.0390 hn        1 W2D      0.466467
     40 H17        -5.2130    5.7300   -1.2800 ha        1 W2D      0.195000
     41 H131       -7.4020   -0.0550   -1.1970 hn        1 W2D      0.492467
     42 H132       -7.9470    1.2800   -0.3260 hn        1 W2D      0.492467
     43 H43        -0.6930    8.8840   -3.0630 hn        1 W2D      0.466467
     44 H133       -7.9900    1.3000   -2.0090 hn        1 W2D      0.492467
@<TRIPOS>BOND
     1    1    2 ar  
     2    1    9 ar  
     3    1   29 1   
     4    2    3 1   
     5    2    6 ar  
     6    3    4 1   
     7    4    5 1   
     8    4   30 1   
     9    4   31 1   
    10    5    6 1   
    11    6    7 ar  
    12    7    8 ar  
    13    7   32 1   
    14    8    9 ar  
    15    8   33 1   
    16    9   10 1   
    17   10   11 1   
    18   10   34 1   
    19   10   35 1   
    20   11   12 2   
    21   11   25 1   
    22   12   13 1   
    23   13   14 ar  
    24   13   22 ar  
    25   14   15 ar  
    26   14   36 1   
    27   15   16 1   
    28   15   20 ar  
    29   16   17 2   
    30   16   18 2   
    31   16   19 1   
    32   19   38 1   
    33   19   39 1   
    34   19   43 1   
    35   20   21 ar  
    36   20   37 1   
    37   21   22 ar  
    38   21   40 1   
    39   22   23 1   
    40   23   24 2   
    41   23   25 1   
    42   24   27 1   
    43   25   26 1   
    44   26   27 2   
    45   27   28 1   
    46   28   41 1   
    47   28   42 1   
    48   28   44 1   
@<TRIPOS>SUBSTRUCTURE
     1 W2D         1 TEMP              0 ****  ****    0 ROOT
