@<TRIPOS>MOLECULE
W2D
   43    47     1     0     0
SMALL
bcc


@<TRIPOS>ATOM
      1 C21         0.1350    0.1590    0.0770 ca        1 W2D     -0.096000
      2 C22         1.5040    0.0250    0.0010 ca        1 W2D      0.057100
      3 O23         2.4420    0.1140    1.0220 os        1 W2D     -0.330900
      4 C24         3.7370   -0.1350    0.4240 c3        1 W2D      0.320200
      5 O25         3.5350   -0.3330   -0.9970 os        1 W2D     -0.326900
      6 C26         2.1690   -0.2470   -1.2260 ca        1 W2D      0.073100
      7 C27         1.4770   -0.3910   -2.4110 ca        1 W2D     -0.116000
      8 C28         0.0800   -0.2510   -2.3380 ca        1 W2D     -0.112000
      9 C20        -0.5780    0.0160   -1.1360 ca        1 W2D     -0.099300
     10 C19        -2.0620    0.1160   -1.1110 c3        1 W2D     -0.078400
     11 C9         -2.5750    1.5450   -1.1430 cc        1 W2D      0.626800
     12 N8         -1.7580    2.5840   -1.1090 nd        1 W2D     -0.697000
     13 C7         -2.2640    3.8820   -1.1290 ca        1 W2D      0.393600
     14 C6         -1.3630    4.9710   -1.0770 ca        1 W2D     -0.018300
     15 C5         -1.8160    6.2960   -1.1090 ca        1 W2D     -0.534500
     16 S2         -0.8000    7.5260   -0.9870 sy        1 W2D      1.491200
     17 O3         -1.3700    8.7470   -0.7030 o         1 W2D     -0.564300
     18 O1          0.4750    7.2070   -0.5760 o         1 W2D     -0.564300
     19 N4         -0.4730    7.7620   -2.8740 n4        1 W2D     -0.786500
     20 C18        -3.2150    6.5400   -1.1770 ca        1 W2D     -0.051000
     21 C17        -4.1210    5.5020   -1.2180 ca        1 W2D     -0.079000
     22 C16        -3.6610    4.1740   -1.1970 ca        1 W2D     -0.026300
     23 C15        -4.5520    3.0390   -1.2370 cc        1 W2D     -0.020300
     24 N14        -5.8970    2.9530   -1.3020 nd        1 W2D     -0.368300
     25 N10        -3.9820    1.7160   -1.2020 na        1 W2D     -0.004800
     26 N11        -4.9500    0.7890   -1.2440 nc        1 W2D     -0.588100
     27 C12        -6.1370    1.5320   -1.3170 cd        1 W2D      0.735200
     28 N13        -7.3910    0.9870   -1.4790 nh        1 W2D     -0.867800
     29 H21        -0.3780    0.3610    1.0260 ha        1 W2D      0.156000
     30 H241        4.1590   -1.0740    0.8590 h2        1 W2D      0.081700
     31 H242        4.3760    0.7710    0.5680 h2        1 W2D      0.081700
     32 H27         1.9840   -0.6120   -3.3590 ha        1 W2D      0.164000
     33 H28        -0.5040   -0.3680   -3.2640 ha        1 W2D      0.139000
     34 H191       -2.5010   -0.4320   -1.9930 hc        1 W2D      0.100200
     35 H192       -2.4640   -0.3680   -0.1760 hc        1 W2D      0.100200
     36 H6         -0.2760    4.7620   -0.9910 ha        1 W2D      0.186000
     37 H18        -3.5790    7.5850   -1.1710 ha        1 W2D      0.171000
     38 H41N       -0.9940    7.1020   -3.4430 hn        1 W2D      0.455800
     39 H42N        0.5170    7.6400   -3.0790 hn        1 W2D      0.455800
     40 H17        -5.2070    5.7010   -1.2600 ha        1 W2D      0.192000
     41 H131       -7.4970    0.0240   -1.2550 hn        1 W2D      0.445800
     42 H132       -8.1670    1.5830   -1.2990 hn        1 W2D      0.445800
     43 H43        -0.7360    8.7020   -3.1630 hn        1 W2D      0.455800
@<TRIPOS>BOND
     1    1    2 ar  
     2    1    9 ar  
     3    1   29 1   
     4    2    3 1   
     5    2    6 ar  
     6    3    4 1   
     7    4    5 1   
     8    4   30 1   
     9    4   31 1   
    10    5    6 1   
    11    6    7 ar  
    12    7    8 ar  
    13    7   32 1   
    14    8    9 ar  
    15    8   33 1   
    16    9   10 1   
    17   10   11 1   
    18   10   34 1   
    19   10   35 1   
    20   11   12 2   
    21   11   25 1   
    22   12   13 1   
    23   13   14 ar  
    24   13   22 ar  
    25   14   15 ar  
    26   14   36 1   
    27   15   16 1   
    28   15   20 ar  
    29   16   17 2   
    30   16   18 2   
    31   16   19 1   
    32   19   38 1   
    33   19   39 1   
    34   19   43 1   
    35   20   21 ar  
    36   20   37 1   
    37   21   22 ar  
    38   21   40 1   
    39   22   23 1   
    40   23   24 2   
    41   23   25 1   
    42   24   27 1   
    43   25   26 1   
    44   26   27 2   
    45   27   28 1   
    46   28   41 1   
    47   28   42 1   
@<TRIPOS>SUBSTRUCTURE
     1 W2D         1 TEMP              0 ****  ****    0 ROOT
