@<TRIPOS>MOLECULE
W2E
   33    35     1     0     0
SMALL
bcc


@<TRIPOS>ATOM
      1 CAA         0.0680    0.4170   -0.0100 c3        1 W2E      0.127700
      2 OAB         1.4930    0.4120    0.1020 os        1 W2E     -0.438900
      3 CAC         2.0130   -0.1700    1.2290 c         1 W2E      0.641700
      4 OAD         1.2230   -0.6420    2.0510 o         1 W2E     -0.535000
      5 CAE         3.4820   -0.1480    1.2980 ca        1 W2E     -0.115600
      6 CAJ         4.1060   -0.7130    2.4180 ca        1 W2E     -0.076500
      7 CAI         5.4970   -0.7110    2.5150 ca        1 W2E     -0.114000
      8 CAF         4.2520    0.4240    0.2780 ca        1 W2E     -0.076500
      9 CAG         5.6410    0.4240    0.3730 ca        1 W2E     -0.114000
     10 CAH         6.2640   -0.1470    1.4900 ca        1 W2E     -0.114900
     11 CAK         7.7500   -0.1470    1.5960 cc        1 W2E      0.534500
     12 CAT         9.7180    0.2330    2.7960 ca        1 W2E      0.178400
     13 CAS        10.3670    0.6450    3.9870 ca        1 W2E     -0.120000
     14 CAR        11.7510    0.6380    4.0570 ca        1 W2E     -0.095000
     15 CAQ        12.5290    0.2300    2.9660 ca        1 W2E     -0.150000
     16 CAP        11.9160   -0.1780    1.7900 ca        1 W2E     -0.060000
     17 CAO        10.5190   -0.1780    1.6980 ca        1 W2E     -0.186600
     18 CAM         9.8560   -0.6090    0.4530 c         1 W2E      0.709100
     19 N1          8.4510   -0.5720    0.4590 ns        1 W2E     -0.493400
     20 OAN        10.4400   -0.9930   -0.5760 o         1 W2E     -0.620500
     21 N           8.3180    0.2410    2.7250 nd        1 W2E     -0.608100
     22 HAA1       -0.1150    0.9320   -0.9850 h1        1 W2E      0.053367
     23 HAA2       -0.3170   -0.6300   -0.0200 h1        1 W2E      0.053367
     24 HAA3       -0.3780    0.9820    0.8430 h1        1 W2E      0.053367
     25 HAJ         3.4890   -1.1550    3.2180 ha        1 W2E      0.163500
     26 HAF         3.7530    0.8740   -0.5960 ha        1 W2E      0.163500
     27 HAI         5.9870   -1.1460    3.4000 ha        1 W2E      0.154000
     28 HAG         6.2390    0.8920   -0.4250 ha        1 W2E      0.154000
     29 H1          7.9520   -0.8630   -0.3510 hn        1 W2E      0.339500
     30 HAS         9.7660    0.9700    4.8510 ha        1 W2E      0.154000
     31 HAR        12.2480    0.9600    4.9860 ha        1 W2E      0.139000
     32 HAQ        13.6260    0.2320    3.0440 ha        1 W2E      0.141000
     33 HAP        12.5090   -0.5030    0.9190 ha        1 W2E      0.159000
@<TRIPOS>BOND
     1    1    2 1   
     2    1   22 1   
     3    1   23 1   
     4    1   24 1   
     5    2    3 1   
     6    3    4 2   
     7    3    5 1   
     8    5    6 ar  
     9    5    8 ar  
    10    6    7 ar  
    11    6   25 1   
    12    7   10 ar  
    13    7   27 1   
    14    8    9 ar  
    15    8   26 1   
    16    9   10 ar  
    17    9   28 1   
    18   10   11 1   
    19   11   19 1   
    20   11   21 2   
    21   12   13 ar  
    22   12   17 ar  
    23   12   21 1   
    24   13   14 ar  
    25   13   30 1   
    26   14   15 ar  
    27   14   31 1   
    28   15   16 ar  
    29   15   32 1   
    30   16   17 ar  
    31   16   33 1   
    32   17   18 1   
    33   18   19 1   
    34   18   20 2   
    35   19   29 1   
@<TRIPOS>SUBSTRUCTURE
     1 W2E         1 TEMP              0 ****  ****    0 ROOT
