@<TRIPOS>MOLECULE
W2E
   33    35     1     0     0
SMALL
bcc


@<TRIPOS>ATOM
      1 CAA         0.0750    0.4010   -0.0420 c3        1 W2E      0.127700
      2 OAB         1.4990    0.3980    0.0770 os        1 W2E     -0.438900
      3 CAC         2.0150   -0.1800    1.2080 c         1 W2E      0.641700
      4 OAD         1.2220   -0.6510    2.0270 o         1 W2E     -0.535000
      5 CAE         3.4840   -0.1550    1.2840 ca        1 W2E     -0.115600
      6 CAJ         4.1040   -0.7160    2.4080 ca        1 W2E     -0.076500
      7 CAI         5.4940   -0.7110    2.5110 ca        1 W2E     -0.114000
      8 CAF         4.2570    0.4160    0.2660 ca        1 W2E     -0.076500
      9 CAG         5.6460    0.4190    0.3670 ca        1 W2E     -0.114000
     10 CAH         6.2650   -0.1480    1.4880 ca        1 W2E     -0.114900
     11 CAK         7.7510   -0.1450    1.6010 cc        1 W2E      0.534500
     12 CAT         9.7110    0.2420    2.8100 ca        1 W2E      0.178400
     13 CAS        10.3540    0.6580    4.0020 ca        1 W2E     -0.120000
     14 CAR        11.7380    0.6540    4.0790 ca        1 W2E     -0.095000
     15 CAQ        12.5220    0.2440    2.9920 ca        1 W2E     -0.150000
     16 CAP        11.9160   -0.1670    1.8140 ca        1 W2E     -0.060000
     17 CAO        10.5180   -0.1700    1.7160 ca        1 W2E     -0.186600
     18 CAM         9.8630   -0.6060    0.4690 c         1 W2E      0.709100
     19 N1          8.4580   -0.5710    0.4690 n         1 W2E     -0.493400
     20 OAN        10.4520   -0.9910   -0.5560 o         1 W2E     -0.620500
     21 N           8.3130    0.2470    2.7320 nd        1 W2E     -0.608100
     22 HAA1       -0.1050    0.9130   -1.0190 h1        1 W2E      0.053367
     23 HAA2       -0.3080   -0.6480   -0.0510 h1        1 W2E      0.053367
     24 HAA3       -0.3770    0.9660    0.8080 h1        1 W2E      0.053367
     25 HAJ         3.4840   -1.1570    3.2060 ha        1 W2E      0.163500
     26 HAF         3.7620    0.8630   -0.6110 ha        1 W2E      0.163500
     27 HAI         5.9810   -1.1430    3.4000 ha        1 W2E      0.154000
     28 HAG         6.2460    0.8860   -0.4290 ha        1 W2E      0.154000
     29 H1          7.9630   -0.8660   -0.3430 hn        1 W2E      0.339500
     30 HAS         9.7490    0.9840    4.8620 ha        1 W2E      0.154000
     31 HAR        12.2310    0.9790    5.0090 ha        1 W2E      0.139000
     32 HAQ        13.6190    0.2490    3.0760 ha        1 W2E      0.141000
     33 HAP        12.5130   -0.4930    0.9470 ha        1 W2E      0.159000
@<TRIPOS>BOND
     1    1    2 1   
     2    1   22 1   
     3    1   23 1   
     4    1   24 1   
     5    2    3 1   
     6    3    4 2   
     7    3    5 1   
     8    5    6 ar  
     9    5    8 ar  
    10    6    7 ar  
    11    6   25 1   
    12    7   10 ar  
    13    7   27 1   
    14    8    9 ar  
    15    8   26 1   
    16    9   10 ar  
    17    9   28 1   
    18   10   11 1   
    19   11   19 1   
    20   11   21 2   
    21   12   13 ar  
    22   12   17 ar  
    23   12   21 1   
    24   13   14 ar  
    25   13   30 1   
    26   14   15 ar  
    27   14   31 1   
    28   15   16 ar  
    29   15   32 1   
    30   16   17 ar  
    31   16   33 1   
    32   17   18 1   
    33   18   19 1   
    34   18   20 2   
    35   19   29 1   
@<TRIPOS>SUBSTRUCTURE
     1 W2E         1 TEMP              0 ****  ****    0 ROOT
