@<TRIPOS>MOLECULE
W2E
   33    35     1     0     0
SMALL
bcc


@<TRIPOS>ATOM
      1 CAA         6.9190    0.5460   -0.4070 c3        1 W2E      0.127700
      2 OAB         5.4930    0.6440   -0.4030 os        1 W2E     -0.438900
      3 CAC         4.8120   -0.3950    0.1770 c         1 W2E      0.641700
      4 OAD         5.4730   -1.3240    0.6500 o         1 W2E     -0.535000
      5 CAE         3.3490   -0.2480    0.1530 ca        1 W2E     -0.115600
      6 CAJ         2.5660   -1.2640    0.7160 ca        1 W2E     -0.076500
      7 CAI         1.1770   -1.1560    0.7120 ca        1 W2E     -0.114000
      8 CAF         2.7380    0.8740   -0.4190 ca        1 W2E     -0.076500
      9 CAG         1.3490    0.9840   -0.4220 ca        1 W2E     -0.114000
     10 CAH         0.5690   -0.0290    0.1480 ca        1 W2E     -0.114900
     11 CAK        -0.9170    0.0830    0.1450 cc        1 W2E      0.534500
     12 CAT        -3.0380   -0.8160   -0.2390 ca        1 W2E      0.178400
     13 CAS        -3.8540   -1.8980   -0.6520 ca        1 W2E     -0.120000
     14 CAR        -5.2340   -1.7650   -0.6480 ca        1 W2E     -0.095000
     15 CAQ        -5.8440   -0.5710   -0.2390 ca        1 W2E     -0.150000
     16 CAP        -5.0660    0.5020    0.1700 ca        1 W2E     -0.060000
     17 CAO        -3.6700    0.3880    0.1720 ca        1 W2E     -0.186600
     18 CAM        -2.8330    1.5220    0.6050 c         1 W2E      0.709100
     19 N1         -1.4440    1.3100    0.5700 n         1 W2E     -0.493400
     20 OAN        -3.2600    2.6260    0.9890 o         1 W2E     -0.620500
     21 N          -1.6430   -0.9510   -0.2440 nd        1 W2E     -0.608100
     22 HAA1        7.2440    1.4840   -0.9210 h1        1 W2E      0.053367
     23 HAA2        7.2990    0.4990    0.6420 h1        1 W2E      0.053367
     24 HAA3        7.2360   -0.3630   -0.9710 h1        1 W2E      0.053367
     25 HAJ         3.0590   -2.1470    1.1580 ha        1 W2E      0.163500
     26 HAF         3.3600    1.6660   -0.8690 ha        1 W2E      0.163500
     27 HAI         0.5610   -1.9600    1.1460 ha        1 W2E      0.154000
     28 HAG         0.8760    1.8610   -0.8900 ha        1 W2E      0.154000
     29 H1         -0.8330    2.0390    0.8630 hn        1 W2E      0.339500
     30 HAS        -3.3860   -2.8400   -0.9770 ha        1 W2E      0.154000
     31 HAR        -5.8610   -2.6100   -0.9710 ha        1 W2E      0.139000
     32 HAQ        -6.9410   -0.4880   -0.2430 ha        1 W2E      0.141000
     33 HAP        -5.5250    1.4500    0.4950 ha        1 W2E      0.159000
@<TRIPOS>BOND
     1    1    2 1   
     2    1   22 1   
     3    1   23 1   
     4    1   24 1   
     5    2    3 1   
     6    3    4 2   
     7    3    5 1   
     8    5    6 ar  
     9    5    8 ar  
    10    6    7 ar  
    11    6   25 1   
    12    7   10 ar  
    13    7   27 1   
    14    8    9 ar  
    15    8   26 1   
    16    9   10 ar  
    17    9   28 1   
    18   10   11 1   
    19   11   19 1   
    20   11   21 2   
    21   12   13 ar  
    22   12   17 ar  
    23   12   21 1   
    24   13   14 ar  
    25   13   30 1   
    26   14   15 ar  
    27   14   31 1   
    28   15   16 ar  
    29   15   32 1   
    30   16   17 ar  
    31   16   33 1   
    32   17   18 1   
    33   18   19 1   
    34   18   20 2   
    35   19   29 1   
@<TRIPOS>SUBSTRUCTURE
     1 W2E         1 TEMP              0 ****  ****    0 ROOT
