@<TRIPOS>MOLECULE
W2E
   33    35     1     0     0
SMALL
bcc


@<TRIPOS>ATOM
      1 CAA         0.0800    0.3930   -0.0630 c3        1 W2E      0.127700
      2 OAB         1.5040    0.3850    0.0580 os        1 W2E     -0.438900
      3 CAC         2.0150   -0.1650    1.2050 c         1 W2E      0.641700
      4 OAD         1.2180   -0.6100    2.0350 o         1 W2E     -0.535000
      5 CAE         3.4840   -0.1460    1.2830 ca        1 W2E     -0.115600
      6 CAJ         4.0990   -0.6800    2.4220 ca        1 W2E     -0.076500
      7 CAI         5.4890   -0.6800    2.5270 ca        1 W2E     -0.114000
      8 CAF         4.2610    0.3940    0.2510 ca        1 W2E     -0.076500
      9 CAG         5.6500    0.3930    0.3550 ca        1 W2E     -0.114000
     10 CAH         6.2640   -0.1480    1.4910 ca        1 W2E     -0.114900
     11 CAK         7.7500   -0.1500    1.6070 cc        1 W2E      0.534500
     12 CAT         9.7110    0.2580    2.8080 ca        1 W2E      0.178400
     13 CAS        10.3540    0.7010    3.9910 ca        1 W2E     -0.120000
     14 CAR        11.7380    0.6910    4.0700 ca        1 W2E     -0.095000
     15 CAQ        12.5210    0.2490    2.9950 ca        1 W2E     -0.150000
     16 CAP        11.9140   -0.1890    1.8270 ca        1 W2E     -0.060000
     17 CAO        10.5170   -0.1880    1.7270 ca        1 W2E     -0.186600
     18 CAM         9.8610   -0.6510    0.4910 c         1 W2E      0.709100
     19 N1          8.4570   -0.6090    0.4870 n         1 W2E     -0.493400
     20 OAN        10.4500   -1.0660   -0.5240 o         1 W2E     -0.620500
     21 N           8.3120    0.2680    2.7280 nd        1 W2E     -0.608100
     22 HAA1       -0.0960    0.8790   -1.0540 h1        1 W2E      0.053367
     23 HAA2       -0.3700    0.9840    0.7710 h1        1 W2E      0.053367
     24 HAA3       -0.3090   -0.6540   -0.0440 h1        1 W2E      0.053367
     25 HAJ         3.4750   -1.0960    3.2310 ha        1 W2E      0.163500
     26 HAF         3.7700    0.8210   -0.6380 ha        1 W2E      0.163500
     27 HAI         5.9720   -1.0910    3.4280 ha        1 W2E      0.154000
     28 HAG         6.2540    0.8350   -0.4520 ha        1 W2E      0.154000
     29 H1          7.9620   -0.9220   -0.3180 hn        1 W2E      0.339500
     30 HAS         9.7490    1.0520    4.8410 ha        1 W2E      0.154000
     31 HAR        12.2310    1.0370    4.9920 ha        1 W2E      0.139000
     32 HAQ        13.6180    0.2500    3.0810 ha        1 W2E      0.141000
     33 HAP        12.5110   -0.5410    0.9700 ha        1 W2E      0.159000
@<TRIPOS>BOND
     1    1    2 1   
     2    1   22 1   
     3    1   23 1   
     4    1   24 1   
     5    2    3 1   
     6    3    4 2   
     7    3    5 1   
     8    5    6 ar  
     9    5    8 ar  
    10    6    7 ar  
    11    6   25 1   
    12    7   10 ar  
    13    7   27 1   
    14    8    9 ar  
    15    8   26 1   
    16    9   10 ar  
    17    9   28 1   
    18   10   11 1   
    19   11   19 1   
    20   11   21 2   
    21   12   13 ar  
    22   12   17 ar  
    23   12   21 1   
    24   13   14 ar  
    25   13   30 1   
    26   14   15 ar  
    27   14   31 1   
    28   15   16 ar  
    29   15   32 1   
    30   16   17 ar  
    31   16   33 1   
    32   17   18 1   
    33   18   19 1   
    34   18   20 2   
    35   19   29 1   
@<TRIPOS>SUBSTRUCTURE
     1 W2E         1 TEMP              0 ****  ****    0 ROOT
