@<TRIPOS>MOLECULE
W2K
   53    56     1     0     0
SMALL
bcc


@<TRIPOS>ATOM
      1 O1          3.1530   -3.2950   -0.9150 o         1 W2K     -0.490100
      2 C5          3.5770   -2.1660   -0.6790 c         1 W2K      0.594700
      3 C4          3.7000   -1.4770    0.5780 ca        1 W2K     -0.297600
      4 C3          3.4980   -2.2490    1.7480 ca        1 W2K     -0.004000
      5 C2          3.6130   -1.6940    3.0000 ca        1 W2K     -0.230000
      6 C16         3.9820   -0.1040    0.7280 ca        1 W2K     -0.004000
      7 C17         4.0980    0.4650    1.9750 ca        1 W2K     -0.230000
      8 C1          3.9540   -0.3130    3.1720 ca        1 W2K      0.275600
      9 N           4.1640    0.2300    4.4140 nh        1 W2K     -0.622000
     10 C18         4.3330    1.6660    4.5420 c3        1 W2K      0.200800
     11 C19         4.7690    2.1610    5.9340 c3        1 W2K      0.157300
     12 N4          4.0710    1.4860    7.0140 n3        1 W2K     -0.728600
     13 C21         4.3770    2.0350    8.3170 c3        1 W2K      0.153100
     14 C20         4.2840    0.0520    6.9360 c3        1 W2K      0.157300
     15 C           3.8270   -0.5470    5.5930 c3        1 W2K      0.200800
     16 N1          4.0860   -1.4480   -1.9350 n4        1 W2K     -0.526600
     17 C6          3.0070   -0.8540   -2.7080 cc        1 W2K     -0.226200
     18 C10         3.0330    0.6110   -2.8420 c         1 W2K      0.694700
     19 O           3.9010    1.3370   -2.3170 o         1 W2K     -0.637500
     20 N2          2.0060    1.1790   -3.6120 n         1 W2K     -0.393100
     21 C9          1.0350    0.4170   -4.1920 cc        1 W2K      0.084600
     22 C8          1.0020   -0.9670   -4.0580 cd        1 W2K     -0.138200
     23 C7          2.0110   -1.6090   -3.2950 cd        1 W2K      0.062000
     24 C11        -0.0530   -1.7490   -4.6920 ca        1 W2K     -0.027800
     25 C15        -0.4820   -1.4530   -5.9940 ca        1 W2K     -0.240800
     26 C14        -1.5040   -2.2370   -6.5590 ca        1 W2K      0.412700
     27 N3         -2.0970   -3.2620   -5.9170 nb        1 W2K     -0.637000
     28 C13        -1.6750   -3.5370   -4.6680 ca        1 W2K      0.412700
     29 C12        -0.6610   -2.8140   -4.0130 ca        1 W2K     -0.240800
     30 H3          3.2400   -3.3180    1.6430 ha        1 W2K      0.155000
     31 H16         4.0880    0.5610   -0.1490 ha        1 W2K      0.155000
     32 H2          3.4290   -2.3390    3.8740 ha        1 W2K      0.159000
     33 H17         4.2950    1.5480    2.0340 ha        1 W2K      0.159000
     34 H181        5.1340    1.9990    3.8200 h1        1 W2K      0.059950
     35 H182        3.3630    2.1720    4.2640 h1        1 W2K      0.059950
     36 HC1         2.7080   -0.6950    5.6220 h1        1 W2K      0.059950
     37 HC2         4.3210   -1.5590    5.5100 h1        1 W2K      0.059950
     38 H191        4.5290    3.2600    5.9860 h1        1 W2K      0.053450
     39 H192        5.8900    2.0470    6.0220 h1        1 W2K      0.053450
     40 H211        5.4590    1.9220    8.6030 h1        1 W2K      0.045033
     41 H212        4.1170    3.1260    8.3160 h1        1 W2K      0.045033
     42 H213        3.7460    1.5130    9.0820 h1        1 W2K      0.045033
     43 H201        5.3670   -0.2220    7.1020 h1        1 W2K      0.053450
     44 H202        3.6740   -0.4420    7.7450 h1        1 W2K      0.053450
     45 H7          1.9770   -2.7110   -3.1830 ha        1 W2K      0.185000
     46 H9          0.2630    0.9570   -4.7790 h4        1 W2K      0.194000
     47 H15        -0.0290   -0.6380   -6.5730 ha        1 W2K      0.144000
     48 H12        -0.3680   -3.0800   -2.9890 ha        1 W2K      0.144000
     49 H14        -1.8690   -2.0360   -7.5840 h4        1 W2K      0.040100
     50 H13        -2.1800   -4.3830   -4.1650 h4        1 W2K      0.040100
     51 HN2         2.0030    2.1760   -3.7200 hn        1 W2K      0.369500
     52 HN1         4.7510   -0.7050   -1.6710 hn        1 W2K      0.466300
     53 H121        4.5680   -2.1360   -2.5270 hn        1 W2K      0.466300
@<TRIPOS>BOND
     1    1    2 2   
     2    2    3 1   
     3    2   16 1   
     4    3    4 ar  
     5    3    6 ar  
     6    4    5 ar  
     7    4   30 1   
     8    5    8 ar  
     9    5   32 1   
    10    6    7 ar  
    11    6   31 1   
    12    7    8 ar  
    13    7   33 1   
    14    8    9 1   
    15    9   10 1   
    16    9   15 1   
    17   10   11 1   
    18   10   34 1   
    19   10   35 1   
    20   11   12 1   
    21   11   38 1   
    22   11   39 1   
    23   12   13 1   
    24   12   14 1   
    25   13   40 1   
    26   13   41 1   
    27   13   42 1   
    28   14   15 1   
    29   14   43 1   
    30   14   44 1   
    31   15   36 1   
    32   15   37 1   
    33   16   17 1   
    34   16   52 1   
    35   16   53 1   
    36   17   18 1   
    37   17   23 2   
    38   18   19 2   
    39   18   20 1   
    40   20   21 1   
    41   20   51 1   
    42   21   22 2   
    43   21   46 1   
    44   22   23 1   
    45   22   24 1   
    46   23   45 1   
    47   24   25 ar  
    48   24   29 ar  
    49   25   26 ar  
    50   25   47 1   
    51   26   27 ar  
    52   26   49 1   
    53   27   28 ar  
    54   28   29 ar  
    55   28   50 1   
    56   29   48 1   
@<TRIPOS>SUBSTRUCTURE
     1 W2K         1 TEMP              0 ****  ****    0 ROOT
