@<TRIPOS>MOLECULE
W2K
   53    56     1     0     0
SMALL
bcc


@<TRIPOS>ATOM
      1 O1          3.1150   -3.3030   -0.9120 o         1 W2K     -0.490100
      2 C5          3.5540   -2.1790   -0.6780 c         1 W2K      0.594700
      3 C4          3.6870   -1.4910    0.5780 ca        1 W2K     -0.297600
      4 C3          3.4740   -2.2580    1.7480 ca        1 W2K     -0.004000
      5 C2          3.5980   -1.7030    3.0000 ca        1 W2K     -0.230000
      6 C16         3.9870   -0.1210    0.7260 ca        1 W2K     -0.004000
      7 C17         4.1110    0.4480    1.9720 ca        1 W2K     -0.230000
      8 C1          3.9570   -0.3270    3.1700 ca        1 W2K      0.275600
      9 N           4.1750    0.2150    4.4110 nh        1 W2K     -0.622000
     10 C18         4.3640    1.6480    4.5370 c3        1 W2K      0.200800
     11 C19         4.8080    2.1390    5.9280 c3        1 W2K      0.157300
     12 N4          4.1010    1.4760    7.0100 n3        1 W2K     -0.728600
     13 C21         4.4150    2.0210    8.3120 c3        1 W2K      0.153100
     14 C20         4.2940    0.0380    6.9340 c3        1 W2K      0.157300
     15 C           3.8280   -0.5570    5.5910 c3        1 W2K      0.200800
     16 N1          4.0720   -1.4690   -1.9350 ny        1 W2K     -0.526600
     17 C6          3.0000   -0.8620   -2.7080 cc        1 W2K     -0.226200
     18 C10         3.0460    0.6030   -2.8440 c         1 W2K      0.694700
     19 O           3.9250    1.3170   -2.3200 o         1 W2K     -0.637500
     20 N2          2.0260    1.1850   -3.6130 ns        1 W2K     -0.393100
     21 C9          1.0440    0.4350   -4.1910 cc        1 W2K      0.084600
     22 C8          0.9920   -0.9480   -4.0550 cd        1 W2K     -0.138200
     23 C7          1.9930   -1.6040   -3.2920 cd        1 W2K      0.062000
     24 C11        -0.0750   -1.7160   -4.6870 ca        1 W2K     -0.027800
     25 C15        -0.5020   -1.4150   -5.9880 ca        1 W2K     -0.240800
     26 C14        -1.5360   -2.1860   -6.5510 ca        1 W2K      0.412700
     27 N3         -2.1410   -3.2020   -5.9070 nb        1 W2K     -0.637000
     28 C13        -1.7220   -3.4810   -4.6590 ca        1 W2K      0.412700
     29 C12        -0.6970   -2.7720   -4.0050 ca        1 W2K     -0.240800
     30 H3          3.2020   -3.3240    1.6450 ha        1 W2K      0.155000
     31 H16         4.1020    0.5410   -0.1520 ha        1 W2K      0.155000
     32 H2          3.4060   -2.3450    3.8750 ha        1 W2K      0.159000
     33 H17         4.3230    1.5270    2.0300 ha        1 W2K      0.159000
     34 H181        5.1690    1.9700    3.8140 h1        1 W2K      0.059950
     35 H182        3.4010    2.1680    4.2590 h1        1 W2K      0.059950
     36 HC1         2.7070   -0.6890    5.6220 h1        1 W2K      0.059950
     37 HC2         4.3090   -1.5750    5.5100 h1        1 W2K      0.059950
     38 H191        4.5820    3.2410    5.9800 h1        1 W2K      0.053450
     39 H192        5.9270    2.0100    6.0160 h1        1 W2K      0.053450
     40 H211        3.7770    1.5090    9.0790 h1        1 W2K      0.045033
     41 H212        5.4950    1.8940    8.5980 h1        1 W2K      0.045033
     42 H213        4.1690    3.1160    8.3100 h1        1 W2K      0.045033
     43 H201        5.3740   -0.2500    7.1000 h1        1 W2K      0.053450
     44 H202        3.6780   -0.4470    7.7430 h1        1 W2K      0.053450
     45 H7          1.9440   -2.7040   -3.1790 ha        1 W2K      0.185000
     46 H9          0.2780    0.9850   -4.7780 h4        1 W2K      0.194000
     47 H15        -0.0380   -0.6070   -6.5690 ha        1 W2K      0.144000
     48 H12        -0.4060   -3.0410   -2.9820 ha        1 W2K      0.144000
     49 H14        -1.8990   -1.9810   -7.5760 h4        1 W2K      0.040100
     50 H13        -2.2380   -4.3190   -4.1540 h4        1 W2K      0.040100
     51 HN2         2.0370    2.1810   -3.7220 hn        1 W2K      0.369500
     52 HN1         4.7470   -0.7350   -1.6730 hn        1 W2K      0.466300
     53 H121        4.5430   -2.1650   -2.5270 hn        1 W2K      0.466300
@<TRIPOS>BOND
     1    1    2 2   
     2    2    3 1   
     3    2   16 1   
     4    3    4 ar  
     5    3    6 ar  
     6    4    5 ar  
     7    4   30 1   
     8    5    8 ar  
     9    5   32 1   
    10    6    7 ar  
    11    6   31 1   
    12    7    8 ar  
    13    7   33 1   
    14    8    9 1   
    15    9   10 1   
    16    9   15 1   
    17   10   11 1   
    18   10   34 1   
    19   10   35 1   
    20   11   12 1   
    21   11   38 1   
    22   11   39 1   
    23   12   13 1   
    24   12   14 1   
    25   13   40 1   
    26   13   41 1   
    27   13   42 1   
    28   14   15 1   
    29   14   43 1   
    30   14   44 1   
    31   15   36 1   
    32   15   37 1   
    33   16   17 1   
    34   16   52 1   
    35   16   53 1   
    36   17   18 1   
    37   17   23 2   
    38   18   19 2   
    39   18   20 1   
    40   20   21 1   
    41   20   51 1   
    42   21   22 2   
    43   21   46 1   
    44   22   23 1   
    45   22   24 1   
    46   23   45 1   
    47   24   25 ar  
    48   24   29 ar  
    49   25   26 ar  
    50   25   47 1   
    51   26   27 ar  
    52   26   49 1   
    53   27   28 ar  
    54   28   29 ar  
    55   28   50 1   
    56   29   48 1   
@<TRIPOS>SUBSTRUCTURE
     1 W2K         1 TEMP              0 ****  ****    0 ROOT
