@<TRIPOS>MOLECULE
W2P
   70    73     1     0     0
SMALL
bcc


@<TRIPOS>ATOM
      1 C1         -2.0310   -0.1270    0.4950 ca        1 W2P     -0.108400
      2 C2         -0.9560   -0.8640   -0.0250 ca        1 W2P     -0.093000
      3 C3          0.1520   -1.1380    0.7710 ca        1 W2P     -0.029600
      4 C4          0.1740   -0.6970    2.1210 ca        1 W2P      0.214100
      5 C5         -0.9250    0.0160    2.6360 ca        1 W2P     -0.166000
      6 C6         -2.0230    0.2970    1.8400 ca        1 W2P     -0.045000
      7 O7          1.2920   -1.0070    2.8440 os        1 W2P     -0.203200
      8 C8          1.3610   -0.5260    4.1650 ca        1 W2P      0.021100
      9 CL9         1.4290   -2.0200    0.0940 cl        1 W2P     -0.030400
     10 C10         1.3180   -1.4640    5.2030 ca        1 W2P     -0.077000
     11 C11         1.5530   -1.0230    6.5050 ca        1 W2P     -0.107000
     12 C12         1.8160    0.3250    6.7640 ca        1 W2P     -0.048000
     13 C13         1.8480    1.2410    5.7100 ca        1 W2P     -0.153300
     14 C14         1.6280    0.8260    4.3950 ca        1 W2P     -0.102000
     15 C15         2.1150    2.7240    5.9700 c3        1 W2P      0.690200
     16 F16         0.9740    3.4900    5.9610 f         1 W2P     -0.223967
     17 F17         2.7170    2.9970    7.1680 f         1 W2P     -0.223967
     18 F18         2.9190    3.3120    5.0240 f         1 W2P     -0.223967
     19 N19        -4.4310   -2.5900   -3.3560 nb        1 W2P     -0.577000
     20 C20        -4.6070   -2.7460   -2.0100 ca        1 W2P      0.689900
     21 N21        -4.1900   -1.9070   -1.0300 nb        1 W2P     -0.653000
     22 C22        -3.4770   -0.8050   -1.4020 ca        1 W2P      0.519200
     23 C23        -3.7070   -1.5260   -3.7140 ca        1 W2P      0.480100
     24 C24        -3.0970   -0.5970   -2.7420 ca        1 W2P     -0.301800
     25 N25        -2.4560    0.4540   -3.4500 na        1 W2P     -0.059400
     26 C26        -2.6700    0.1690   -4.8460 cc        1 W2P     -0.133100
     27 C27        -3.4120   -0.9680   -5.0390 cd        1 W2P     -0.203800
     28 C28        -1.1690    0.9820   -3.0840 c3        1 W2P      0.008300
     29 C29         0.0450    0.2270   -3.7010 c3        1 W2P      0.055800
     30 N30         1.2880    1.0550   -3.7410 n4        1 W2P     -0.675800
     31 C31         2.4760    0.3010   -4.3320 c         1 W2P      0.543100
     32 C32         3.5070    1.1510   -5.0260 c3        1 W2P     -0.149400
     33 O33         2.4780   -0.9070   -4.1820 o         1 W2P     -0.368100
     34 N34        -3.1970    0.1860   -0.3380 n4        1 W2P     -0.607100
     35 C35         4.6820    0.2870   -5.4660 c3        1 W2P     -0.109400
     36 C36         5.7020    1.1480   -6.2100 c3        1 W2P      0.103800
     37 N37         6.9380    0.4050   -6.6210 n4        1 W2P     -0.677400
     38 C38         6.6880   -0.4840   -7.7890 c3        1 W2P      0.078100
     39 C39         8.0400    1.3640   -6.9300 c3        1 W2P      0.078100
     40 H1         -0.9930   -1.2650   -1.0520 ha        1 W2P      0.143000
     41 H2         -0.9140    0.3420    3.6930 ha        1 W2P      0.202000
     42 H3         -2.8760    0.8450    2.2800 ha        1 W2P      0.176000
     43 H4          1.1220   -2.5270    4.9890 ha        1 W2P      0.171000
     44 H5          1.5350   -1.7460    7.3390 ha        1 W2P      0.178000
     45 H6          2.0030    0.6670    7.7980 ha        1 W2P      0.185000
     46 H7          1.6810    1.5470    3.5660 ha        1 W2P      0.151000
     47 H9         -2.3230    0.8950   -5.5890 h4        1 W2P      0.194000
     48 H10        -3.7740   -1.3940   -5.9800 ha        1 W2P      0.224000
     49 H11        -1.1640    2.0570   -3.4370 h1        1 W2P      0.084200
     50 H12        -1.0570    0.9680   -1.9620 h1        1 W2P      0.084200
     51 H13         0.2660   -0.7030   -3.0980 hx        1 W2P      0.129700
     52 H14        -0.1830   -0.0890   -4.7610 hx        1 W2P      0.129700
     53 H15         1.1180    1.9050   -4.2910 hn        1 W2P      0.466300
     54 H16         3.0330    1.6430   -5.9230 hc        1 W2P      0.117200
     55 H17         3.8610    1.9620   -4.3300 hc        1 W2P      0.117200
     56 H18        -3.0630    1.1040   -0.7790 hn        1 W2P      0.474800
     57 H19         5.1510   -0.1900   -4.5620 hc        1 W2P      0.096200
     58 H20         4.3080   -0.5420   -6.1260 hc        1 W2P      0.096200
     59 H21         6.0260    2.0030   -5.5450 hx        1 W2P      0.113200
     60 H22         5.2380    1.5810   -7.1440 hx        1 W2P      0.113200
     61 H24         7.6290   -1.0560   -8.0250 hx        1 W2P      0.117700
     62 H25         5.8650   -1.2070   -7.5440 hx        1 W2P      0.117700
     63 H26         6.4020    0.1340   -8.6830 hx        1 W2P      0.117700
     64 H27         7.7220    2.0490   -7.7610 hx        1 W2P      0.117700
     65 H28         8.2880    1.9630   -6.0130 hx        1 W2P      0.117700
     66 H29         8.9490    0.7840   -7.2530 hx        1 W2P      0.117700
     67 H302        1.5350    1.3390   -2.7830 hn        1 W2P      0.466300
     68 H342       -4.0280    0.2400    0.2830 hn        1 W2P      0.474800
     69 H371        7.2410   -0.1840   -5.8300 hn        1 W2P      0.456800
     70 H8         -5.1860   -3.6440   -1.6760 h5        1 W2P      0.122100
@<TRIPOS>BOND
     1    1    2 ar  
     2    1    6 ar  
     3    1   34 1   
     4    2    3 ar  
     5    2   40 1   
     6    3    4 ar  
     7    3    9 1   
     8    4    5 ar  
     9    4    7 1   
    10    5    6 ar  
    11    5   41 1   
    12    6   42 1   
    13    7    8 1   
    14    8   10 ar  
    15    8   14 ar  
    16   10   11 ar  
    17   10   43 1   
    18   11   12 ar  
    19   11   44 1   
    20   12   13 ar  
    21   12   45 1   
    22   13   14 ar  
    23   13   15 1   
    24   14   46 1   
    25   15   16 1   
    26   15   17 1   
    27   15   18 1   
    28   19   20 ar  
    29   19   23 ar  
    30   20   21 ar  
    31   20   70 1   
    32   21   22 ar  
    33   22   24 ar  
    34   22   34 1   
    35   23   24 ar  
    36   23   27 1   
    37   24   25 1   
    38   25   26 1   
    39   25   28 1   
    40   26   27 2   
    41   26   47 1   
    42   27   48 1   
    43   28   29 1   
    44   28   49 1   
    45   28   50 1   
    46   29   30 1   
    47   29   51 1   
    48   29   52 1   
    49   30   31 1   
    50   30   53 1   
    51   30   67 1   
    52   31   32 1   
    53   31   33 2   
    54   32   35 1   
    55   32   54 1   
    56   32   55 1   
    57   34   56 1   
    58   34   68 1   
    59   35   36 1   
    60   35   57 1   
    61   35   58 1   
    62   36   37 1   
    63   36   59 1   
    64   36   60 1   
    65   37   38 1   
    66   37   39 1   
    67   37   69 1   
    68   38   61 1   
    69   38   62 1   
    70   38   63 1   
    71   39   64 1   
    72   39   65 1   
    73   39   66 1   
@<TRIPOS>SUBSTRUCTURE
     1 W2P         1 TEMP              0 ****  ****    0 ROOT
