@<TRIPOS>MOLECULE
W2P
   69    72     1     0     0
SMALL
bcc


@<TRIPOS>ATOM
      1 C1         -1.2850   -0.8060   -0.6470 ca        1 W2P      0.077600
      2 C2         -0.0550   -1.4640   -0.8300 ca        1 W2P     -0.162000
      3 C3          0.8150   -1.6490    0.2490 ca        1 W2P      0.012400
      4 C4          0.4550   -1.1820    1.5240 ca        1 W2P      0.094100
      5 C5         -0.7930   -0.5710    1.7210 ca        1 W2P     -0.081000
      6 C6         -1.6590   -0.3920    0.6510 ca        1 W2P     -0.141000
      7 O7          1.2420   -1.4260    2.6470 os        1 W2P     -0.218200
      8 C8          2.2750   -0.5190    2.8700 ca        1 W2P      0.118100
      9 Cl9         2.2830   -2.4550   -0.0290 cl        1 W2P     -0.063400
     10 C10         2.8790   -0.6020    4.1410 ca        1 W2P     -0.090000
     11 C11         3.9350    0.2510    4.4370 ca        1 W2P     -0.089000
     12 C12         4.4000    1.1750    3.4920 ca        1 W2P     -0.084000
     13 C13         3.7950    1.2340    2.2400 ca        1 W2P     -0.156300
     14 C14         2.7220    0.3950    1.9170 ca        1 W2P     -0.173000
     15 C15         4.3040    2.1970    1.1820 c3        1 W2P      0.696200
     16 F16         3.3660    2.5610    0.2340 f         1 W2P     -0.252300
     17 F17         4.8110    3.3810    1.6330 f         1 W2P     -0.252300
     18 F18         5.3090    1.6790    0.3840 f         1 W2P     -0.252300
     19 N19        -2.5200   -3.4580   -4.8090 nb        1 W2P     -0.613000
     20 C20        -2.4220   -3.7060   -3.4750 ca        1 W2P      0.647900
     21 N21        -2.2970   -2.8070   -2.4640 nb        1 W2P     -0.684000
     22 C22        -2.2720   -1.4820   -2.7870 ca        1 W2P      0.560200
     23 C23        -2.5230   -2.1560   -5.1390 ca        1 W2P      0.468100
     24 C24        -2.4140   -1.0870   -4.1410 ca        1 W2P     -0.301800
     25 N25        -2.3890    0.1530   -4.8140 na        1 W2P     -0.102400
     26 C26        -2.5730   -0.1330   -6.1990 cc        1 W2P     -0.087100
     27 C27        -2.6130   -1.4900   -6.4360 cd        1 W2P     -0.246800
     28 C28        -2.8900    1.3730   -4.2520 c3        1 W2P      0.018300
     29 C29        -1.7770    2.3760   -3.8680 c3        1 W2P      0.085800
     30 N30        -0.7600    1.8120   -2.9340 ny        1 W2P     -0.688800
     31 C31         0.5980    1.5810   -3.5360 c         1 W2P      0.542100
     32 C32         1.6500    1.0950   -2.5730 c3        1 W2P     -0.165400
     33 O33         0.7580    1.7960   -4.7270 o         1 W2P     -0.399100
     34 N34        -2.1060   -0.4690   -1.7700 nu        1 W2P     -0.730300
     35 C35         2.9700    0.8920   -3.3000 c3        1 W2P     -0.102400
     36 C36         3.9990    0.3580   -2.3090 c3        1 W2P      0.093800
     37 N37         5.3930    0.2810   -2.8560 nx        1 W2P     -0.672400
     38 C38         6.0220    1.6280   -2.9450 c3        1 W2P      0.078600
     39 C39         6.2260   -0.6160   -2.0050 c3        1 W2P      0.078600
     40 H1          0.2100   -1.8930   -1.8100 ha        1 W2P      0.156000
     41 H2         -1.0850   -0.2580    2.7390 ha        1 W2P      0.185000
     42 H3         -2.6480    0.0610    0.8360 ha        1 W2P      0.162000
     43 H4          2.5080   -1.3370    4.8750 ha        1 W2P      0.183000
     44 H5          4.4130    0.2040    5.4310 ha        1 W2P      0.175000
     45 H6          5.2330    1.8520    3.7430 ha        1 W2P      0.170000
     46 H7          2.2390    0.4660    0.9340 ha        1 W2P      0.124000
     47 H9         -2.6340    0.6930   -6.9160 h4        1 W2P      0.192000
     48 H10        -2.7020   -2.0010   -7.3950 ha        1 W2P      0.206000
     49 H11        -3.5350    1.1670   -3.3510 h1        1 W2P      0.097200
     50 H12        -3.5330    1.9160   -5.0100 h1        1 W2P      0.097200
     51 H13        -2.2690    3.2580   -3.3630 hx        1 W2P      0.121700
     52 H14        -1.2610    2.7430   -4.8030 hx        1 W2P      0.121700
     53 H15        -0.6420    2.4500   -2.1400 hn        1 W2P      0.482800
     54 H16         1.3080    0.1260   -2.1060 hc        1 W2P      0.114200
     55 H17         1.7830    1.8470   -1.7440 hc        1 W2P      0.114200
     56 H18        -3.0240   -0.1820   -1.4550 hn        1 W2P      0.413800
     57 H19         3.3000    1.8710   -3.7430 hc        1 W2P      0.089700
     58 H20         2.8280    0.1720   -4.1500 hc        1 W2P      0.089700
     59 H21         3.6990   -0.6830   -1.9860 hx        1 W2P      0.116200
     60 H22         4.0330    1.0180   -1.3900 hx        1 W2P      0.116200
     61 H24         5.4040    2.2910   -3.6050 hx        1 W2P      0.113700
     62 H25         6.0950    2.0750   -1.9150 hx        1 W2P      0.113700
     63 H26         7.0540    1.5240   -3.3800 hx        1 W2P      0.113700
     64 H27         6.2470   -0.2140   -0.9540 hx        1 W2P      0.113700
     65 H28         7.2720   -0.6450   -2.4160 hx        1 W2P      0.113700
     66 H29         5.7920   -1.6510   -2.0100 hx        1 W2P      0.113700
     67 H302       -1.1210    0.8890   -2.5530 hn        1 W2P      0.482800
     68 H371        5.3480   -0.1180   -3.8040 hn        1 W2P      0.451800
     69 H8         -2.4500   -4.7770   -3.1670 h5        1 W2P      0.091100
@<TRIPOS>BOND
     1    1    2 ar  
     2    1    6 ar  
     3    1   34 1   
     4    2    3 ar  
     5    2   40 1   
     6    3    4 ar  
     7    3    9 1   
     8    4    5 ar  
     9    4    7 1   
    10    5    6 ar  
    11    5   41 1   
    12    6   42 1   
    13    7    8 1   
    14    8   10 ar  
    15    8   14 ar  
    16   10   11 ar  
    17   10   43 1   
    18   11   12 ar  
    19   11   44 1   
    20   12   13 ar  
    21   12   45 1   
    22   13   14 ar  
    23   13   15 1   
    24   14   46 1   
    25   15   16 1   
    26   15   17 1   
    27   15   18 1   
    28   19   20 ar  
    29   19   23 ar  
    30   20   21 ar  
    31   20   69 1   
    32   21   22 ar  
    33   22   24 ar  
    34   22   34 1   
    35   23   24 ar  
    36   23   27 1   
    37   24   25 1   
    38   25   26 1   
    39   25   28 1   
    40   26   27 2   
    41   26   47 1   
    42   27   48 1   
    43   28   29 1   
    44   28   49 1   
    45   28   50 1   
    46   29   30 1   
    47   29   51 1   
    48   29   52 1   
    49   30   31 1   
    50   30   53 1   
    51   30   67 1   
    52   31   32 1   
    53   31   33 2   
    54   32   35 1   
    55   32   54 1   
    56   32   55 1   
    57   34   56 1   
    58   35   36 1   
    59   35   57 1   
    60   35   58 1   
    61   36   37 1   
    62   36   59 1   
    63   36   60 1   
    64   37   38 1   
    65   37   39 1   
    66   37   68 1   
    67   38   61 1   
    68   38   62 1   
    69   38   63 1   
    70   39   64 1   
    71   39   65 1   
    72   39   66 1   
@<TRIPOS>SUBSTRUCTURE
     1 W2P         1 TEMP              0 ****  ****    0 ROOT
