@<TRIPOS>MOLECULE
W2P
   67    70     1     0     0
SMALL
bcc


@<TRIPOS>ATOM
      1 C1          0.0830    1.3370   -0.4000 ca        1 W2P      0.154600
      2 C2          0.1340   -0.0080    0.0300 ca        1 W2P     -0.164000
      3 C3          1.2640   -0.7880   -0.2210 ca        1 W2P      0.030400
      4 C4          2.3610   -0.2270   -0.8930 ca        1 W2P      0.053100
      5 C5          2.3210    1.1070   -1.3170 ca        1 W2P     -0.107000
      6 C6          1.1940    1.8830   -1.0810 ca        1 W2P     -0.122000
      7 O7          3.4510   -1.0060   -1.2850 os        1 W2P     -0.238200
      8 C8          4.4530   -1.1760   -0.3370 ca        1 W2P      0.119100
      9 CL9         1.2760   -2.4020    0.3060 cl        1 W2P     -0.072400
     10 C10         4.5380   -0.4540    0.8590 ca        1 W2P     -0.156000
     11 C11         5.6110   -0.6880    1.7180 ca        1 W2P     -0.102000
     12 C12         6.5890   -1.6250    1.3910 ca        1 W2P     -0.116000
     13 C13         6.4910   -2.3360    0.1920 ca        1 W2P     -0.141300
     14 C14         5.4280   -2.1270   -0.6840 ca        1 W2P     -0.106000
     15 C15         7.5730   -3.3470   -0.1710 c3        1 W2P      0.687200
     16 F16         8.6430   -2.8070   -0.8430 f         1 W2P     -0.237633
     17 F17         8.1440   -3.9820    0.9060 f         1 W2P     -0.237633
     18 F18         7.1530   -4.3730   -0.9810 f         1 W2P     -0.237633
     19 N19        -1.0260    6.1280    1.1030 nb        1 W2P     -0.667000
     20 C20        -0.0020    5.2560    1.1830 ca        1 W2P      0.631900
     21 N21         0.0380    3.9450    0.7990 nb        1 W2P     -0.738000
     22 C22        -1.0800    3.4060    0.2440 ca        1 W2P      0.663200
     23 C23        -2.1580    5.6120    0.5640 ca        1 W2P      0.441100
     24 C24        -2.2500    4.2270    0.1080 ca        1 W2P     -0.298800
     25 N25        -3.5230    4.0350   -0.4380 na        1 W2P     -0.048400
     26 C26        -4.2400    5.2320   -0.2850 cc        1 W2P     -0.097100
     27 C27        -3.4480    6.2160    0.2950 cd        1 W2P     -0.296800
     28 C28        -4.1300    2.8030   -0.8420 c3        1 W2P      0.010300
     29 C29        -4.6690    1.9600    0.3480 c3        1 W2P      0.065000
     30 N30        -5.0280    0.6240   -0.0230 n         1 W2P     -0.572900
     31 C31        -4.1590   -0.4370    0.1290 c         1 W2P      0.670100
     32 C32        -4.6070   -1.8260   -0.2740 c3        1 W2P     -0.154400
     33 O33        -3.0080   -0.2440    0.5800 o         1 W2P     -0.641100
     34 N34        -1.1110    2.0770   -0.2380 nh        1 W2P     -0.725300
     35 C35        -6.0760   -2.1030   -0.0520 c3        1 W2P     -0.084400
     36 C36        -6.3350   -3.6080   -0.1810 c3        1 W2P      0.173800
     37 N37        -7.7350   -3.9580    0.0140 n3        1 W2P     -0.744600
     38 C38        -8.5490   -3.7270   -1.1570 c3        1 W2P      0.159100
     39 C39        -7.9130   -5.2800    0.5710 c3        1 W2P      0.159100
     40 H1         -0.7280   -0.4560    0.5570 ha        1 W2P      0.178000
     41 H2          3.1870    1.5280   -1.8500 ha        1 W2P      0.154000
     42 H3          1.1790    2.9270   -1.4290 ha        1 W2P      0.155000
     43 H4          3.7650    0.2850    1.1160 ha        1 W2P      0.157000
     44 H5          5.6840   -0.1270    2.6620 ha        1 W2P      0.144000
     45 H6          7.4340   -1.8120    2.0720 ha        1 W2P      0.151000
     46 H7          5.3420   -2.6900   -1.6250 ha        1 W2P      0.168000
     47 H9         -5.2730    5.3010   -0.6330 h4        1 W2P      0.169000
     48 H10        -3.7210    7.2450    0.5080 ha        1 W2P      0.175000
     49 H11        -4.9910    3.0520   -1.5270 h1        1 W2P      0.073700
     50 H12        -3.3850    2.2040   -1.4380 h1        1 W2P      0.073700
     51 H13        -3.8840    1.9120    1.1580 h1        1 W2P      0.069200
     52 H14        -5.5780    2.4740    0.7710 h1        1 W2P      0.069200
     53 H15        -5.9270    0.4720   -0.4120 hn        1 W2P      0.319500
     54 H16        -4.3430   -1.9640   -1.3570 hc        1 W2P      0.082200
     55 H17        -3.9830   -2.5510    0.3180 hc        1 W2P      0.082200
     56 H18        -1.8690    1.5400    0.1500 hn        1 W2P      0.445800
     57 H19        -6.3890   -1.7550    0.9670 hc        1 W2P      0.051700
     58 H20        -6.6940   -1.5480   -0.8060 hc        1 W2P      0.051700
     59 H21        -5.9590   -3.9490   -1.1900 h1        1 W2P      0.035200
     60 H22        -5.7170   -4.1340    0.6020 h1        1 W2P      0.035200
     61 H24        -8.2820   -4.3950   -2.0220 h1        1 W2P      0.032700
     62 H25        -9.6240   -3.9030   -0.8910 h1        1 W2P      0.032700
     63 H26        -8.4310   -2.6610   -1.4830 h1        1 W2P      0.032700
     64 H27        -7.5310   -6.0990   -0.0990 h1        1 W2P      0.032700
     65 H28        -7.3750   -5.3400    1.5530 h1        1 W2P      0.032700
     66 H29        -9.0070   -5.4510    0.7510 h1        1 W2P      0.032700
     67 H8          0.9430    5.6400    1.6230 h5        1 W2P      0.054100
@<TRIPOS>BOND
     1    1    2 ar  
     2    1    6 ar  
     3    1   34 1   
     4    2    3 ar  
     5    2   40 1   
     6    3    4 ar  
     7    3    9 1   
     8    4    5 ar  
     9    4    7 1   
    10    5    6 ar  
    11    5   41 1   
    12    6   42 1   
    13    7    8 1   
    14    8   10 ar  
    15    8   14 ar  
    16   10   11 ar  
    17   10   43 1   
    18   11   12 ar  
    19   11   44 1   
    20   12   13 ar  
    21   12   45 1   
    22   13   14 ar  
    23   13   15 1   
    24   14   46 1   
    25   15   16 1   
    26   15   17 1   
    27   15   18 1   
    28   19   20 ar  
    29   19   23 ar  
    30   20   21 ar  
    31   20   67 1   
    32   21   22 ar  
    33   22   24 ar  
    34   22   34 1   
    35   23   24 ar  
    36   23   27 1   
    37   24   25 1   
    38   25   26 1   
    39   25   28 1   
    40   26   27 2   
    41   26   47 1   
    42   27   48 1   
    43   28   29 1   
    44   28   49 1   
    45   28   50 1   
    46   29   30 1   
    47   29   51 1   
    48   29   52 1   
    49   30   31 1   
    50   30   53 1   
    51   31   32 1   
    52   31   33 2   
    53   32   35 1   
    54   32   54 1   
    55   32   55 1   
    56   34   56 1   
    57   35   36 1   
    58   35   57 1   
    59   35   58 1   
    60   36   37 1   
    61   36   59 1   
    62   36   60 1   
    63   37   38 1   
    64   37   39 1   
    65   38   61 1   
    66   38   62 1   
    67   38   63 1   
    68   39   64 1   
    69   39   65 1   
    70   39   66 1   
@<TRIPOS>SUBSTRUCTURE
     1 W2P         1 TEMP              0 ****  ****    0 ROOT
