@<TRIPOS>MOLECULE
W2P
   69    72     1     0     0
SMALL
bcc


@<TRIPOS>ATOM
      1 C1         -0.9940   -0.0940   -1.1590 ca        1 W2P      0.095600
      2 C2         -0.0590   -1.0650   -1.5750 ca        1 W2P     -0.184000
      3 C3          1.2450   -1.0550   -1.0710 ca        1 W2P      0.003400
      4 C4          1.6270   -0.0660   -0.1510 ca        1 W2P      0.060100
      5 C5          0.6860    0.8580    0.3210 ca        1 W2P     -0.113000
      6 C6         -0.6120    0.8450   -0.1700 ca        1 W2P     -0.146000
      7 O7          2.9720    0.0280    0.2050 os        1 W2P     -0.322200
      8 C8          3.2120    0.1140    1.5880 ca        1 W2P      0.035100
      9 CL9         2.3310   -2.2500   -1.6010 cl        1 W2P     -0.063400
     10 C10         3.1200   -1.0250    2.3970 ca        1 W2P     -0.098000
     11 C11         3.4880   -0.9240    3.7380 ca        1 W2P     -0.102000
     12 C12         3.9380    0.2920    4.2610 ca        1 W2P     -0.054000
     13 C13         4.0150    1.4160    3.4360 ca        1 W2P     -0.149300
     14 C14         3.6420    1.3440    2.0920 ca        1 W2P     -0.116000
     15 C15         4.4950    2.7600    3.9860 c3        1 W2P      0.689200
     16 F16         3.4770    3.6500    4.2230 f         1 W2P     -0.221633
     17 F17         5.1860    2.6810    5.1650 f         1 W2P     -0.221633
     18 F18         5.3360    3.4260    3.1250 f         1 W2P     -0.221633
     19 N19        -4.0750   -3.6140   -3.1180 nb        1 W2P     -0.607000
     20 C20        -3.7330   -3.3250   -1.8330 ca        1 W2P      0.646900
     21 N21        -3.1460   -2.1950   -1.3620 nb        1 W2P     -0.688000
     22 C22        -2.8600   -1.2020   -2.2530 ca        1 W2P      0.560200
     23 C23        -3.8080   -2.6430   -4.0050 ca        1 W2P      0.465100
     24 C24        -3.1840   -1.3690   -3.6210 ca        1 W2P     -0.280800
     25 N25        -2.9760   -0.6090   -4.7880 na        1 W2P     -0.110400
     26 C26        -3.5470   -1.3460   -5.8670 cc        1 W2P     -0.091100
     27 C27        -4.0140   -2.5730   -5.4500 cd        1 W2P     -0.240800
     28 C28        -2.8910    0.8190   -4.8380 c3        1 W2P      0.022300
     29 C29        -1.4640    1.3280   -5.1520 c3        1 W2P      0.085800
     30 N30        -0.4790    0.9760   -4.0870 n4        1 W2P     -0.664800
     31 C31         0.9530    1.2480   -4.4690 c         1 W2P      0.536100
     32 C32         1.8840    1.6050   -3.3390 c3        1 W2P     -0.159400
     33 O33         1.2490    1.1590   -5.6500 o         1 W2P     -0.386100
     34 N34        -2.2520    0.0270   -1.8040 nh        1 W2P     -0.731300
     35 C35         3.1890    0.8380   -3.4780 c3        1 W2P     -0.105400
     36 C36         4.1700    1.2900   -2.3960 c3        1 W2P      0.109800
     37 N37         5.0780    0.2050   -1.9020 n4        1 W2P     -0.675400
     38 C38         5.9300   -0.3400   -2.9900 c3        1 W2P      0.079600
     39 C39         5.9220    0.7140   -0.7840 c3        1 W2P      0.079600
     40 H1         -0.3670   -1.8830   -2.2490 ha        1 W2P      0.175000
     41 H2          0.9800    1.5780    1.1050 ha        1 W2P      0.180000
     42 H3         -1.3480    1.5590    0.2380 ha        1 W2P      0.174000
     43 H4          2.7600   -1.9790    1.9820 ha        1 W2P      0.165000
     44 H5          3.4230   -1.8090    4.3940 ha        1 W2P      0.176000
     45 H6          4.2330    0.3670    5.3240 ha        1 W2P      0.185000
     46 H7          3.6920    2.2380    1.4530 ha        1 W2P      0.148000
     47 H9         -3.5460   -0.9160   -6.8750 h4        1 W2P      0.191000
     48 H10        -4.4620   -3.3620   -6.0550 ha        1 W2P      0.207000
     49 H11        -3.2590    1.2800   -3.8780 h1        1 W2P      0.103700
     50 H12        -3.5380    1.2170   -5.6790 h1        1 W2P      0.103700
     51 H13        -1.0960    0.8910   -6.1260 hx        1 W2P      0.122200
     52 H14        -1.4960    2.4510   -5.2450 hx        1 W2P      0.122200
     53 H15        -0.5620   -0.0330   -3.8710 hn        1 W2P      0.474300
     54 H16         2.0740    2.7150   -3.4060 hc        1 W2P      0.112700
     55 H17         1.4280    1.3900   -2.3310 hc        1 W2P      0.112700
     56 H18        -2.9070    0.5470   -1.2380 hn        1 W2P      0.427800
     57 H19         3.6320    1.0210   -4.4950 hc        1 W2P      0.091700
     58 H20         2.9720   -0.2630   -3.3990 hc        1 W2P      0.091700
     59 H21         3.6060    1.6650   -1.4900 hx        1 W2P      0.113200
     60 H22         4.8150    2.1270   -2.7930 hx        1 W2P      0.113200
     61 H24         5.2810   -0.7210   -3.8230 hx        1 W2P      0.111033
     62 H25         6.6090    0.4660   -3.3790 hx        1 W2P      0.111033
     63 H26         6.5530   -1.1850   -2.5860 hx        1 W2P      0.111033
     64 H27         5.2540    0.9870    0.0820 hx        1 W2P      0.111033
     65 H28         6.6330   -0.0960   -0.4640 hx        1 W2P      0.111033
     66 H29         6.5040    1.6110   -1.1230 hx        1 W2P      0.111033
     67 H302       -0.7120    1.4920   -3.2280 hn        1 W2P      0.474300
     68 H371        4.4820   -0.5550   -1.5280 hn        1 W2P      0.468800
     69 H8         -3.9620   -4.1060   -1.0730 h5        1 W2P      0.090100
@<TRIPOS>BOND
     1    1    2 ar  
     2    1    6 ar  
     3    1   34 1   
     4    2    3 ar  
     5    2   40 1   
     6    3    4 ar  
     7    3    9 1   
     8    4    5 ar  
     9    4    7 1   
    10    5    6 ar  
    11    5   41 1   
    12    6   42 1   
    13    7    8 1   
    14    8   10 ar  
    15    8   14 ar  
    16   10   11 ar  
    17   10   43 1   
    18   11   12 ar  
    19   11   44 1   
    20   12   13 ar  
    21   12   45 1   
    22   13   14 ar  
    23   13   15 1   
    24   14   46 1   
    25   15   16 1   
    26   15   17 1   
    27   15   18 1   
    28   19   20 ar  
    29   19   23 ar  
    30   20   21 ar  
    31   20   69 1   
    32   21   22 ar  
    33   22   24 ar  
    34   22   34 1   
    35   23   24 ar  
    36   23   27 1   
    37   24   25 1   
    38   25   26 1   
    39   25   28 1   
    40   26   27 2   
    41   26   47 1   
    42   27   48 1   
    43   28   29 1   
    44   28   49 1   
    45   28   50 1   
    46   29   30 1   
    47   29   51 1   
    48   29   52 1   
    49   30   31 1   
    50   30   53 1   
    51   30   67 1   
    52   31   32 1   
    53   31   33 2   
    54   32   35 1   
    55   32   54 1   
    56   32   55 1   
    57   34   56 1   
    58   35   36 1   
    59   35   57 1   
    60   35   58 1   
    61   36   37 1   
    62   36   59 1   
    63   36   60 1   
    64   37   38 1   
    65   37   39 1   
    66   37   68 1   
    67   38   61 1   
    68   38   62 1   
    69   38   63 1   
    70   39   64 1   
    71   39   65 1   
    72   39   66 1   
@<TRIPOS>SUBSTRUCTURE
     1 W2P         1 TEMP              0 ****  ****    0 ROOT
