@<TRIPOS>MOLECULE
W2R
   74    75     1     0     0
SMALL
bcc


@<TRIPOS>ATOM
      1 C1          2.8580    2.1850   -0.9640 c2        1 W2R     -0.095000
      2 C2          3.8060    1.3560   -0.5020 c2        1 W2R     -0.194000
      3 C3          1.1230    4.8650    4.2470 ca        1 W2R     -0.128000
      4 C4          3.7290    3.2840    0.9560 c1        1 W2R      0.240000
      5 C5          2.1350    4.3180    3.4710 ca        1 W2R     -0.133000
      6 C6         -3.8210    8.4470    8.3960 c1        1 W2R      0.029000
      7 C7          3.6190    1.0010    1.8990 c2        1 W2R     -0.039000
      8 C8          1.9090    3.5820    6.1640 ca        1 W2R     -0.140000
      9 C9         -3.0110    7.5500    8.1650 c1        1 W2R     -0.761000
     10 C10        -3.1250    4.2850    4.5080 c1        1 W2R      0.000000
     11 C11        -3.7230    5.7000    6.2480 c2        1 W2R      0.100000
     12 C12        -2.3680    5.7480    6.7390 c2        1 W2R     -0.282000
     13 C13         3.6040    0.4550    0.6530 c2        1 W2R     -0.059000
     14 C14         0.9870    4.4910    5.6030 ca        1 W2R      0.039000
     15 C15         3.7760    2.4410    2.0130 c2        1 W2R     -0.248000
     16 C16         3.0290    3.3960    4.0270 ca        1 W2R      0.026000
     17 C17         2.9210    3.0270    5.3770 ca        1 W2R     -0.054000
     18 C18        -1.3670    5.0240    6.0290 c2        1 W2R      0.167000
     19 C19         3.7560   -1.9690    1.1280 c2        1 W2R      0.369000
     20 C20         4.3580   -2.5750    5.7250 c3        1 W2R     -0.216000
     21 C21         4.6140   -2.6470    3.2690 c2        1 W2R      0.053000
     22 C22         5.1160   -2.0220    4.5330 c3        1 W2R     -0.065000
     23 C23         4.5070   -3.9390    2.9390 c2        1 W2R     -0.229000
     24 C24         6.6080   -2.2600    4.6760 c3        1 W2R     -0.216000
     25 C25         3.9720   -4.3770    1.6220 c3        1 W2R      0.005000
     26 C27        -0.7600    6.1610   10.0460 c3        1 W2R     -0.047000
     27 C28         2.0400    4.6970   10.4670 c3        1 W2R     -0.055000
     28 C29         1.6300    6.1140   10.0800 c3        1 W2R     -0.055000
     29 N30        -4.0700    4.9800    5.1890 n2        1 W2R     -0.220000
     30 N31        -1.8060    4.3040    4.9140 n3        1 W2R     -0.215000
     31 N32        -2.0550    6.5660    7.9170 n4        1 W2R      0.268000
     32 N34         3.4120   -0.9120    0.3400 n3        1 W2R     -0.197000
     33 N35         3.6330   -3.2700    0.7430 n3        1 W2R     -0.313000
     34 O36         4.2190   -1.6210    2.3750 os        1 W2R     -0.135000
     35 O37         2.4760    3.9540    9.3450 oh        1 W2R     -0.335000
     36 O38         4.1110    2.9030    3.2920 os        1 W2R     -0.117000
     37 O39         0.4490    6.1000    9.2870 os        1 W2R     -0.321000
     38 CL1         3.9970    1.9250    6.0910 cl        1 W2R      0.016000
     39 H1          3.0650    2.8930   -1.7830 ha        1 W2R      0.151500
     40 H2          4.8240    1.3360   -0.9320 ha        1 W2R      0.168000
     41 H3          2.2450    4.6170    2.4150 ha        1 W2R      0.158000
     42 H4          1.8280    2.2050   -0.5760 ha        1 W2R      0.151500
     43 H5          0.4450    5.6120    3.8000 ha        1 W2R      0.167000
     44 H6         -4.5080    6.2950    6.7690 h4        1 W2R      0.220000
     45 H7          3.5310    0.4310    2.8390 ha        1 W2R      0.174000
     46 H8          1.8450    3.3100    7.2360 ha        1 W2R      0.185000
     47 H9         -1.1580    7.0460    7.7400 hn        1 W2R      0.227000
     48 H10        -1.1450    3.7920    4.3690 hn        1 W2R      0.254000
     49 H11         5.9180    0.2680    7.1670 ha        1 W2R      0.002500
     50 H12         6.9720   -1.7600    5.6070 hc        1 W2R      0.094833
     51 H13         4.5240   -3.6750    5.8260 hc        1 W2R      0.094833
     52 H14         4.7230   -2.0740    6.6560 hc        1 W2R      0.094833
     53 H15         5.7690   -0.0830    6.6060 ha        1 W2R      0.002500
     54 H16         3.2640   -2.3830    5.6220 hc        1 W2R      0.094833
     55 H17         4.8110   -4.7400    3.6310 ha        1 W2R      0.200000
     56 H18         4.7390   -5.0180    1.0910 h1        1 W2R      0.136500
     57 H19         3.0380   -4.9980    1.7780 h1        1 W2R      0.136500
     58 H20         7.1610   -1.8360    3.8040 hc        1 W2R      0.094833
     59 H21         6.8300   -3.3520    4.7480 hc        1 W2R      0.094833
     60 H22        -0.9260    7.2210   10.3790 h1        1 W2R      0.110500
     61 H23        -1.6470    4.6290    8.7770 hx        1 W2R      0.135000
     62 H24        -2.8450    5.6690    9.6990 hx        1 W2R      0.135000
     63 H25        -0.7060    5.4840   10.9390 h1        1 W2R      0.110500
     64 H26         2.4020    6.5830    9.4110 h1        1 W2R      0.106500
     65 H27         1.4910    6.7450   10.9960 h1        1 W2R      0.106500
     66 H28         2.8450    4.7380   11.2480 h1        1 W2R      0.100500
     67 H29         1.1610    4.1190   10.8620 h1        1 W2R      0.100500
     68 H30         0.1860    5.1250    7.3870 hn        1 W2R      0.272000
     69 H31         3.1000   -1.0920   -0.5980 hn        1 W2R      0.280000
     70 H32         4.9350   -0.9070    4.4780 hc        1 W2R      0.128000
     71 H33         3.2960    4.3580    9.0350 ho        1 W2R      0.203000
     72 C26        -1.8750    5.6740    9.1250 c3        1 W2R     -0.128000
     73 H352        3.2930   -3.5010   -0.1680 hn        1 W2R      0.281000
     74 N33        -0.0210    5.0640    6.4080 nh        1 W2R     -0.285000
@<TRIPOS>BOND
     1    1    2 1   
     2    1   39 1   
     3    1   42 1   
     4    2   13 1   
     5    2   40 1   
     6    3    5 1   
     7    3   14 1   
     8    3   43 1   
     9    4   15 1   
    10    5   16 1   
    11    5   41 1   
    12    6    9 1   
    13    7   13 1   
    14    7   15 1   
    15    7   45 1   
    16    8   14 1   
    17    8   17 1   
    18    8   46 1   
    19    9   31 1   
    20   10   29 1   
    21   10   30 1   
    22   11   12 1   
    23   11   29 1   
    24   11   44 1   
    25   12   18 1   
    26   12   31 1   
    27   13   32 1   
    28   14   74 1   
    29   15   36 1   
    30   16   17 1   
    31   16   36 1   
    32   17   38 1   
    33   18   30 1   
    34   18   74 1   
    35   19   32 1   
    36   19   33 1   
    37   19   34 1   
    38   20   22 1   
    39   20   51 1   
    40   20   52 1   
    41   20   54 1   
    42   21   22 1   
    43   21   23 1   
    44   21   34 1   
    45   22   24 1   
    46   22   70 1   
    47   23   25 1   
    48   23   55 1   
    49   24   50 1   
    50   24   58 1   
    51   24   59 1   
    52   25   33 1   
    53   25   56 1   
    54   25   57 1   
    55   26   37 1   
    56   26   60 1   
    57   26   63 1   
    58   26   72 1   
    59   27   28 1   
    60   27   35 1   
    61   27   66 1   
    62   27   67 1   
    63   28   37 1   
    64   28   64 1   
    65   28   65 1   
    66   30   48 1   
    67   31   47 1   
    68   31   72 1   
    69   32   69 1   
    70   33   73 1   
    71   35   71 1   
    72   49   53 1   
    73   61   72 1   
    74   62   72 1   
    75   68   74 1   
@<TRIPOS>SUBSTRUCTURE
     1 W2R         1 TEMP              0 ****  ****    0 ROOT
