@<TRIPOS>MOLECULE
W2R
   73    77     1     0     0
SMALL
bcc


@<TRIPOS>ATOM
      1 C1          3.3280    4.9010   -0.4970 ca        1 W2R     -0.100000
      2 C2          4.3460    4.1090    0.0240 ca        1 W2R     -0.180000
      3 C3         -0.9560    0.7190    0.0430 ca        1 W2R     -0.091000
      4 C4          2.2920    4.3390   -1.2390 ca        1 W2R     -0.147000
      5 C5          0.2170    1.2160   -0.5080 ca        1 W2R     -0.142000
      6 C6         -6.4800   -0.7560    3.3780 cc        1 W2R     -0.299800
      7 C7          3.3190    2.1350   -0.9640 ca        1 W2R     -0.142000
      8 C8         -2.2260    1.7420   -1.7610 ca        1 W2R     -0.156000
      9 C9         -6.7930   -1.3650    2.1700 cd        1 W2R     -0.091100
     10 C10        -3.5000    1.4140    3.4130 ca        1 W2R      0.632900
     11 C11        -5.2860    0.0350    3.1520 ca        1 W2R      0.444100
     12 C12        -4.9340   -0.1470    1.7460 ca        1 W2R     -0.305800
     13 C13         4.3570    2.7120   -0.2040 ca        1 W2R      0.068600
     14 C14        -2.1970    0.9720   -0.5800 ca        1 W2R      0.116600
     15 C15         2.3070    2.9590   -1.4630 ca        1 W2R      0.105100
     16 C16         0.1820    1.9740   -1.6860 ca        1 W2R      0.099100
     17 C17        -1.0450    2.2420   -2.3140 ca        1 W2R      0.021400
     18 C18        -3.7840    0.5600    1.2570 ca        1 W2R      0.656200
     19 C19         5.2650    0.6270    0.7700 c         1 W2R      0.750100
     20 C20         7.4970   -4.0710    1.9610 c3        1 W2R     -0.080400
     21 C21         6.6700   -3.6860    0.7520 c3        1 W2R     -0.074900
     22 C22         7.1090   -3.2480    3.1710 c3        1 W2R     -0.074900
     23 C23         6.7660   -2.2030    0.4640 c3        1 W2R     -0.091900
     24 C24         7.2140   -1.7630    2.8920 c3        1 W2R     -0.091900
     25 C25         6.3270   -1.3870    1.6920 c3        1 W2R      0.086700
     26 C27        -4.7600   -2.7650   -0.1840 c3        1 W2R      0.104400
     27 C28        -4.5270   -5.0900   -3.0160 c3        1 W2R      0.127400
     28 C29        -4.0810   -4.4480   -1.7060 c3        1 W2R      0.126400
     29 N30        -4.5650    0.8210    3.9890 nb        1 W2R     -0.670000
     30 N31        -3.0760    1.3400    2.1170 nb        1 W2R     -0.733000
     31 N32        -5.8960   -0.9780    1.1590 na        1 W2R     -0.052400
     32 N34         5.4360    1.9450    0.2790 n         1 W2R     -0.462100
     33 N35         6.3450    0.0510    1.4720 n         1 W2R     -0.534900
     34 O36         4.1920    0.0010    0.6110 o         1 W2R     -0.621100
     35 O37        -3.7140   -4.5470   -4.0430 oh        1 W2R     -0.599800
     36 O38         1.3490    2.4000   -2.3170 os        1 W2R     -0.249200
     37 O39        -5.0910   -3.4990   -1.3600 os        1 W2R     -0.433600
     38 CL1        -1.1450    3.1600   -3.7400 cl        1 W2R     -0.075400
     39 H1          3.3390    5.9860   -0.3140 ha        1 W2R      0.137000
     40 H2          5.1450    4.5850    0.6120 ha        1 W2R      0.131000
     41 H3         -0.9060    0.1270    0.9700 ha        1 W2R      0.156000
     42 H4          1.4820    4.9580   -1.6500 ha        1 W2R      0.153000
     43 H5          1.1860    1.0150   -0.0220 ha        1 W2R      0.167000
     44 H6         -7.0150   -0.8370    4.3190 ha        1 W2R      0.174000
     45 H7          3.2920    1.0510   -1.1660 ha        1 W2R      0.180000
     46 H8         -3.1820    1.9580   -2.2650 ha        1 W2R      0.144000
     47 H9         -7.6190   -2.0420    1.9370 h4        1 W2R      0.172000
     48 H10        -2.8800    2.0620    4.0680 h5        1 W2R      0.054100
     49 H11         7.3530   -5.1600    2.1840 hc        1 W2R      0.040700
     50 H12         8.5850   -3.9150    1.7350 hc        1 W2R      0.040700
     51 H13         7.0230   -4.2610   -0.1440 hc        1 W2R      0.044950
     52 H14         5.5970   -3.9630    0.9290 hc        1 W2R      0.044950
     53 H15         6.0570   -3.4980    3.4720 hc        1 W2R      0.044950
     54 H16         7.7770   -3.5080    4.0330 hc        1 W2R      0.044950
     55 H17         7.8190   -1.9400    0.1870 hc        1 W2R      0.046200
     56 H18         6.1050   -1.9490   -0.4060 hc        1 W2R      0.046200
     57 H19         6.8930   -1.1890    3.7990 hc        1 W2R      0.046200
     58 H20         8.2810   -1.4960    2.6760 hc        1 W2R      0.046200
     59 H21         5.2580   -1.6700    1.9350 h1        1 W2R      0.092700
     60 H22        -5.6410   -0.9120   -0.9230 h1        1 W2R      0.070200
     61 H23        -6.8350   -2.1270   -0.2990 h1        1 W2R      0.070200
     62 H24        -3.7300   -2.3320   -0.2670 h1        1 W2R      0.049700
     63 H25        -4.8070   -3.4500    0.7040 h1        1 W2R      0.049700
     64 H26        -4.3690   -6.2010   -2.9690 h1        1 W2R      0.038200
     65 H27        -5.6120   -4.8750   -3.2080 h1        1 W2R      0.038200
     66 H28        -4.0060   -5.2180   -0.8940 h1        1 W2R      0.048200
     67 H29        -3.0930   -3.9310   -1.8330 h1        1 W2R      0.048200
     68 H30        -4.1640    0.4970   -0.7190 hn        1 W2R      0.412800
     69 H31         6.1800    2.4830    0.6680 hn        1 W2R      0.307500
     70 H32         7.2520    0.4260    1.3030 hn        1 W2R      0.288500
     71 H33        -4.1470   -4.7500   -4.8800 ho        1 W2R      0.403000
     72 N33        -3.3910    0.3840   -0.0900 nh        1 W2R     -0.709300
     73 C26        -5.8260   -1.6580   -0.1020 c3        1 W2R      0.038300
@<TRIPOS>BOND
     1    1    2 ar  
     2    1    4 ar  
     3    1   39 1   
     4    2   13 ar  
     5    2   40 1   
     6    3    5 ar  
     7    3   14 ar  
     8    3   41 1   
     9    4   15 ar  
    10    4   42 1   
    11    5   16 ar  
    12    5   43 1   
    13    6    9 2   
    14    6   11 1   
    15    6   44 1   
    16    7   13 ar  
    17    7   15 ar  
    18    7   45 1   
    19    8   14 ar  
    20    8   17 ar  
    21    8   46 1   
    22    9   31 1   
    23    9   47 1   
    24   10   29 ar  
    25   10   30 ar  
    26   10   48 1   
    27   11   12 ar  
    28   11   29 ar  
    29   12   18 ar  
    30   12   31 1   
    31   13   32 1   
    32   14   72 1   
    33   15   36 1   
    34   16   17 ar  
    35   16   36 1   
    36   17   38 1   
    37   18   30 ar  
    38   18   72 1   
    39   19   32 1   
    40   19   33 1   
    41   19   34 2   
    42   20   21 1   
    43   20   22 1   
    44   20   49 1   
    45   20   50 1   
    46   21   23 1   
    47   21   51 1   
    48   21   52 1   
    49   22   24 1   
    50   22   53 1   
    51   22   54 1   
    52   23   25 1   
    53   23   55 1   
    54   23   56 1   
    55   24   25 1   
    56   24   57 1   
    57   24   58 1   
    58   25   33 1   
    59   25   59 1   
    60   26   37 1   
    61   26   62 1   
    62   26   63 1   
    63   26   73 1   
    64   27   28 1   
    65   27   35 1   
    66   27   64 1   
    67   27   65 1   
    68   28   37 1   
    69   28   66 1   
    70   28   67 1   
    71   31   73 1   
    72   32   69 1   
    73   33   70 1   
    74   35   71 1   
    75   60   73 1   
    76   61   73 1   
    77   68   72 1   
@<TRIPOS>SUBSTRUCTURE
     1 W2R         1 TEMP              0 ****  ****    0 ROOT
