@<TRIPOS>MOLECULE
W2R
   73    60     1     0     0
SMALL
bcc


@<TRIPOS>ATOM
      1 C1          2.4020   -2.0610   -3.3370 c1        1 W2R     -0.126750
      2 C2          3.5380   -1.8790   -2.5240 c1        1 W2R     -0.186000
      3 C3         -3.0840   -0.4200   -0.9450 c1        1 W2R     -0.126750
      4 C4          1.1520   -2.1960   -2.7570 c1        1 W2R     -0.126750
      5 C5         -2.1070   -1.2060   -1.5330 c1        1 W2R     -0.126750
      6 C6         -5.0960    4.8910    2.5830 c1        1 W2R     -0.187000
      7 C7          2.1290   -1.9740   -0.5680 c1        1 W2R     -0.186000
      8 C8         -2.3260   -1.0930    1.2160 c1        1 W2R     -0.168000
      9 C9         -6.3480    4.4520    2.2320 c1        1 W2R     -0.064000
     10 C10        -2.2000    2.6250    2.1690 c1        1 W2R     -0.030000
     11 C11        -4.2020    3.8600    2.3570 c1        1 W2R      0.007000
     12 C12        -4.8990    2.8030    1.8720 c1        1 W2R     -0.128000
     13 C13         3.4060   -1.8360   -1.1570 c1        1 W2R      0.097000
     14 C14        -3.1910   -0.3650    0.4260 c1        1 W2R      0.055000
     15 C15         1.0180   -2.1520   -1.3630 c1        1 W2R      0.097000
     16 C16        -1.2370   -1.9390   -0.7400 c1        1 W2R     -0.009000
     17 C17        -1.3440   -1.8840    0.6260 c1        1 W2R     -0.009000
     18 C18        -4.2390    1.6410    1.5300 c1        1 W2R      0.129000
     19 C19         5.5820   -2.0570    0.0320 c1        1 W2R      0.376000
     20 C20         9.5330   -0.6320   -0.0160 c3        1 W2R     -0.156000
     21 C21         9.8720   -1.9090   -0.2970 c3        1 W2R     -0.159000
     22 C22         9.2240   -0.1600    1.2040 c3        1 W2R     -0.159000
     23 C23         9.0470   -2.8850    0.4940 c3        1 W2R     -0.173000
     24 C24         8.4010   -1.1460    1.9860 c3        1 W2R     -0.173000
     25 C25         7.7020   -2.2420    1.0680 c3        1 W2R      0.013000
     26 C26        -7.5470    2.7170    1.3350 c3        1 W2R     -0.021000
     27 C27        -7.7960    3.2270   -0.1390 c3        1 W2R     -0.045000
     28 C28        -9.6410    0.8070   -2.1800 c3        1 W2R     -0.019000
     29 C29        -8.7120    1.9860   -1.9600 c3        1 W2R     -0.062000
     30 N30        -2.8520    3.7730    2.5060 n1        1 W2R     -0.139000
     31 N31        -2.9000    1.5580    1.6790 n2        1 W2R     -0.203000
     32 N32        -6.2360    3.1710    1.7940 n2        1 W2R     -0.144000
     33 N33        -4.3180    0.2470    1.0870 n2        1 W2R     -0.232000
     34 N34         4.8040   -1.4820   -1.0130 n2        1 W2R     -0.317000
     35 N35         7.0050   -1.7170    0.1570 n2        1 W2R     -0.342000
     36 O36         5.0570   -2.8720    0.8310 o         1 W2R     -0.374000
     37 O37        -8.9830   -0.1750   -2.9860 oh        1 W2R     -0.323000
     38 O38        -0.2520   -2.8040   -1.3560 os        1 W2R     -0.149000
     39 O39        -8.9440    2.5260   -0.7080 os        1 W2R     -0.297000
     40 CL1        -0.6440   -2.9140    1.8740 cl        1 W2R      0.017000
     41 H1          2.4930   -2.0910   -4.2880 ha        1 W2R      0.148000
     42 H2          4.3990   -1.7850   -2.9220 ha        1 W2R      0.159000
     43 H3         -3.7090    0.1070   -1.5140 ha        1 W2R      0.148000
     44 H4          0.3560   -2.3240   -3.3260 ha        1 W2R      0.148000
     45 H5         -2.0320   -1.2450   -2.5050 ha        1 W2R      0.148000
     46 H6         -4.8880    5.7290    2.9140 DU        1 W2R      0.174500
     47 H7          2.0370   -1.9450    0.3620 ha        1 W2R      0.159000
     48 H8         -2.4010   -1.0550    2.1660 ha        1 W2R      0.147000
     49 H9         -7.1870    4.9410    2.3680 DU        1 W2R      0.174500
     50 H10        -1.2360    2.5650    2.2750 ha        1 W2R      0.194000
     51 H11         8.7540   -0.4270   -0.5880 hc        1 W2R      0.076000
     52 H12        10.2550   -0.0920   -0.3300 hc        1 W2R      0.076000
     53 H13        10.8260   -2.0440   -0.0840 hc        1 W2R      0.080500
     54 H14         9.7360   -2.0690   -1.2250 hc        1 W2R      0.080500
     55 H15        10.0290    0.0180    1.6810 hc        1 W2R      0.080500
     56 H16         8.7200    0.6740    1.1070 hc        1 W2R      0.080500
     57 H17         9.5750   -3.2060    1.2340 hc        1 W2R      0.093750
     58 H18         8.8170   -3.6430   -0.0800 hc        1 W2R      0.093750
     59 H19         7.7200   -0.6640    2.4680 hc        1 W2R      0.093750
     60 H20         8.9910   -1.6060    2.6410 hc        1 W2R      0.093750
     61 H21         7.2100   -2.8610    1.5780 h1        1 W2R      0.130000
     62 H22        -8.2320    3.0690    1.9170 h1        1 W2R      0.109500
     63 H23        -7.5760    1.7470    1.3520 h1        1 W2R      0.109500
     64 H24        -6.9790    3.0450   -0.7000 h1        1 W2R      0.088500
     65 H25        -7.9800    4.2180   -0.1260 h1        1 W2R      0.088500
     66 H26        -9.8840    0.4060   -1.2980 h1        1 W2R      0.095000
     67 H27       -10.4550    1.1130   -2.6360 h1        1 W2R      0.095000
     68 H28        -7.7930    1.6890   -2.0200 h1        1 W2R      0.083000
     69 H29        -8.8780    2.6520   -2.6310 h1        1 W2R      0.083000
     70 H30        -5.0320   -0.2330    1.2720 hn        1 W2R      0.209000
     71 H31         5.1570   -0.8740   -1.5380 hn        1 W2R      0.221000
     72 H32         7.3960   -1.1340   -0.4470 hn        1 W2R      0.201000
     73 H33        -8.9780   -0.9580   -2.5570 ho        1 W2R      0.210000
@<TRIPOS>BOND
     1    1    4 1   
     2    1   41 1   
     3    2   13 1   
     4    2   42 1   
     5    3    5 1   
     6    3   43 1   
     7    4   44 1   
     8    5   45 1   
     9    6    9 1   
    10    6   11 1   
    11    7   15 1   
    12    7   47 1   
    13    8   14 1   
    14    8   48 1   
    15    9   32 1   
    16   10   31 1   
    17   10   50 1   
    18   11   30 1   
    19   12   18 1   
    20   14   33 1   
    21   16   17 1   
    22   18   31 1   
    23   19   34 1   
    24   19   36 1   
    25   20   21 1   
    26   20   22 1   
    27   20   51 1   
    28   20   52 1   
    29   21   23 1   
    30   21   53 1   
    31   21   54 1   
    32   22   24 1   
    33   22   55 1   
    34   22   56 1   
    35   23   25 1   
    36   23   57 1   
    37   23   58 1   
    38   24   25 1   
    39   24   59 1   
    40   24   60 1   
    41   25   35 1   
    42   25   61 1   
    43   26   27 1   
    44   26   32 1   
    45   26   62 1   
    46   26   63 1   
    47   27   39 1   
    48   27   64 1   
    49   27   65 1   
    50   28   29 1   
    51   28   37 1   
    52   28   66 1   
    53   28   67 1   
    54   29   39 1   
    55   29   68 1   
    56   29   69 1   
    57   33   70 1   
    58   34   71 1   
    59   35   72 1   
    60   37   73 1   
@<TRIPOS>SUBSTRUCTURE
     1 W2R         1 TEMP              0 ****  ****    0 ROOT
