@<TRIPOS>MOLECULE
W2R
   74    73     1     0     0
SMALL
bcc


@<TRIPOS>ATOM
      1 C1          0.8250   -1.7000    0.4080 c1        1 W2R      0.279000
      2 C2          0.5790   -1.4060    1.6700 c2        1 W2R     -0.494000
      3 C3          0.9650    0.9380    7.5530 ca        1 W2R     -0.088000
      4 C4         -0.4750   -3.2890    3.8260 c2        1 W2R     -0.190000
      5 C5          0.7040   -0.3730    7.1730 ca        1 W2R     -0.124000
      6 C6          3.9980    7.5600    8.3790 c1        1 W2R      0.047000
      7 C7          1.3040   -1.5270    4.0270 c2        1 W2R     -0.153000
      8 C8         -0.6330    1.7310    5.8920 ca        1 W2R     -0.144000
      9 C9          3.0880    6.8050    8.0360 c1        1 W2R     -0.773000
     10 C10         3.1880    3.6470    4.3370 c1        1 W2R     -0.113000
     11 C11         3.4090    5.5540    5.6310 c2        1 W2R      0.114000
     12 C12         2.3660    5.1350    6.5160 c2        1 W2R     -0.260000
     13 C13         1.5150   -1.1150    2.7530 c2        1 W2R      0.103000
     14 C14         0.3470    2.0020    6.8660 ca        1 W2R     -0.029000
     15 C15         0.1360   -2.2770    4.4600 c2        1 W2R      0.024000
     16 C16        -0.1790   -0.6370    6.1150 ca        1 W2R      0.069000
     17 C17        -0.9010    0.4120    5.5170 ca        1 W2R     -0.087000
     18 C18         1.7190    3.8850    6.2600 c2        1 W2R      0.192000
     19 C19         3.7310   -0.0890    3.1250 c2        1 W2R      0.340000
     20 C20         7.7240    1.3230    4.1620 c3        1 W2R     -0.433000
     21 C21         8.7120    0.2710    4.5320 c1        1 W2R      0.264000
     22 C22         4.2260    3.0130   -0.3200 c2        1 W2R     -0.083000
     23 C23         7.4560   -0.1140    3.8160 c3        1 W2R     -0.433000
     24 C24         4.2230    2.5150    0.8780 c1        1 W2R     -0.170000
     25 C25         4.1770    2.1300    2.1260 c2        1 W2R     -0.239000
     26 C27        -0.0740    6.7680    8.7710 c3        1 W2R     -0.052000
     27 C28        -2.5510    5.3120    7.6800 c3        1 W2R     -0.063000
     28 C29        -1.9620    5.3230    9.0860 c3        1 W2R     -0.063000
     29 N30         3.7920    4.8240    4.5750 n2        1 W2R     -0.213000
     30 N31         2.1670    3.1840    5.1350 n7        1 W2R     -0.203000
     31 N32         2.0450    5.9430    7.6990 nx        1 W2R      0.266000
     32 N34         2.6350   -0.3360    2.3400 ns        1 W2R     -0.281000
     33 N35         4.7790    0.8820    2.5820 ny        1 W2R     -0.042000
     34 O36         4.0240   -0.5770    4.2250 o         1 W2R     -0.277000
     35 O37        -2.0420    4.2280    6.9230 oh        1 W2R     -0.354000
     36 O38        -0.3470   -1.9680    5.7500 os        1 W2R     -0.149000
     37 O39        -0.5460    5.4530    9.0590 os        1 W2R     -0.304000
     38 Cl1        -2.0740    0.1250    4.3300 cl        1 W2R      0.031000
     39 H1         -1.3450   -3.8020    4.2590 ha        1 W2R      0.149500
     40 H2         -0.4930   -1.4120    1.9930 ha        1 W2R      0.232000
     41 H3          1.1960   -1.2170    7.6850 ha        1 W2R      0.178000
     42 H4         -0.0990   -3.6760    2.8710 ha        1 W2R      0.149500
     43 H5          1.6740    1.1370    8.3750 ha        1 W2R      0.170000
     44 H6          3.9470    6.5120    5.8280 h4        1 W2R      0.233000
     45 H7          2.0180   -1.2970    4.8410 ha        1 W2R      0.175000
     46 H8         -1.1900    2.5600    5.4180 ha        1 W2R      0.176000
     47 H9          1.9050    5.2960    8.4940 hn        1 W2R      0.232000
     48 H10         1.7460    2.3060    4.9130 hn        1 W2R      0.258000
     49 H11         3.4170    2.8240   -1.0460 ha        1 W2R      0.169000
     50 H12         5.0410    3.6660   -0.6790 ha        1 W2R      0.169000
     51 H13         7.9850    2.0480    3.3670 hc        1 W2R      0.152500
     52 H14         7.1400    1.8120    4.9670 hc        1 W2R      0.152500
     53 H15         5.4150    0.6570    5.7910 ha        1 W2R      0.002000
     54 H16         5.1860    0.2490    6.2820 ha        1 W2R      0.002000
     55 H17         7.5340   -0.4570    2.7660 hc        1 W2R      0.152500
     56 H18         6.6820   -0.6780    4.3750 hc        1 W2R      0.152500
     57 H19         6.6190   -0.6770    0.7120 ha        1 W2R      0.002000
     58 H20         3.7160    2.7740    3.0040 hx        1 W2R      0.321000
     59 H21         7.1110   -1.0200    0.3950 ha        1 W2R      0.002000
     60 H22         0.5510    7.0810    9.6530 h1        1 W2R      0.126500
     61 H23         0.1580    6.1910    6.6820 hx        1 W2R      0.135500
     62 H24         1.0190    7.7460    7.1580 hx        1 W2R      0.135500
     63 H25        -0.9080    7.5020    8.6250 h1        1 W2R      0.126500
     64 H26        -2.1240    4.3350    9.5980 h1        1 W2R      0.112500
     65 H27        -2.4250    6.1440    9.6940 h1        1 W2R      0.112500
     66 H28        -2.2380    6.2270    7.1070 h1        1 W2R      0.105500
     67 H29        -3.6700    5.2680    7.7350 h1        1 W2R      0.105500
     68 H30         0.0810    3.9600    7.5180 hn        1 W2R      0.284000
     69 H31         2.5000    0.2000    1.5050 hn        1 W2R      0.269000
     70 H32         5.3220    0.4120    1.8470 hn        1 W2R      0.265000
     71 H33        -2.4370    3.4210    7.2760 ho        1 W2R      0.211000
     72 C26         0.7550    6.7020    7.4880 c3        1 W2R     -0.143000
     73 H352        5.4230    1.0950    3.3710 hn        1 W2R      0.265000
     74 N33         0.7750    3.3390    7.1300 nu        1 W2R     -0.258000
@<TRIPOS>BOND
     1    1    2 1   
     2    2   13 1   
     3    2   40 1   
     4    3    5 1   
     5    3   14 1   
     6    3   43 1   
     7    4   15 1   
     8    4   39 1   
     9    4   42 1   
    10    5   16 1   
    11    5   41 1   
    12    6    9 1   
    13    7   13 1   
    14    7   15 1   
    15    7   45 1   
    16    8   14 1   
    17    8   17 1   
    18    8   46 1   
    19    9   31 1   
    20   10   29 1   
    21   10   30 1   
    22   11   12 1   
    23   11   29 1   
    24   11   44 1   
    25   12   18 1   
    26   12   31 1   
    27   13   32 1   
    28   14   74 1   
    29   15   36 1   
    30   16   17 1   
    31   16   36 1   
    32   17   38 1   
    33   18   30 1   
    34   18   74 1   
    35   19   32 1   
    36   19   33 1   
    37   19   34 1   
    38   20   21 1   
    39   20   23 1   
    40   20   51 1   
    41   20   52 1   
    42   21   23 1   
    43   22   24 1   
    44   22   49 1   
    45   22   50 1   
    46   23   55 1   
    47   23   56 1   
    48   24   25 1   
    49   25   33 1   
    50   25   58 1   
    51   26   37 1   
    52   26   60 1   
    53   26   63 1   
    54   26   72 1   
    55   27   28 1   
    56   27   35 1   
    57   27   66 1   
    58   27   67 1   
    59   28   37 1   
    60   28   64 1   
    61   28   65 1   
    62   30   48 1   
    63   31   47 1   
    64   31   72 1   
    65   32   69 1   
    66   33   70 1   
    67   33   73 1   
    68   35   71 1   
    69   53   54 1   
    70   57   59 1   
    71   61   72 1   
    72   62   72 1   
    73   68   74 1   
@<TRIPOS>SUBSTRUCTURE
     1 W2R         1 TEMP              0 ****  ****    0 ROOT
