@<TRIPOS>MOLECULE
W2X
   48    47     1     0     0
SMALL
bcc


@<TRIPOS>ATOM
      1 O43        -1.4700    1.2550   -5.5960 o         1 W2X     -0.823800
      2 C31        -1.7250    0.0920   -5.1790 c         1 W2X      0.926600
      3 O42        -2.7050   -0.6090   -5.5450 o         1 W2X     -0.823800
      4 C30        -0.7490   -0.5870   -4.1620 c3        1 W2X      0.017100
      5 O29        -0.6260    0.3280   -3.0540 os        1 W2X     -0.395900
      6 C13        -0.4140   -0.1650   -1.8120 c         1 W2X      0.615100
      7 O18        -0.3110   -1.3790   -1.6090 o         1 W2X     -0.568000
      8 C12        -0.3530    0.9550   -0.7580 c3        1 W2X      0.111900
      9 C16         0.9060    1.7640   -1.0110 c2        1 W2X     -0.031600
     10 S17         2.1530    1.5750    0.1310 sh        1 W2X     -0.265400
     11 C25         0.9620    2.5660   -2.0800 c2        1 W2X     -0.218000
     12 N11        -0.4720    0.4280    0.5740 n         1 W2X     -0.563900
     13 C10        -1.3820    0.9140    1.4960 c         1 W2X      0.671100
     14 O15        -2.1100    1.8920    1.2280 o         1 W2X     -0.629100
     15 C7         -1.4730    0.2010    2.8320 c3        1 W2X     -0.150400
     16 C4         -0.2110    0.3300    3.6590 c3        1 W2X     -0.075400
     17 C3         -0.4060   -0.2990    5.0230 c3        1 W2X     -0.065400
     18 C2          0.8110   -0.1250    5.9330 c3        1 W2X      0.022500
     19 N14         2.0010   -0.8130    5.4480 n3        1 W2X     -0.890800
     20 C1          0.3960   -0.5100    7.3920 c         1 W2X      0.886600
     21 O20         1.1280   -1.3250    8.0260 o         1 W2X     -0.848800
     22 O19        -0.6360    0.0350    7.8740 o         1 W2X     -0.848800
     23 C32         0.6030   -0.8800   -4.8160 c3        1 W2X     -0.114700
     24 C37         1.4940    0.3550   -4.9500 c3        1 W2X      0.156400
     25 C33         1.3420   -1.9770   -4.0790 c3        1 W2X     -0.088100
     26 O31         1.3430    0.9960   -6.1990 oh        1 W2X     -0.653800
     27 H30        -1.2090   -1.5460   -3.7990 h1        1 W2X      0.067700
     28 H12        -1.2430    1.6390   -0.9510 h1        1 W2X      0.128700
     29 HS          3.1030    2.2600   -0.4790 hs        1 W2X      0.167800
     30 H251        1.8410    3.1760   -2.3200 ha        1 W2X      0.136000
     31 H252        0.1310    2.6280   -2.8030 ha        1 W2X      0.136000
     32 H11         0.0760   -0.3700    0.7970 hn        1 W2X      0.330500
     33 H7C1       -2.3370    0.6520    3.3890 hc        1 W2X      0.065200
     34 H7C2       -1.7080   -0.8820    2.6560 hc        1 W2X      0.065200
     35 H4C1        0.6470   -0.1620    3.1310 hc        1 W2X      0.047700
     36 H4C2        0.0510    1.4140    3.7800 hc        1 W2X      0.047700
     37 H3C1       -1.2770    0.1790    5.5470 hc        1 W2X      0.046200
     38 H3C2       -0.6430   -1.3890    4.9040 hc        1 W2X      0.046200
     39 H2          1.0730    0.9740    5.9610 h1        1 W2X      0.042700
     40 H141        2.6390   -0.8880    6.2250 hn        1 W2X      0.329300
     41 H142        1.7490   -1.7540    5.2010 hn        1 W2X      0.329300
     42 H32         0.3640   -1.2460   -5.8570 hc        1 W2X      0.068700
     43 H371        1.2830    1.0810   -4.1180 h1        1 W2X      0.027700
     44 H372        2.5790    0.0610   -4.9150 h1        1 W2X      0.027700
     45 H331        1.6040   -1.6430   -3.0460 hc        1 W2X      0.028033
     46 H332        0.6990   -2.8870   -3.9930 hc        1 W2X      0.028033
     47 H333        2.2790   -2.2520   -4.6200 hc        1 W2X      0.028033
     48 H31         0.4100    1.2630   -6.2700 ho        1 W2X      0.455000
@<TRIPOS>BOND
     1    1    2 1   
     2    2    3 1   
     3    2    4 1   
     4    4    5 1   
     5    4   23 1   
     6    4   27 1   
     7    5    6 1   
     8    6    7 2   
     9    6    8 1   
    10    8    9 1   
    11    8   12 1   
    12    8   28 1   
    13    9   10 1   
    14    9   11 2   
    15   10   29 1   
    16   11   30 1   
    17   11   31 1   
    18   12   13 1   
    19   12   32 1   
    20   13   14 2   
    21   13   15 1   
    22   15   16 1   
    23   15   33 1   
    24   15   34 1   
    25   16   17 1   
    26   16   35 1   
    27   16   36 1   
    28   17   18 1   
    29   17   37 1   
    30   17   38 1   
    31   18   19 1   
    32   18   20 1   
    33   18   39 1   
    34   19   40 1   
    35   19   41 1   
    36   20   21 1   
    37   20   22 1   
    38   23   24 1   
    39   23   25 1   
    40   23   42 1   
    41   24   26 1   
    42   24   43 1   
    43   24   44 1   
    44   25   45 1   
    45   25   46 1   
    46   25   47 1   
    47   26   48 1   
@<TRIPOS>SUBSTRUCTURE
     1 W2X         1 TEMP              0 ****  ****    0 ROOT
