@<TRIPOS>MOLECULE
W2X
   50    50     1     0     0
SMALL
bcc


@<TRIPOS>ATOM
      1 O43         5.5480    0.6860   -2.2240 o         1 W2X     -0.577500
      2 C31         5.2200    1.0140   -1.0900 c         1 W2X      0.695600
      3 O42         6.2140    1.4850   -0.2730 os        1 W2X     -0.555900
      4 C30         3.9040    1.0880   -0.3400 c3        1 W2X      0.084100
      5 O29         4.2800    1.5810    0.9530 os        1 W2X     -0.463600
      6 C13         5.6200    2.0940    0.9350 c3        1 W2X      0.674100
      7 O18         5.6740    3.3750    0.7920 o         1 W2X     -0.803500
      8 C12         6.4270    1.4880    2.1620 c3        1 W2X      0.136700
      9 C16         5.5300    1.1120    3.3010 c2        1 W2X     -0.056600
     10 S17         4.7790    2.3890    4.1540 sh        1 W2X     -0.348400
     11 C25         5.3720   -0.1620    3.6710 c2        1 W2X     -0.106000
     12 N11         7.4280    2.5260    2.6150 n4        1 W2X     -0.681800
     13 C10         8.8220    2.2260    2.1560 c         1 W2X      0.556100
     14 O15         9.5980    1.8460    3.0250 o         1 W2X     -0.450100
     15 C7          9.1130    2.4250    0.6970 c3        1 W2X     -0.161400
     16 C4          9.0470    3.8860    0.2930 c3        1 W2X     -0.095400
     17 C3          9.2120    4.0400   -1.2090 c3        1 W2X     -0.087400
     18 C2          7.9920    4.6380   -1.8830 c3        1 W2X     -0.071500
     19 N14         6.8090    3.7350   -1.9000 n4        1 W2X     -0.839600
     20 C1          8.3600    5.0790   -3.3840 c         1 W2X      0.935600
     21 O20         9.4830    5.5960   -3.5240 o         1 W2X     -0.765800
     22 O19         7.4530    4.8710   -4.2280 o         1 W2X     -0.765800
     23 C32         3.1920   -0.2550   -0.2320 c3        1 W2X     -0.099700
     24 C37         4.0480   -1.2740    0.5170 c3        1 W2X      0.129400
     25 C33         1.8480   -0.0840    0.4400 c3        1 W2X     -0.091100
     26 O31         3.4580   -2.5560    0.5490 oh        1 W2X     -0.591800
     27 H30         3.2280    1.8530   -0.8150 h1        1 W2X      0.097700
     28 H12         6.9950    0.5870    1.7900 hx        1 W2X      0.106700
     29 HS          4.1940    3.0180    3.1230 hs        1 W2X      0.262800
     30 H251        5.9340   -0.9910    3.2150 ha        1 W2X      0.142000
     31 H252        4.6630   -0.4530    4.4620 ha        1 W2X      0.142000
     32 H11         7.1140    3.4340    2.1960 hn        1 W2X      0.477800
     33 H7C1        8.3730    1.8250    0.0920 hc        1 W2X      0.113700
     34 H7C2       10.1430    2.0170    0.4990 hc        1 W2X      0.113700
     35 H4C1        9.8590    4.4520    0.8200 hc        1 W2X      0.058200
     36 H4C2        8.0660    4.3340    0.6090 hc        1 W2X      0.058200
     37 H3C1       10.0600    4.7500   -1.4340 hc        1 W2X      0.090700
     38 H3C2        9.4830    3.0630   -1.6880 hc        1 W2X      0.090700
     39 H2          7.6810    5.5840   -1.3560 hx        1 W2X      0.085700
     40 H141        7.1000    2.7570   -1.9640 hn        1 W2X      0.457133
     41 H142        6.2740    3.9720   -2.7570 hn        1 W2X      0.457133
     42 H32         3.0350   -0.6250   -1.2860 hc        1 W2X      0.068700
     43 H371        5.0670   -1.3290    0.0450 h1        1 W2X      0.046200
     44 H372        4.1500   -0.9790    1.5980 h1        1 W2X      0.046200
     45 H331        1.1660    0.5260   -0.1990 hc        1 W2X      0.049367
     46 H332        1.9700    0.4310    1.4240 hc        1 W2X      0.049367
     47 H333        1.3850   -1.0860    0.6130 hc        1 W2X      0.049367
     48 H31         3.3070   -2.8280   -0.3650 ho        1 W2X      0.403000
     49 H112        7.3870    2.6060    3.6410 hn        1 W2X      0.477800
     50 H143        6.2310    3.8480   -1.0560 hn        1 W2X      0.457133
@<TRIPOS>BOND
     1    1    2 2   
     2    2    3 1   
     3    2    4 1   
     4    3    6 1   
     5    4    5 1   
     6    4   23 1   
     7    4   27 1   
     8    5    6 1   
     9    6    7 1   
    10    6    8 1   
    11    8    9 1   
    12    8   12 1   
    13    8   28 1   
    14    9   10 1   
    15    9   11 2   
    16   10   29 1   
    17   11   30 1   
    18   11   31 1   
    19   12   13 1   
    20   12   32 1   
    21   12   49 1   
    22   13   14 2   
    23   13   15 1   
    24   15   16 1   
    25   15   33 1   
    26   15   34 1   
    27   16   17 1   
    28   16   35 1   
    29   16   36 1   
    30   17   18 1   
    31   17   37 1   
    32   17   38 1   
    33   18   19 1   
    34   18   20 1   
    35   18   39 1   
    36   19   40 1   
    37   19   41 1   
    38   19   50 1   
    39   20   21 1   
    40   20   22 1   
    41   23   24 1   
    42   23   25 1   
    43   23   42 1   
    44   24   26 1   
    45   24   43 1   
    46   24   44 1   
    47   25   45 1   
    48   25   46 1   
    49   25   47 1   
    50   26   48 1   
@<TRIPOS>SUBSTRUCTURE
     1 W2X         1 TEMP              0 ****  ****    0 ROOT
