@<TRIPOS>MOLECULE
W2X
   48    46     1     0     0
SMALL
bcc


@<TRIPOS>ATOM
      1 O43        -3.2100   -2.8280    0.2430 o         1 W2X     -0.563000
      2 C31        -2.4630   -3.5880   -0.4070 c2        1 W2X      0.335000
      3 O42        -2.2150   -4.7470    0.0250 o         1 W2X     -0.563000
      4 C30        -1.9860   -3.1800   -1.7440 c3        1 W2X     -0.034000
      5 O29        -1.3080   -1.9270   -1.6430 os        1 W2X     -0.282000
      6 C13        -0.1020   -1.9820   -0.8520 c2        1 W2X      0.331000
      7 O18         0.1730   -2.9730   -0.2620 o         1 W2X     -0.363000
      8 C12         0.8610   -0.8260   -0.8680 c3        1 W2X      0.076000
      9 C16         2.2970   -1.3480   -1.1340 c2        1 W2X     -0.213000
     10 S17         3.1400   -2.3200    0.1090 sh        1 W2X      0.210000
     11 C25         2.9090   -1.0700   -2.2990 c1        1 W2X     -0.270000
     12 N11         0.8180   -0.1400    0.4140 n         1 W2X     -0.363000
     13 C10         1.4250    1.1300    0.5590 c2        1 W2X      0.306000
     14 O15         2.5350    1.3350    0.0860 o         1 W2X     -0.400000
     15 C7          0.7130    2.2390    1.3750 c3        1 W2X     -0.168000
     16 C4          1.7120    2.8650    2.3810 c3        1 W2X     -0.159000
     17 C3          1.4220    4.4120    2.5130 c3        1 W2X     -0.132000
     18 C2          1.6450    4.8540    3.9740 c3        1 W2X     -0.127000
     19 N14         0.7170    5.9010    4.3080 n3        1 W2X     -0.318000
     20 C1          3.0240    5.3490    4.1330 c2        1 W2X      0.304000
     21 O20         3.4280    6.3030    3.4360 o         1 W2X     -0.586000
     22 O19         3.8230    4.7450    4.8930 o         1 W2X     -0.586000
     23 C32        -3.1740   -3.0430   -2.6780 c3        1 W2X     -0.118000
     24 C37        -2.7670   -3.4420   -4.0840 c3        1 W2X     -0.027000
     25 C33        -4.2860   -3.9410   -2.2070 c3        1 W2X     -0.214000
     26 O31        -3.7460   -2.9760   -5.0080 oh        1 W2X     -0.354000
     27 H30        -1.3730   -3.8550   -2.0920 h1        1 W2X      0.092000
     28 H12         0.6020   -0.1940   -1.5900 h1        1 W2X      0.139000
     29 HS          4.1990   -2.6060   -0.2730 hs        1 W2X     -0.031000
     30 H251        2.4430   -0.5330   -2.9850 DU        1 W2X      0.117000
     31 H252        3.8400   -1.4090   -2.4710 ha        1 W2X      0.097000
     32 H11         0.4010   -0.5400    1.1410 hn        1 W2X      0.281000
     33 H7C1        0.3800    2.9390    0.7610 hc        1 W2X      0.108000
     34 H7C2       -0.0620    1.8390    1.8780 hc        1 W2X      0.108000
     35 H4C1        2.6440    2.7270    2.0540 hc        1 W2X      0.105500
     36 H4C2        1.6030    2.4250    3.2810 hc        1 W2X      0.105500
     37 H3C1        2.0500    4.9270    1.9030 hc        1 W2X      0.066000
     38 H3C2        0.4810    4.5980    2.2510 hc        1 W2X      0.066000
     39 H2          1.5040    4.0910    4.5700 h1        1 W2X      0.086000
     40 H141       -0.0370    5.5370    4.6520 hn        1 W2X      0.119000
     41 H142        1.1000    6.4620    4.9330 hn        1 W2X      0.119000
     42 H32        -3.4820   -2.1180   -2.6790 hc        1 W2X      0.099000
     43 H371       -1.8960   -3.0420   -4.3000 h1        1 W2X      0.084500
     44 H372       -2.7000   -4.4450   -4.1420 h1        1 W2X      0.084500
     45 H331       -4.5480   -3.6870   -1.3120 hc        1 W2X      0.079333
     46 H332       -5.0620   -3.8530   -2.8160 hc        1 W2X      0.079333
     47 H333       -3.9700   -4.8880   -2.2040 hc        1 W2X      0.079333
     48 H31        -3.5000   -3.1780   -5.8210 ho        1 W2X      0.193000
@<TRIPOS>BOND
     1    1    2 1   
     2    2    3 1   
     3    2    4 1   
     4    4    5 1   
     5    4   23 1   
     6    4   27 1   
     7    5    6 1   
     8    6    7 1   
     9    6    8 1   
    10    8    9 1   
    11    8   12 1   
    12    8   28 1   
    13    9   10 1   
    14    9   11 1   
    15   10   29 1   
    16   11   31 1   
    17   12   13 1   
    18   12   32 1   
    19   13   14 1   
    20   13   15 1   
    21   15   16 1   
    22   15   33 1   
    23   15   34 1   
    24   16   17 1   
    25   16   35 1   
    26   16   36 1   
    27   17   18 1   
    28   17   37 1   
    29   17   38 1   
    30   18   19 1   
    31   18   20 1   
    32   18   39 1   
    33   19   40 1   
    34   19   41 1   
    35   20   21 1   
    36   20   22 1   
    37   23   24 1   
    38   23   25 1   
    39   23   42 1   
    40   24   26 1   
    41   24   43 1   
    42   24   44 1   
    43   25   45 1   
    44   25   46 1   
    45   25   47 1   
    46   26   48 1   
@<TRIPOS>SUBSTRUCTURE
     1 W2X         1 TEMP              0 ****  ****    0 ROOT
