@<TRIPOS>MOLECULE
W2X
   50    50     1     0     0
SMALL
bcc


@<TRIPOS>ATOM
      1 O43         4.9360    1.4960   -2.2300 o         1 W2X     -0.650500
      2 C31         4.7580    1.4670   -1.0110 c         1 W2X      0.716600
      3 O42         5.7070    2.0560   -0.2370 os        1 W2X     -0.570900
      4 C30         3.6710    0.9100   -0.1110 c3        1 W2X      0.086100
      5 O29         4.2290    1.0780    1.2020 os        1 W2X     -0.450600
      6 C13         5.2040    2.1250    1.1850 c3        1 W2X      0.689100
      7 O18         4.7240    3.2980    1.3690 o         1 W2X     -0.753500
      8 C12         6.4710    1.7250    2.0610 c3        1 W2X      0.145700
      9 C16         6.2480    0.5380    2.9520 c2        1 W2X     -0.034600
     10 S17         5.5510    0.8880    4.4730 sh        1 W2X     -0.291400
     11 C25         6.5810   -0.6850    2.5290 c2        1 W2X     -0.164000
     12 N11         6.8790    2.9500    2.8430 ny        1 W2X     -0.690800
     13 C10         8.1910    3.5230    2.4010 c         1 W2X      0.553100
     14 O15         9.1930    2.8610    2.6370 o         1 W2X     -0.445100
     15 C7          8.1360    4.8750    1.7440 c3        1 W2X     -0.145400
     16 C4          7.5550    4.8170    0.3440 c3        1 W2X     -0.114400
     17 C3          8.5450    4.2360   -0.6430 c3        1 W2X     -0.093400
     18 C2          8.0570    4.3210   -2.0770 c3        1 W2X     -0.071500
     19 N14         7.0590    3.2770   -2.4350 nz        1 W2X     -0.812600
     20 C1          9.3130    4.2310   -3.0820 c         1 W2X      0.935600
     21 O20        10.3050    4.9010   -2.7450 o         1 W2X     -0.764300
     22 O19         9.1260    3.5140   -4.0960 o         1 W2X     -0.764300
     23 C32         3.3350   -0.5510   -0.3760 c3        1 W2X     -0.094700
     24 C37         4.5400   -1.4510   -0.1180 c3        1 W2X      0.130400
     25 C33         2.1550   -0.9790    0.4700 c3        1 W2X     -0.092100
     26 O31         4.2960   -2.7950   -0.4780 oh        1 W2X     -0.593800
     27 H30         2.7490    1.5510   -0.1860 h1        1 W2X      0.098700
     28 H12         7.3080    1.4880    1.3360 hx        1 W2X      0.111700
     29 HS          6.0100   -0.1430    5.1680 hs        1 W2X      0.215800
     30 H251        7.0500   -0.8680    1.5510 ha        1 W2X      0.139500
     31 H252        6.3940   -1.5880    3.1280 ha        1 W2X      0.139500
     32 H11         6.9170    2.7060    3.8460 hn        1 W2X      0.480800
     33 H7C1        9.1910    5.2680    1.7060 hc        1 W2X      0.098700
     34 H7C2        7.5260    5.5740    2.3790 hc        1 W2X      0.098700
     35 H4C1        7.3030    5.8700    0.0400 hc        1 W2X      0.083200
     36 H4C2        6.5930    4.2310    0.3390 hc        1 W2X      0.083200
     37 H3C1        8.7900    3.1770   -0.3610 hc        1 W2X      0.079700
     38 H3C2        9.5120    4.8170   -0.6110 hc        1 W2X      0.079700
     39 H2          7.5840    5.3240   -2.2680 hx        1 W2X      0.085700
     40 H141        6.0980    3.5840   -2.2890 hn        1 W2X      0.452133
     41 H142        7.2140    3.0380   -3.4340 hn        1 W2X      0.452133
     42 H32         3.0570   -0.6280   -1.4660 hc        1 W2X      0.065700
     43 H371        5.4320   -1.0570   -0.6770 h1        1 W2X      0.047200
     44 H372        4.7740   -1.4860    0.9820 h1        1 W2X      0.047200
     45 H331        1.9900   -2.0770    0.3530 hc        1 W2X      0.048367
     46 H332        1.2320   -0.4350    0.1570 hc        1 W2X      0.048367
     47 H333        2.3530   -0.7560    1.5460 hc        1 W2X      0.048367
     48 H31         4.0460   -2.8040   -1.4100 ho        1 W2X      0.402000
     49 H112        6.1160    3.6600    2.6880 hn        1 W2X      0.480800
     50 H143        7.1960    2.4300   -1.8780 hn        1 W2X      0.452133
@<TRIPOS>BOND
     1    1    2 2   
     2    2    3 1   
     3    2    4 1   
     4    3    6 1   
     5    4    5 1   
     6    4   23 1   
     7    4   27 1   
     8    5    6 1   
     9    6    7 1   
    10    6    8 1   
    11    8    9 1   
    12    8   12 1   
    13    8   28 1   
    14    9   10 1   
    15    9   11 2   
    16   10   29 1   
    17   11   30 1   
    18   11   31 1   
    19   12   13 1   
    20   12   32 1   
    21   12   49 1   
    22   13   14 2   
    23   13   15 1   
    24   15   16 1   
    25   15   33 1   
    26   15   34 1   
    27   16   17 1   
    28   16   35 1   
    29   16   36 1   
    30   17   18 1   
    31   17   37 1   
    32   17   38 1   
    33   18   19 1   
    34   18   20 1   
    35   18   39 1   
    36   19   40 1   
    37   19   41 1   
    38   19   50 1   
    39   20   21 1   
    40   20   22 1   
    41   23   24 1   
    42   23   25 1   
    43   23   42 1   
    44   24   26 1   
    45   24   43 1   
    46   24   44 1   
    47   25   45 1   
    48   25   46 1   
    49   25   47 1   
    50   26   48 1   
@<TRIPOS>SUBSTRUCTURE
     1 W2X         1 TEMP              0 ****  ****    0 ROOT
