@<TRIPOS>MOLECULE
W2X
   50    50     1     0     0
SMALL
bcc


@<TRIPOS>ATOM
      1 O43         4.7750    1.5910   -2.1600 o         1 W2X     -0.650500
      2 C31         4.6730    1.5230   -0.9340 c         1 W2X      0.716600
      3 O42         5.6740    2.0790   -0.2020 os        1 W2X     -0.570900
      4 C30         3.6380    0.9450    0.0140 c3        1 W2X      0.086100
      5 O29         4.2790    1.0650    1.2940 os        1 W2X     -0.450600
      6 C13         5.2610    2.1030    1.2500 c3        1 W2X      0.689100
      7 O18         4.8060    3.2730    1.5030 o         1 W2X     -0.753500
      8 C12         6.5760    1.6650    2.0310 c3        1 W2X      0.145700
      9 C16         6.3980    0.4510    2.8950 c2        1 W2X     -0.034600
     10 S17         5.8010    0.7560    4.4680 sh        1 W2X     -0.291400
     11 C25         6.6910   -0.7610    2.4130 c2        1 W2X     -0.164000
     12 N11         7.0450    2.8590    2.8260 n4        1 W2X     -0.690800
     13 C10         8.3320    3.4370    2.3210 c         1 W2X      0.553100
     14 O15         9.3410    2.7590    2.4700 o         1 W2X     -0.445100
     15 C7          8.2500    4.8110    1.7140 c3        1 W2X     -0.145400
     16 C4          7.5820    4.8050    0.3520 c3        1 W2X     -0.114400
     17 C3          8.5020    4.2500   -0.7140 c3        1 W2X     -0.093400
     18 C2          7.9260    4.3870   -2.1100 c3        1 W2X     -0.071500
     19 N14         6.8980    3.3630   -2.4390 n4        1 W2X     -0.812600
     20 C1          9.1140    4.3230   -3.1960 c         1 W2X      0.935600
     21 O20        10.1320    4.9740   -2.9000 o         1 W2X     -0.764300
     22 O19         8.8570    3.6420   -4.2190 o         1 W2X     -0.764300
     23 C32         3.2720   -0.5030   -0.2780 c3        1 W2X     -0.094700
     24 C37         4.4820   -1.4220   -0.1250 c3        1 W2X      0.130400
     25 C33         2.1430   -0.9500    0.6250 c3        1 W2X     -0.092100
     26 O31         4.2030   -2.7500   -0.5130 oh        1 W2X     -0.593800
     27 H30         2.7200    1.5960    0.0170 h1        1 W2X      0.098700
     28 H12         7.3640    1.4440    1.2480 hx        1 W2X      0.111700
     29 HS          6.2910   -0.3020    5.0990 hs        1 W2X      0.215800
     30 H251        7.0960   -0.9150    1.4020 ha        1 W2X      0.139500
     31 H252        6.5320   -1.6820    2.9930 ha        1 W2X      0.139500
     32 H11         6.2820    3.5800    2.7430 hn        1 W2X      0.480800
     33 H7C1        9.3050    5.1960    1.6230 hc        1 W2X      0.098700
     34 H7C2        7.6880    5.4920    2.4090 hc        1 W2X      0.098700
     35 H4C1        7.3210    5.8690    0.1000 hc        1 W2X      0.083200
     36 H4C2        6.6150    4.2270    0.3880 hc        1 W2X      0.083200
     37 H3C1        8.7550    3.1810   -0.4840 hc        1 W2X      0.079700
     38 H3C2        9.4750    4.8240   -0.7240 hc        1 W2X      0.079700
     39 H2          7.4500    5.3990   -2.2380 hx        1 W2X      0.085700
     40 H141        7.0610    2.4970   -1.9200 hn        1 W2X      0.451800
     41 H142        6.9870    3.1560   -3.4530 hn        1 W2X      0.451800
     42 H32         2.9260   -0.5420   -1.3510 hc        1 W2X      0.065700
     43 H371        4.7830   -1.4960    0.9560 h1        1 W2X      0.047200
     44 H372        5.3410   -1.0160   -0.7260 h1        1 W2X      0.047200
     45 H331        1.9590   -2.0430    0.4830 hc        1 W2X      0.048367
     46 H332        2.4090   -0.7650    1.6940 hc        1 W2X      0.048367
     47 H333        1.2080   -0.3890    0.3890 hc        1 W2X      0.048367
     48 H31         3.8950   -2.7260   -1.4280 ho        1 W2X      0.402000
     49 H112        7.1440    2.5820    3.8160 hn        1 W2X      0.480800
     50 H143        5.9500    3.6720   -2.2240 hn        1 W2X      0.451800
@<TRIPOS>BOND
     1    1    2 2   
     2    2    3 1   
     3    2    4 1   
     4    3    6 1   
     5    4    5 1   
     6    4   23 1   
     7    4   27 1   
     8    5    6 1   
     9    6    7 1   
    10    6    8 1   
    11    8    9 1   
    12    8   12 1   
    13    8   28 1   
    14    9   10 1   
    15    9   11 2   
    16   10   29 1   
    17   11   30 1   
    18   11   31 1   
    19   12   13 1   
    20   12   32 1   
    21   12   49 1   
    22   13   14 2   
    23   13   15 1   
    24   15   16 1   
    25   15   33 1   
    26   15   34 1   
    27   16   17 1   
    28   16   35 1   
    29   16   36 1   
    30   17   18 1   
    31   17   37 1   
    32   17   38 1   
    33   18   19 1   
    34   18   20 1   
    35   18   39 1   
    36   19   40 1   
    37   19   41 1   
    38   19   50 1   
    39   20   21 1   
    40   20   22 1   
    41   23   24 1   
    42   23   25 1   
    43   23   42 1   
    44   24   26 1   
    45   24   43 1   
    46   24   44 1   
    47   25   45 1   
    48   25   46 1   
    49   25   47 1   
    50   26   48 1   
@<TRIPOS>SUBSTRUCTURE
     1 W2X         1 TEMP              0 ****  ****    0 ROOT
