@<TRIPOS>MOLECULE
W31
   59    62     1     0     0
SMALL
bcc


@<TRIPOS>ATOM
      1 C14         0.0720   -0.5780   -0.9550 cx        1 W31     -0.162000
      2 C5          4.8680    4.4720   -4.2660 c2        1 W31     -0.283000
      3 C6          4.9740    3.4640   -3.2470 c2        1 W31     -0.114000
      4 C11         2.6080   -1.0670   -1.1860 c3        1 W31      0.061000
      5 C7          5.1880    2.1600   -3.5640 c2        1 W31     -0.064000
      6 C8          5.3270    1.1220   -2.5100 c3        1 W31     -0.132000
      7 C9          4.2000    0.1260   -2.5600 c2        1 W31      0.320000
      8 C12         3.0910   -2.2730   -0.4010 c3        1 W31     -0.240000
      9 C13         1.5000   -0.3180   -0.4680 cx        1 W31     -0.015000
     10 C3          3.6210    6.5270   -2.9170 c2        1 W31     -0.359000
     11 C2          2.5430    5.7020   -2.3440 c2        1 W31      0.210000
     12 O10         3.7400   -0.1750   -1.3150 os        1 W31     -0.261000
     13 C15         0.7320    0.6990   -1.2200 cu        1 W31     -0.183000
     14 C16         0.6860    1.9010   -1.7390 c2        1 W31     -0.133000
     15 C17         2.4280   -0.8480    1.7880 c1        1 W31      0.165000
     16 C18         1.6940   -0.1220    0.9740 c2        1 W31     -0.431000
     17 O19         3.7200   -0.4320   -3.5500 o         1 W31     -0.365000
     18 C20         5.2820    1.7300   -4.9770 c3        1 W31     -0.221000
     19 C21         5.1900    2.7500   -5.9990 c1        1 W31     -0.038000
     20 C22         5.0000    4.1070   -5.5860 c2        1 W31     -0.098000
     21 Cl23        4.9370    5.2710   -6.8190 cl        1 W31      0.024000
     22 C24         3.5500    7.9680   -2.4940 c3        1 W31      0.056000
     23 O25         4.6390    8.6740   -3.0870 oh        1 W31     -0.345000
     24 C26         2.2210    8.5940   -2.9020 c3        1 W31     -0.174000
     25 C27         1.0170    7.7660   -2.4630 c3        1 W31     -0.014000
     26 C28         1.3200    6.3480   -2.1930 c2        1 W31     -0.307000
     27 C29         0.3100    8.4100   -1.3030 c2        1 W31     -0.098000
     28 C30         0.7820    8.0150    0.0890 c3        1 W31      0.004000
     29 Cl31        2.1960    8.9760    0.5530 cl        1 W31     -0.118000
     30 C32        -0.3590    8.1400    1.0700 c2        1 W31     -0.123000
     31 C33        -1.1070    9.1910    0.7810 c1        1 W31     -0.118000
     32 C34        -1.2580    9.9670   -0.2850 c2        1 W31     -0.083000
     33 C35        -0.7260    9.2810   -1.4790 c2        1 W31     -0.064000
     34 Cl36       -1.3450    9.7420   -2.9840 cl        1 W31      0.006000
     35 H1         -0.0850   -1.2940   -1.7830 hc        1 W31      0.119000
     36 H2          4.8320    3.7790   -2.1970 ha        1 W31      0.181000
     37 H3          2.2450   -1.3800   -2.2060 h1        1 W31      0.131000
     38 H4          5.3590    1.5880   -1.4870 hc        1 W31      0.132500
     39 H5          6.2830    0.5490   -2.6620 hc        1 W31      0.132500
     40 H6          3.7560   -1.9620    0.4470 hc        1 W31      0.099667
     41 H7          3.6840   -2.9470   -1.0650 hc        1 W31      0.099667
     42 H8          2.2150   -2.8360    0.0010 hc        1 W31      0.099667
     43 H9         -0.7390   -0.6250   -0.2040 hc        1 W31      0.119000
     44 H10         1.5270    2.6140   -1.6850 ha        1 W31      0.143500
     45 H11        -0.2060    2.2650   -2.2680 ha        1 W31      0.143500
     46 H12         1.1430    0.7420    1.4040 ha        1 W31      0.194000
     47 H13         6.2280    1.1360   -5.1610 hc        1 W31      0.199000
     48 H14         4.4380    0.9870   -5.1910 hc        1 W31      0.199000
     49 H15         4.5240    9.6060   -2.8650 ho        1 W31      0.226000
     50 H16         3.6670    7.9990   -1.3670 h1        1 W31      0.135000
     51 H17         2.2070    8.7070   -4.0180 hc        1 W31      0.104500
     52 H18         2.1650    9.6230   -2.4600 hc        1 W31      0.104500
     53 H19         0.4580    5.7240   -1.9110 ha        1 W31      0.147000
     54 H20         0.2850    7.7710   -3.3350 hc        1 W31      0.114000
     55 H21         1.1330    6.9460    0.0840 h1        1 W31      0.164000
     56 H22        -0.5340    7.3570    1.8100 ha        1 W31      0.171000
     57 H23        -1.6030   11.0030   -0.3350 ha        1 W31      0.176000
     58 S4          4.7940    6.1340   -3.9050 ss        1 W31      0.853000
     59 O1          2.7530    4.4790   -2.0870 o         1 W31     -0.493000
@<TRIPOS>BOND
     1    1    9 1   
     2    1   13 1   
     3    1   35 1   
     4    1   43 1   
     5    2    3 1   
     6    2   20 1   
     7    2   58 1   
     8    3    5 1   
     9    3   36 1   
    10    4    8 1   
    11    4    9 1   
    12    4   12 1   
    13    4   37 1   
    14    5    6 1   
    15    5   18 1   
    16    6    7 1   
    17    6   38 1   
    18    6   39 1   
    19    7   12 1   
    20    7   17 1   
    21    8   40 1   
    22    8   41 1   
    23    8   42 1   
    24    9   13 1   
    25    9   16 1   
    26   10   11 1   
    27   10   22 1   
    28   10   58 1   
    29   11   26 1   
    30   11   59 1   
    31   13   14 1   
    32   14   44 1   
    33   14   45 1   
    34   15   16 1   
    35   16   46 1   
    36   18   19 1   
    37   18   47 1   
    38   18   48 1   
    39   19   20 1   
    40   20   21 1   
    41   22   23 1   
    42   22   24 1   
    43   22   50 1   
    44   23   49 1   
    45   24   25 1   
    46   24   51 1   
    47   24   52 1   
    48   25   26 1   
    49   25   27 1   
    50   25   54 1   
    51   26   53 1   
    52   27   28 1   
    53   27   33 1   
    54   28   29 1   
    55   28   30 1   
    56   28   55 1   
    57   30   31 1   
    58   30   56 1   
    59   31   32 1   
    60   32   33 1   
    61   32   57 1   
    62   33   34 1   
@<TRIPOS>SUBSTRUCTURE
     1 W31         1 TEMP              0 ****  ****    0 ROOT
