@<TRIPOS>MOLECULE
W32
   64    66     1     0     0
SMALL
bcc


@<TRIPOS>ATOM
      1 C1          0.9900   -0.4930   -0.3540 ca        1 W32     -0.107000
      2 C2          1.8690    0.3220    0.3640 ca        1 W32     -0.044000
      3 C3         -0.4790   -3.2810    5.0180 c2        1 W32      0.116000
      4 C4         -0.1280   -1.0500    0.2650 ca        1 W32     -0.069000
      5 C5         -0.3950   -2.5200    3.8630 c2        1 W32     -0.310000
      6 C6          0.5110    0.0580    2.3600 ca        1 W32     -0.092000
      7 C7         -2.9260   -3.1460    4.9860 c1        1 W32     -0.194000
      8 C8         -5.0130   -6.2790    6.4520 c2        1 W32      0.250000
      9 C9         -2.3670   -6.6430    7.2390 c2        1 W32     -0.270000
     10 C10         1.6280    0.5910    1.7140 ca        1 W32     -0.143000
     11 C11        -1.7530   -3.5360    5.5900 c2        1 W32     -0.297000
     12 C12        -0.3430   -0.7620    1.6190 ca        1 W32     -0.037000
     13 C13        -1.5480   -2.0270    3.2300 c2        1 W32      0.239000
     14 C14        -2.9240   -2.3560    3.7640 c3        1 W32     -0.073000
     15 C15        -3.3420   -7.7620    7.2100 c2        1 W32      0.226000
     16 C16        -2.8070   -5.4100    6.8260 c2        1 W32      0.100000
     17 C17        -6.2960   -6.0700    6.1110 c1        1 W32     -0.219000
     18 C18        -7.5570   -5.9480    5.8420 c2        1 W32     -0.110000
     19 C19        -8.0640   -6.1630    4.4740 c2        1 W32      0.297000
     20 C20        -4.9020  -10.3510    7.9370 c2        1 W32     -0.189000
     21 C21        -3.6050  -10.1950    7.6470 c2        1 W32     -0.074000
     22 C22       -11.7200  -11.3900    5.2690 c3        1 W32     -0.987000
     23 C23        -9.2240   -8.3320    4.8290 c3        1 W32     -0.098000
     24 C24       -10.5120   -9.1180    4.8290 c3        1 W32     -0.866000
     25 C25         2.5780    1.4890    2.5080 c3        1 W32      0.470000
     26 N26        -4.6170   -7.5660    6.8300 n2        1 W32     -0.239000
     27 N27        -4.1190   -5.1680    6.4480 na        1 W32     -0.261000
     28 N28        -2.8700   -8.9990    7.5650 nh        1 W32     -0.229000
     29 N30        -9.3930   -6.9150    4.3940 n4        1 W32     -0.112000
     30 O31        -7.6040   -5.8380    3.3920 o         1 W32     -0.177000
     31 O32        -9.7700  -10.6240    6.7140 o         1 W32     -0.912500
     32 O33        -9.3040  -11.3090    4.4710 o         1 W32     -0.912500
     33 O34        -1.5630   -1.2140    2.1740 os        1 W32     -0.065000
     34 F35         2.7390    1.0900    3.8140 f         1 W32     -0.149000
     35 F36         3.8500    1.5500    2.0010 f         1 W32     -0.149000
     36 F37         2.1630    2.7930    2.5930 f         1 W32     -0.149000
     37 S38       -10.1900  -10.7610    5.3930 s6        1 W32      2.833000
     38 CL1        -3.8750   -3.2010    2.5520 cl        1 W32      0.037000
     39 H1          1.1800   -0.6960   -1.4220 ha        1 W32      0.178000
     40 H2          2.7560    0.7570   -0.1330 ha        1 W32      0.185000
     41 H3          0.4550   -3.6730    5.4640 ha        1 W32      0.166000
     42 H4         -0.8340   -1.6850   -0.2930 ha        1 W32      0.173000
     43 H5          0.5970   -2.3030    3.4240 ha        1 W32      0.198000
     44 H6          0.3130    0.2910    3.4180 ha        1 W32      0.165000
     45 H7         -3.4690   -1.3800    3.9690 h1        1 W32      0.218000
     46 H8         -4.3340   -4.3390    5.8950 hn        1 W32      0.321000
     47 H9         -1.3430   -6.8290    7.5910 ha        1 W32      0.174000
     48 H10        -8.3140   -5.6680    6.5980 ha        1 W32      0.170000
     49 H11        -5.3300  -11.3640    7.9740 ha        1 W32      0.146000
     50 H12        -5.6080   -9.5410    8.1550 ha        1 W32      0.146000
     51 H13        -2.9490  -11.0720    7.4590 h4        1 W32      0.161000
     52 H14       -12.4930  -10.8680    5.8900 h1        1 W32      0.187000
     53 H15       -12.1280  -11.4160    4.2250 h1        1 W32      0.187000
     54 H16       -11.7580  -12.4630    5.6140 h1        1 W32      0.187000
     55 H17       -11.2740   -8.6370    5.4940 h1        1 W32      0.157500
     56 H18        -8.7830   -8.3180    5.8720 hx        1 W32      0.166000
     57 H19        -8.4800   -8.8180    4.1250 hx        1 W32      0.166000
     58 H20       -10.9560   -9.1530    3.8010 h1        1 W32      0.157500
     59 H21        -1.9050   -9.0630    7.8110 hn        1 W32      0.255000
     60 H22        -2.2050   -3.5890    7.5740 hn        1 W32      0.263000
     61 H23        -9.7430   -6.8940    3.4280 hn        1 W32      0.250500
     62 H302      -10.0810   -6.4540    4.9970 hn        1 W32      0.250500
     63 H292       -0.9390   -4.6080    7.1510 hn        1 W32      0.263000
     64 N29        -1.8610   -4.2570    6.8650 n4        1 W32      0.077000
@<TRIPOS>BOND
     1    1    2 1   
     2    1    4 1   
     3    1   39 1   
     4    2   10 1   
     5    2   40 1   
     6    3    5 1   
     7    3   11 1   
     8    3   41 1   
     9    4   12 1   
    10    4   42 1   
    11    5   13 1   
    12    5   43 1   
    13    6   10 1   
    14    6   12 1   
    15    6   44 1   
    16    7   11 1   
    17    7   14 1   
    18    8   17 1   
    19    8   26 1   
    20    8   27 1   
    21    9   15 1   
    22    9   16 1   
    23    9   47 1   
    24   10   25 1   
    25   11   64 1   
    26   12   33 1   
    27   13   14 1   
    28   13   33 1   
    29   14   38 1   
    30   14   45 1   
    31   15   26 1   
    32   15   28 1   
    33   16   27 1   
    34   16   64 1   
    35   17   18 1   
    36   18   19 1   
    37   18   48 1   
    38   19   29 1   
    39   19   30 1   
    40   20   21 1   
    41   20   49 1   
    42   20   50 1   
    43   21   28 1   
    44   21   51 1   
    45   22   37 1   
    46   22   52 1   
    47   22   53 1   
    48   22   54 1   
    49   23   24 1   
    50   23   29 1   
    51   23   56 1   
    52   23   57 1   
    53   24   37 1   
    54   24   55 1   
    55   24   58 1   
    56   25   34 1   
    57   25   35 1   
    58   25   36 1   
    59   27   46 1   
    60   28   59 1   
    61   29   61 1   
    62   29   62 1   
    63   31   37 1   
    64   32   37 1   
    65   60   64 1   
    66   63   64 1   
@<TRIPOS>SUBSTRUCTURE
     1 W32         1 TEMP              0 ****  ****    0 ROOT
