@<TRIPOS>MOLECULE
W32
   62    50     1     0     0
SMALL
bcc


@<TRIPOS>ATOM
      1 C1          3.8190    4.6520   -5.9510 c1        1 W32     -0.131000
      2 C2          5.1840    4.7410   -6.2150 c1        1 W32     -0.112000
      3 C3          3.1500    1.3940   -0.5550 c1        1 W32     -0.131000
      4 C4          3.3760    4.4350   -4.6500 c1        1 W32     -0.131000
      5 C5          3.9380    2.3000   -1.2740 c1        1 W32     -0.131000
      6 C6          5.6640    4.3970   -3.8720 c1        1 W32     -0.101000
      7 C7          1.3770    3.0050   -0.4710 c1        1 W32     -0.106000
      8 C8          1.2720    1.7200    4.0230 c1        1 W32      0.041000
      9 C9          0.2230   -0.3110    2.5450 c1        1 W32     -0.249000
     10 C10         6.1090    4.6140   -5.1730 c1        1 W32     -0.133000
     11 C11         1.8730    1.7520   -0.1580 c1        1 W32      0.070000
     12 C12         4.3010    4.3080   -3.6070 c1        1 W32      0.070000
     13 C13         3.4420    3.5500   -1.5850 c1        1 W32     -0.016000
     14 C14         2.1610    3.9070   -1.1860 c1        1 W32     -0.016000
     15 C15         0.0280   -0.2880    3.8910 c1        1 W32      0.177000
     16 C16         0.9590    0.7030    1.9290 c1        1 W32      0.196000
     17 C17        -0.3730   -1.5780    1.9270 c2        1 W32     -0.016000
     18 C18        -1.8720   -1.8840    2.0950 c1        1 W32     -0.165000
     19 C19        -2.4750   -3.1720    1.4650 c1        1 W32      0.345000
     20 C20        -2.7380   -0.9970    2.9940 c3        1 W32     -0.131000
     21 C21        -2.1320   -1.0950    4.3880 c3        1 W32     -0.038000
     22 C22        -8.3280   -6.4690    1.2950 c3        1 W32     -0.974000
     23 C23        -4.4020   -4.7410    1.1960 c3        1 W32      0.019000
     24 C24        -5.9290   -4.7860    1.4540 c3        1 W32     -0.892000
     25 C25         7.6190    4.5460   -5.4480 c2        1 W32      0.466000
     26 N26         0.5470    0.7180    4.6320 n1        1 W32     -0.257000
     27 N27         1.4710    1.6980    2.6620 n1        1 W32     -0.244000
     28 N28        -0.7550   -1.4250    4.3180 n3        1 W32     -0.273000
     29 N29         1.1170    0.7060    0.4860 n2        1 W32     -0.250000
     30 N30        -3.8770   -3.4610    1.6190 n2        1 W32     -0.367000
     31 O31        -1.7580   -3.9410    0.8390 o         1 W32     -0.389000
     32 O32        -5.8590   -7.4430    1.6430 o         1 W32     -0.936000
     33 O33        -6.2650   -6.6680   -0.4020 o         1 W32     -0.936000
     34 O34         4.2900    4.5180   -2.2080 o         1 W32     -0.147000
     35 F35         7.9330    3.3290   -5.9280 f         1 W32     -0.164667
     36 F36         7.9520    5.4850   -6.3520 f         1 W32     -0.164667
     37 F37         8.2880    4.7640   -4.3140 f         1 W32     -0.164667
     38 S38        -6.5630   -6.3800    0.9770 s6        1 W32      2.823000
     39 CL1         1.3650    5.4600   -1.3110 cl        1 W32      0.019000
     40 H1          3.1750    4.7400   -6.6780 ha        1 W32      0.149250
     41 H2          5.4980    4.8940   -7.1350 ha        1 W32      0.153000
     42 H3          3.5030    0.5020   -0.3320 ha        1 W32      0.149250
     43 H4          2.4130    4.3710   -4.4630 ha        1 W32      0.149250
     44 H5          4.8500    2.0460   -1.5580 ha        1 W32      0.149250
     45 H6          6.3030    4.3090   -3.1520 ha        1 W32      0.170000
     46 H7          0.4650    3.2600   -0.1880 ha        1 W32      0.174000
     47 H8          1.6460    2.4460    4.5590 ha        1 W32      0.197000
     48 H9          0.1930   -2.1790    1.4010 ha        1 W32      0.142000
     49 H10        -2.9250   -0.0760    2.7020 hc        1 W32      0.103500
     50 H11        -3.6390   -1.3710    2.9960 hc        1 W32      0.103500
     51 H12        -2.2340   -0.2290    4.8460 h1        1 W32      0.082000
     52 H13        -2.6020   -1.7840    4.8970 h1        1 W32      0.082000
     53 H14        -8.8040   -5.8610    0.6820 h1        1 W32      0.172000
     54 H15        -8.5070   -6.2040    2.2230 h1        1 W32      0.172000
     55 H16        -8.6410   -7.3900    1.1520 h1        1 W32      0.172000
     56 H17        -3.9600   -5.4630    1.7070 h1        1 W32      0.110000
     57 H18        -4.2290   -4.8660    0.2400 h1        1 W32      0.110000
     58 H19        -6.3690   -4.0900    0.9270 h1        1 W32      0.157500
     59 H20        -6.1050   -4.6360    2.4080 h1        1 W32      0.157500
     60 H21        -0.4650   -1.7040    5.1390 hn        1 W32      0.214000
     61 H22         0.7480    0.0350   -0.0150 hn        1 W32      0.240000
     62 H23        -4.4460   -2.8120    1.9220 hn        1 W32      0.228000
@<TRIPOS>BOND
     1    1    4 1   
     2    1   40 1   
     3    2   10 1   
     4    2   41 1   
     5    3    5 1   
     6    3   42 1   
     7    4   43 1   
     8    5   44 1   
     9    6   12 1   
    10    6   45 1   
    11    7   11 1   
    12    7   46 1   
    13    8   26 1   
    14    8   47 1   
    15    9   15 1   
    16    9   17 1   
    17   11   29 1   
    18   12   34 1   
    19   13   14 1   
    20   15   28 1   
    21   16   27 1   
    22   17   18 1   
    23   17   48 1   
    24   18   20 1   
    25   19   31 1   
    26   20   21 1   
    27   20   49 1   
    28   20   50 1   
    29   21   28 1   
    30   21   51 1   
    31   21   52 1   
    32   22   38 1   
    33   22   53 1   
    34   22   54 1   
    35   22   55 1   
    36   23   24 1   
    37   23   30 1   
    38   23   56 1   
    39   23   57 1   
    40   24   38 1   
    41   24   58 1   
    42   24   59 1   
    43   25   35 1   
    44   25   36 1   
    45   25   37 1   
    46   28   60 1   
    47   29   61 1   
    48   30   62 1   
    49   32   38 1   
    50   33   38 1   
@<TRIPOS>SUBSTRUCTURE
     1 W32         1 TEMP              0 ****  ****    0 ROOT
