@<TRIPOS>MOLECULE
W32
   63    66     1     0     0
SMALL
bcc


@<TRIPOS>ATOM
      1 C1         -0.4690   -0.1640    0.1980 ca        1 W32     -0.115000
      2 C2          0.2310   -1.1690   -0.4730 ca        1 W32     -0.060000
      3 C3         -2.9180   -4.4600    3.9260 c2        1 W32      0.116000
      4 C4         -0.8140   -0.3160    1.5400 ca        1 W32     -0.077000
      5 C5         -2.1370   -3.4690    3.3140 c2        1 W32     -0.316000
      6 C6          0.2740   -2.5110    1.5510 ca        1 W32     -0.092000
      7 C7         -2.4290   -3.5370    6.1380 c1        1 W32     -0.190000
      8 C8         -3.8660   -4.9430    9.5500 c1        1 W32      0.150000
      9 C9         -4.9130   -6.8480    7.6870 c3        1 W32     -0.154000
     10 C10         0.5960   -2.3350    0.2040 ca        1 W32     -0.147000
     11 C11        -3.0220   -4.5040    5.3330 c2        1 W32     -0.167000
     12 C12        -0.4340   -1.4940    2.1960 ca        1 W32     -0.011000
     13 C13        -1.4900   -2.5030    4.0670 c2        1 W32      0.188000
     14 C14        -1.6140   -2.4730    5.5690 c3        1 W32     -0.071000
     15 C15        -5.1180   -6.8970    9.2160 c2        1 W32      0.161000
     16 C16        -4.0620   -5.6490    7.2330 c2        1 W32      0.202000
     17 C17        -6.2200   -6.8660    6.9690 c2        1 W32     -0.108000
     18 C18        -7.4630   -6.8250    7.4830 c2        1 W32     -0.112000
     19 C19        -8.6360   -6.8850    6.5670 c2        1 W32      0.306000
     20 C20        -7.8510   -6.6060    8.9080 c3        1 W32     -0.187000
     21 C21        -7.2800   -7.6210    9.9070 c3        1 W32     -0.063000
     22 C22        -5.4600   -8.9240    2.0560 c3        1 W32     -0.959000
     23 C23        -7.7800   -6.8590    4.3180 c2        1 W32     -0.731000
     24 C24        -7.4340   -7.4540    3.0240 c3        1 W32     -0.673000
     25 C25         1.3700   -3.4340   -0.5220 c3        1 W32      0.468000
     26 N26        -4.6310   -5.9890   10.0290 n2        1 W32     -0.207000
     27 N27        -3.6030   -4.7810    8.2140 n3        1 W32     -0.259000
     28 N28        -5.9020   -7.9980    9.6510 n3        1 W32     -0.238000
     29 N30        -8.5070   -7.6450    5.2840 n4        1 W32      0.044000
     30 O31        -9.7320   -6.3790    6.7900 o         1 W32     -0.204000
     31 O32        -5.9640   -8.8980    4.5580 o         1 W32     -0.993500
     32 O33        -4.9080   -6.9970    3.6130 o         1 W32     -0.993500
     33 O34        -0.6650   -1.5500    3.5830 os        1 W32     -0.100000
     34 F35         1.0510   -4.7040   -0.1060 f         1 W32     -0.155333
     35 F36         1.1760   -3.4590   -1.8800 f         1 W32     -0.155333
     36 F37         2.7310   -3.3540   -0.3650 f         1 W32     -0.155333
     37 S38        -5.8760   -8.0360    3.4220 s6        1 W32      2.744000
     38 CL1        -2.2650   -0.9330    6.1150 cl        1 W32      0.025000
     39 H1         -0.7490    0.7590   -0.3370 ha        1 W32      0.167000
     40 H2          0.4970   -1.0460   -1.5370 ha        1 W32      0.173000
     41 H3         -3.4470   -5.2020    3.2880 ha        1 W32      0.198000
     42 H4         -1.3570    0.4730    2.0840 ha        1 W32      0.169000
     43 H5         -2.0480   -3.4650    2.2140 ha        1 W32      0.180000
     44 H6          0.5760   -3.4250    2.0870 ha        1 W32      0.166000
     45 H7         -0.5730   -2.5490    6.0150 h1        1 W32      0.209000
     46 H8         -3.0200   -3.9780    7.8990 hn        1 W32      0.346000
     47 H9         -4.3460   -7.7880    7.3850 hc        1 W32      0.185000
     48 H10        -7.5080   -5.5730    9.2020 hc        1 W32      0.133500
     49 H11        -8.9700   -6.6100    9.0190 hc        1 W32      0.133500
     50 H12        -7.3290   -7.1650   10.9390 h1        1 W32      0.133000
     51 H13        -7.9010   -8.5600    9.9090 h1        1 W32      0.133000
     52 H14        -5.6290  -10.0240    2.1940 h1        1 W32      0.165667
     53 H15        -4.3760   -8.8160    1.7920 h1        1 W32      0.165667
     54 H16        -6.0230   -8.6400    1.1330 h1        1 W32      0.165667
     55 H17        -8.1260   -8.2550    2.6610 h1        1 W32      0.146500
     56 H18        -6.1000   -6.9640    5.8620 ha        1 W32      0.195000
     57 H19        -7.9780   -5.7840    4.3700 hx        1 W32      0.157000
     58 H20        -7.4350   -6.6650    2.2290 h1        1 W32      0.146500
     59 H21        -5.8360   -8.7640    9.0040 hn        1 W32      0.191000
     60 H22        -4.1790   -6.2240    5.2800 hn        1 W32      0.312000
     61 H23        -9.4500   -7.8930    4.9520 hn        1 W32      0.219500
     62 H302       -7.9740   -8.5120    5.4500 hn        1 W32      0.219500
     63 N29        -3.7880   -5.5450    5.9260 n3        1 W32     -0.121000
@<TRIPOS>BOND
     1    1    2 1   
     2    1    4 1   
     3    1   39 1   
     4    2   10 1   
     5    2   40 1   
     6    3    5 1   
     7    3   11 1   
     8    3   41 1   
     9    4   12 1   
    10    4   42 1   
    11    5   13 1   
    12    5   43 1   
    13    6   10 1   
    14    6   12 1   
    15    6   44 1   
    16    7   11 1   
    17    7   14 1   
    18    8   26 1   
    19    8   27 1   
    20    9   15 1   
    21    9   16 1   
    22    9   17 1   
    23    9   47 1   
    24   10   25 1   
    25   11   63 1   
    26   12   33 1   
    27   13   14 1   
    28   13   33 1   
    29   14   38 1   
    30   14   45 1   
    31   15   26 1   
    32   15   28 1   
    33   16   27 1   
    34   16   63 1   
    35   17   18 1   
    36   17   56 1   
    37   18   19 1   
    38   18   20 1   
    39   19   29 1   
    40   19   30 1   
    41   20   21 1   
    42   20   48 1   
    43   20   49 1   
    44   21   28 1   
    45   21   50 1   
    46   21   51 1   
    47   22   37 1   
    48   22   52 1   
    49   22   53 1   
    50   22   54 1   
    51   23   24 1   
    52   23   29 1   
    53   23   57 1   
    54   24   37 1   
    55   24   55 1   
    56   24   58 1   
    57   25   34 1   
    58   25   35 1   
    59   25   36 1   
    60   27   46 1   
    61   28   59 1   
    62   29   61 1   
    63   29   62 1   
    64   31   37 1   
    65   32   37 1   
    66   60   63 1   
@<TRIPOS>SUBSTRUCTURE
     1 W32         1 TEMP              0 ****  ****    0 ROOT
