@<TRIPOS>MOLECULE
W32
   63    66     1     0     0
SMALL
bcc


@<TRIPOS>ATOM
      1 C1          0.1400    0.0870    0.2350 ca        1 W32     -0.115000
      2 C2          0.8760   -0.9300   -0.3750 ca        1 W32     -0.059000
      3 C3         -2.8110   -4.1420    3.6470 c2        1 W32      0.104000
      4 C4         -0.3390   -0.0670    1.5350 ca        1 W32     -0.077000
      5 C5         -1.9300   -3.1800    3.1300 c2        1 W32     -0.313000
      6 C6          0.6870   -2.2890    1.6300 ca        1 W32     -0.092000
      7 C7         -2.5110   -3.2660    5.9050 c1        1 W32     -0.182000
      8 C8         -4.0980   -4.8290    9.1970 c1        1 W32      0.146000
      9 C9         -5.2330   -6.4860    7.1800 c3        1 W32     -0.158000
     10 C10         1.1440   -2.1110    0.3220 ca        1 W32     -0.147000
     11 C11        -3.0720   -4.1950    5.0300 c2        1 W32     -0.161000
     12 C12        -0.0550   -1.2600    2.2130 ca        1 W32     -0.012000
     13 C13        -1.3250   -2.2480    3.9560 c2        1 W32      0.185000
     14 C14        -1.5970   -2.2330    5.4380 c3        1 W32     -0.074000
     15 C15        -5.3770   -6.7240    8.6940 c2        1 W32      0.177000
     16 C16        -4.2840   -5.3350    6.8290 c2        1 W32      0.219000
     17 C17        -6.5760   -6.2950    6.5620 c2        1 W32     -0.091000
     18 C18        -7.7830   -6.3750    7.1510 c2        1 W32     -0.124000
     19 C19        -8.9740   -6.4290    6.2620 c2        1 W32      0.306000
     20 C20        -8.1250   -6.3660    8.6020 c3        1 W32     -0.179000
     21 C21        -7.5010   -7.5010    9.4300 c3        1 W32     -0.060000
     22 C22        -5.4240  -10.0850    3.6230 c3        1 W32     -0.955000
     23 C23        -8.0990   -7.3470    4.2150 c2        1 W32     -0.729000
     24 C24        -7.5180   -8.4670    3.4820 c3        1 W32     -0.648000
     25 C25         1.9590   -3.2230   -0.3360 c3        1 W32      0.468000
     26 N26        -4.8560   -5.9080    9.5880 n2        1 W32     -0.225000
     27 N27        -3.8270   -4.5520    7.8750 n7        1 W32     -0.257000
     28 N28        -6.1590   -7.8610    9.0100 n7        1 W32     -0.237000
     29 N30        -9.0070   -7.5860    5.2990 ny        1 W32      0.052000
     30 O31        -9.9350   -5.6710    6.2580 o         1 W32     -0.199000
     31 O32        -6.3840   -9.0120    5.7340 o         1 W32     -1.000000
     32 O33        -5.1300   -7.6440    4.2710 o         1 W32     -1.000000
     33 O34        -0.4210   -1.3220    3.5710 os        1 W32     -0.099000
     34 F35         1.5690   -4.4880    0.0350 f         1 W32     -0.155000
     35 F36         1.8990   -3.2330   -1.7060 f         1 W32     -0.155000
     36 F37         3.2990   -3.1790   -0.0440 f         1 W32     -0.155000
     37 S38        -6.0720   -8.7210    4.3650 s6        1 W32      2.713000
     38 Cl1        -2.2290   -0.6740    5.9500 cl        1 W32      0.028000
     39 H1         -0.0640    1.0210   -0.3150 ha        1 W32      0.167000
     40 H2          1.2480   -0.8060   -1.4070 ha        1 W32      0.173000
     41 H3         -3.2830   -4.8500    2.9390 ha        1 W32      0.167000
     42 H4         -0.9120    0.7320    2.0310 ha        1 W32      0.169000
     43 H5         -1.7280   -3.1720    2.0450 ha        1 W32      0.181000
     44 H6          0.9130   -3.2150    2.1830 ha        1 W32      0.166000
     45 H7         -0.6100   -2.3650    5.9830 h1        1 W32      0.210000
     46 H8         -3.2150   -3.7510    7.6410 hn        1 W32      0.341000
     47 H9         -4.8120   -7.4380    6.7050 hc        1 W32      0.204000
     48 H10        -7.7840   -5.3800    9.0280 hc        1 W32      0.127500
     49 H11        -9.2390   -6.4040    8.7420 hc        1 W32      0.127500
     50 H12        -7.4590   -7.1730   10.5080 h1        1 W32      0.130000
     51 H13        -8.1390   -8.4270    9.3670 h1        1 W32      0.130000
     52 H14        -5.5120  -11.0000    4.2640 h1        1 W32      0.166000
     53 H15        -5.8990  -10.3490    2.6460 h1        1 W32      0.166000
     54 H16        -4.3300   -9.9700    3.4040 h1        1 W32      0.166000
     55 H17        -8.1530   -9.3900    3.4360 h1        1 W32      0.145500
     56 H18        -8.2480   -6.3880    3.7090 hx        1 W32      0.161000
     57 H19        -6.5320   -6.2030    5.4510 ha        1 W32      0.192000
     58 H20        -7.3400   -8.1660    2.4160 h1        1 W32      0.145500
     59 H21        -6.1690   -8.5200    8.2440 hn        1 W32      0.216000
     60 H22        -4.3210   -5.8600    4.8640 hn        1 W32      0.312000
     61 H23        -9.9760   -7.7080    4.9730 hn        1 W32      0.217500
     62 H302       -8.7090   -8.4350    5.7970 hn        1 W32      0.217500
     63 N29        -3.9450   -5.1970    5.5350 n7        1 W32     -0.139000
@<TRIPOS>BOND
     1    1    2 1   
     2    1    4 1   
     3    1   39 1   
     4    2   10 1   
     5    2   40 1   
     6    3    5 1   
     7    3   11 1   
     8    3   41 1   
     9    4   12 1   
    10    4   42 1   
    11    5   13 1   
    12    5   43 1   
    13    6   10 1   
    14    6   12 1   
    15    6   44 1   
    16    7   11 1   
    17    7   14 1   
    18    8   26 1   
    19    8   27 1   
    20    9   15 1   
    21    9   16 1   
    22    9   17 1   
    23    9   47 1   
    24   10   25 1   
    25   11   63 1   
    26   12   33 1   
    27   13   14 1   
    28   13   33 1   
    29   14   38 1   
    30   14   45 1   
    31   15   26 1   
    32   15   28 1   
    33   16   27 1   
    34   16   63 1   
    35   17   18 1   
    36   17   57 1   
    37   18   19 1   
    38   18   20 1   
    39   19   29 1   
    40   19   30 1   
    41   20   21 1   
    42   20   48 1   
    43   20   49 1   
    44   21   28 1   
    45   21   50 1   
    46   21   51 1   
    47   22   37 1   
    48   22   52 1   
    49   22   53 1   
    50   22   54 1   
    51   23   24 1   
    52   23   29 1   
    53   23   56 1   
    54   24   37 1   
    55   24   55 1   
    56   24   58 1   
    57   25   34 1   
    58   25   35 1   
    59   25   36 1   
    60   27   46 1   
    61   28   59 1   
    62   29   61 1   
    63   29   62 1   
    64   31   37 1   
    65   32   37 1   
    66   60   63 1   
@<TRIPOS>SUBSTRUCTURE
     1 W32         1 TEMP              0 ****  ****    0 ROOT
