@<TRIPOS>MOLECULE
W32
   62    65     1     0     0
SMALL
bcc


@<TRIPOS>ATOM
      1 C1         -5.4530   -2.8490    1.9900 ca        1 W32     -0.103000
      2 C2         -6.8340   -3.0050    1.8830 ca        1 W32     -0.112000
      3 C3         -1.2330   -0.4580   -1.3540 ca        1 W32     -0.161000
      4 C4         -4.7560   -2.0590    1.0760 ca        1 W32     -0.157000
      5 C5         -2.5420   -0.9130   -1.4230 ca        1 W32     -0.103000
      6 C6         -6.8550   -1.5620   -0.0740 ca        1 W32     -0.101000
      7 C7         -1.9250    1.3150    0.1660 ca        1 W32     -0.106000
      8 C8          0.5390    4.6360   -0.8230 ca        1 W32      0.703900
      9 C9          2.3250    2.6000   -0.7080 ca        1 W32     -0.391400
     10 C10        -7.5230   -2.3610    0.8510 ca        1 W32     -0.140300
     11 C11        -0.9060    0.6650   -0.5580 ca        1 W32      0.151600
     12 C12        -5.4620   -1.4220    0.0500 ca        1 W32      0.115100
     13 C13        -3.5530   -0.2530   -0.7130 ca        1 W32      0.069100
     14 C14        -3.2450    0.8630    0.0810 ca        1 W32      0.022400
     15 C15         2.7570    3.9640   -0.7740 ca        1 W32      0.698200
     16 C16         0.9030    2.3600   -0.6470 ca        1 W32      0.717200
     17 C17         3.2610    1.5000   -0.7520 ce        1 W32     -0.004200
     18 C18         4.4230    1.4810   -0.0720 cf        1 W32     -0.188400
     19 C19         5.3190    0.3000   -0.2090 c         1 W32      0.670300
     20 C20         4.8060    2.6020    0.8200 c3        1 W32     -0.048200
     21 C21         5.1150    3.8670    0.0250 c3        1 W32      0.198800
     22 C22         6.8010   -3.6410    0.3590 c3        1 W32     -0.395300
     23 C23         7.6070   -0.5650   -0.4010 c3        1 W32      0.135000
     24 C24         7.8500   -1.3110    0.9110 c3        1 W32     -0.352600
     25 C25        -9.0370   -2.5180    0.7490 c3        1 W32      0.687200
     26 N26         1.8390    4.9910   -0.8300 nb        1 W32     -0.783000
     27 N27         0.0070    3.3970   -0.7280 nb        1 W32     -0.770000
     28 N28         4.1150    4.3000   -0.9260 nh        1 W32     -0.828900
     29 N30         6.6790    0.5250   -0.3280 n         1 W32     -0.557900
     30 O31         4.8630   -0.8640   -0.2670 o         1 W32     -0.628100
     31 O32         8.8040   -3.4350    1.8930 o         1 W32     -0.656800
     32 O33         9.1280   -3.0500   -0.4490 o         1 W32     -0.656800
     33 O34        -4.8690   -0.6510   -0.9460 os        1 W32     -0.237200
     34 F35        -9.5440   -2.3840   -0.5210 f         1 W32     -0.235967
     35 F36        -9.5120   -3.7360    1.1730 f         1 W32     -0.235967
     36 F37        -9.7480   -1.6060    1.4920 f         1 W32     -0.235967
     37 S38         8.3010   -2.9490    0.6790 s6        1 W32      1.343000
     38 CL1        -4.4430    1.6830    0.9590 cl        1 W32     -0.058400
     39 H1         -4.9070   -3.3530    2.8010 ha        1 W32      0.145000
     40 H2         -7.3830   -3.6330    2.6010 ha        1 W32      0.153000
     41 H3         -0.4540   -0.9850   -1.9270 ha        1 W32      0.143000
     42 H4         -3.6670   -1.9340    1.1610 ha        1 W32      0.151000
     43 H5         -2.8020   -1.7820   -2.0480 ha        1 W32      0.158000
     44 H6         -7.3920   -1.0560   -0.8900 ha        1 W32      0.170000
     45 H7         -1.6980    2.1870    0.8010 ha        1 W32      0.174000
     46 H8         -0.1960    5.4690   -0.8900 h5        1 W32      0.060100
     47 H9          3.0020    0.6420   -1.4020 ha        1 W32      0.142000
     48 H10         3.9590    2.8050    1.5330 hc        1 W32      0.064200
     49 H11         5.7040    2.3560    1.4440 hc        1 W32      0.064200
     50 H12         5.3320    4.6940    0.7660 h1        1 W32      0.042700
     51 H13         6.0550    3.6960   -0.5790 h1        1 W32      0.042700
     52 H14         6.0070   -2.9140    0.0340 h1        1 W32      0.132700
     53 H15         6.8620   -4.4020   -0.4610 h1        1 W32      0.132700
     54 H16         6.3800   -4.1720    1.2500 h1        1 W32      0.132700
     55 H17         8.5900   -0.1670   -0.7830 h1        1 W32      0.070700
     56 H18         7.2110   -1.3050   -1.1610 h1        1 W32      0.070700
     57 H19         8.6480   -0.7750    1.4910 h1        1 W32      0.118200
     58 H20         6.9310   -1.2500    1.5540 h1        1 W32      0.118200
     59 H21         4.2520    5.2660   -1.1670 hn        1 W32      0.418800
     60 H22         1.1080    0.3340   -0.6360 hn        1 W32      0.444800
     61 H23         7.0360    1.4330   -0.1520 hn        1 W32      0.314500
     62 N29         0.4460    1.0570   -0.4440 nh        1 W32     -0.729300
@<TRIPOS>BOND
     1    1    2 ar  
     2    1    4 ar  
     3    1   39 1   
     4    2   10 ar  
     5    2   40 1   
     6    3    5 ar  
     7    3   11 ar  
     8    3   41 1   
     9    4   12 ar  
    10    4   42 1   
    11    5   13 ar  
    12    5   43 1   
    13    6   10 ar  
    14    6   12 ar  
    15    6   44 1   
    16    7   11 ar  
    17    7   14 ar  
    18    7   45 1   
    19    8   26 ar  
    20    8   27 ar  
    21    8   46 1   
    22    9   15 ar  
    23    9   16 ar  
    24    9   17 1   
    25   10   25 1   
    26   11   62 1   
    27   12   33 1   
    28   13   14 ar  
    29   13   33 1   
    30   14   38 1   
    31   15   26 ar  
    32   15   28 1   
    33   16   27 ar  
    34   16   62 1   
    35   17   18 2   
    36   17   47 1   
    37   18   19 1   
    38   18   20 1   
    39   19   29 1   
    40   19   30 2   
    41   20   21 1   
    42   20   48 1   
    43   20   49 1   
    44   21   28 1   
    45   21   50 1   
    46   21   51 1   
    47   22   37 1   
    48   22   52 1   
    49   22   53 1   
    50   22   54 1   
    51   23   24 1   
    52   23   29 1   
    53   23   55 1   
    54   23   56 1   
    55   24   37 1   
    56   24   57 1   
    57   24   58 1   
    58   25   34 1   
    59   25   35 1   
    60   25   36 1   
    61   28   59 1   
    62   29   61 1   
    63   31   37 2   
    64   32   37 2   
    65   60   62 1   
@<TRIPOS>SUBSTRUCTURE
     1 W32         1 TEMP              0 ****  ****    0 ROOT
