@<TRIPOS>MOLECULE
W33
   45    47     1     0     0
SMALL
bcc


@<TRIPOS>ATOM
      1 O1         -0.0290    0.4080    0.0380 os        1 W33     -0.122100
      2 N2          1.2650    0.4830   -0.2000 nc        1 W33     -0.360300
      3 C3          1.9400    0.2810    0.9510 cd        1 W33      0.319600
      4 C31         3.4030    0.2810    1.1290 c3        1 W33     -0.132400
      5 C4          0.9730    0.0550    2.0290 cd        1 W33     -0.362600
      6 C5         -0.2570    0.1440    1.4130 cc        1 W33      0.263000
      7 C1C        -1.6560    0.0200    1.8420 c3        1 W33     -0.117700
      8 C2C        -2.3400    1.3730    1.9280 c3        1 W33     -0.077400
      9 C3C        -3.7930    1.2140    2.3230 c3        1 W33     -0.078400
     10 C4C        -4.4680    2.5630    2.4400 c3        1 W33     -0.086400
     11 C5C        -5.9290    2.3850    2.8160 c3        1 W33      0.128400
     12 O1B        -6.4540    3.7150    2.9450 os        1 W33     -0.313900
     13 C1B        -7.7830    3.8150    3.2840 ca        1 W33      0.161100
     14 C2B        -8.6200    2.7110    3.5010 ca        1 W33     -0.216000
     15 C3B        -9.9550    2.9030    3.8410 ca        1 W33     -0.048000
     16 C4B       -10.4720    4.1970    3.9700 ca        1 W33     -0.157900
     17 C5B        -9.6420    5.3060    3.7560 ca        1 W33     -0.049000
     18 C6B        -8.3010    5.1240    3.4140 ca        1 W33     -0.029600
     19 Cl1        -7.3350    6.4980    3.1640 cl        1 W33     -0.066400
     20 C2A       -11.8730    4.3950    4.3270 ce        1 W33      0.636200
     21 N3A       -12.5470    5.5030    4.5000 n2        1 W33     -0.628900
     22 C4A       -13.9190    5.1570    4.8490 c3        1 W33      0.071800
     23 C5A       -13.9660    3.6060    4.8610 c3        1 W33      0.089400
     24 O1A       -12.6180    3.2070    4.5170 os        1 W33     -0.460400
     25 H311        3.6900    1.0880    1.8500 hc        1 W33      0.057700
     26 H312        3.7280   -0.7040    1.5480 hc        1 W33      0.057700
     27 H313        3.9420    0.4550    0.1650 hc        1 W33      0.057700
     28 H4          1.2110   -0.1370    3.0690 ha        1 W33      0.173000
     29 H1C1       -1.6820   -0.4870    2.8440 hc        1 W33      0.066700
     30 H1C2       -2.2090   -0.6330    1.1110 hc        1 W33      0.066700
     31 H2C1       -1.8110    2.0170    2.6790 hc        1 W33      0.056200
     32 H2C2       -2.2690    1.8890    0.9340 hc        1 W33      0.056200
     33 H3C1       -3.8610    0.6700    3.3020 hc        1 W33      0.042200
     34 H3C2       -4.3250    0.5890    1.5570 hc        1 W33      0.042200
     35 H4C1       -3.9560    3.1880    3.2180 hc        1 W33      0.063700
     36 H4C2       -4.3980    3.1190    1.4690 hc        1 W33      0.063700
     37 H5C1       -6.4890    1.8360    2.0150 h1        1 W33      0.042700
     38 H5C2       -6.0330    1.8450    3.7940 h1        1 W33      0.042700
     39 H2B        -8.2350    1.6860    3.4040 ha        1 W33      0.145000
     40 H3B       -10.6110    2.0330    4.0100 ha        1 W33      0.158000
     41 H5B       -10.0460    6.3280    3.8570 ha        1 W33      0.173000
     42 H4A1      -14.1720    5.5860    5.8530 h1        1 W33      0.073200
     43 H4A2      -14.6220    5.5860    4.0880 h1        1 W33      0.073200
     44 H5A1      -14.6430    3.1810    4.0830 h1        1 W33      0.063200
     45 H5A2      -14.1890    3.1810    5.8670 h1        1 W33      0.063200
@<TRIPOS>BOND
     1    1    2 1   
     2    1    6 1   
     3    2    3 2   
     4    3    4 1   
     5    3    5 1   
     6    4   25 1   
     7    4   26 1   
     8    4   27 1   
     9    5    6 2   
    10    5   28 1   
    11    6    7 1   
    12    7    8 1   
    13    7   29 1   
    14    7   30 1   
    15    8    9 1   
    16    8   31 1   
    17    8   32 1   
    18    9   10 1   
    19    9   33 1   
    20    9   34 1   
    21   10   11 1   
    22   10   35 1   
    23   10   36 1   
    24   11   12 1   
    25   11   37 1   
    26   11   38 1   
    27   12   13 1   
    28   13   14 ar  
    29   13   18 ar  
    30   14   15 ar  
    31   14   39 1   
    32   15   16 ar  
    33   15   40 1   
    34   16   17 ar  
    35   16   20 1   
    36   17   18 ar  
    37   17   41 1   
    38   18   19 1   
    39   20   21 2   
    40   20   24 1   
    41   21   22 1   
    42   22   23 1   
    43   22   42 1   
    44   22   43 1   
    45   23   24 1   
    46   23   44 1   
    47   23   45 1   
@<TRIPOS>SUBSTRUCTURE
     1 W33         1 TEMP              0 ****  ****    0 ROOT
