@<TRIPOS>MOLECULE
W33
   45    47     1     0     0
SMALL
bcc


@<TRIPOS>ATOM
      1 O1          0.1570    1.1730    7.0050 os        1 W33     -0.122100
      2 N2         -0.3450    1.0610    8.2180 nc        1 W33     -0.360300
      3 C3         -0.2200   -0.2160    8.6350 cd        1 W33      0.319600
      4 C31        -0.6530   -0.7690    9.9310 c3        1 W33     -0.132400
      5 C4          0.4280   -0.9940    7.5760 cd        1 W33     -0.362600
      6 C5          0.6490   -0.0830    6.5650 cc        1 W33      0.263000
      7 C1C         1.2540   -0.1260    5.2280 c3        1 W33     -0.117700
      8 C2C         0.2040   -0.0820    4.1330 c3        1 W33     -0.078400
      9 C3C         0.8550   -0.0770    2.7660 c3        1 W33     -0.078400
     10 C4C        -0.1920   -0.0640    1.6740 c3        1 W33     -0.086400
     11 C5C         0.4770   -0.0380    0.3100 c3        1 W33      0.128400
     12 O1B        -0.5960   -0.0730   -0.6420 os        1 W33     -0.313900
     13 C1B        -0.2350   -0.0560   -1.9690 ca        1 W33      0.161100
     14 C2B         1.0940   -0.0050   -2.4170 ca        1 W33     -0.216000
     15 C3B         1.3710    0.0080   -3.7800 ca        1 W33     -0.048000
     16 C4B         0.3280   -0.0280   -4.7140 ca        1 W33     -0.157900
     17 C5B        -1.0020   -0.0790   -4.2740 ca        1 W33     -0.049000
     18 C6B        -1.2910   -0.0940   -2.9090 ca        1 W33     -0.029600
     19 CL1        -2.9170   -0.1560   -2.4250 cl        1 W33     -0.066400
     20 C2A         0.6220   -0.0140   -6.1430 ce        1 W33      0.636200
     21 N3A        -0.1910   -0.0430   -7.1680 n2        1 W33     -0.628900
     22 C4A         0.6070   -0.0090   -8.3880 c3        1 W33      0.071800
     23 C5A         2.0840    0.0480   -7.9170 c3        1 W33      0.089400
     24 O1A         1.9970    0.0410   -6.4720 os        1 W33     -0.460400
     25 H311        0.2290   -1.2100   10.4610 hc        1 W33      0.057700
     26 H312       -1.1100    0.0110   10.5880 hc        1 W33      0.057700
     27 H313       -1.4070   -1.5770    9.7580 hc        1 W33      0.057700
     28 H4          0.6660   -2.0510    7.6150 ha        1 W33      0.173000
     29 H1C1        1.9540    0.7470    5.1110 hc        1 W33      0.066700
     30 H1C2        1.8610   -1.0670    5.1380 hc        1 W33      0.066700
     31 H2C1       -0.4770   -0.9680    4.2260 hc        1 W33      0.056700
     32 H2C2       -0.4260    0.8390    4.2590 hc        1 W33      0.056700
     33 H3C1        1.5170    0.8240    2.6680 hc        1 W33      0.042200
     34 H3C2        1.5060   -0.9840    2.6550 hc        1 W33      0.042200
     35 H4C1       -0.8470   -0.9710    1.7500 hc        1 W33      0.063700
     36 H4C2       -0.8550    0.8340    1.7800 hc        1 W33      0.063700
     37 H5C1        1.0730    0.9010    0.1690 h1        1 W33      0.042700
     38 H5C2        1.1360   -0.9340    0.1650 h1        1 W33      0.042700
     39 H2B         1.9270    0.0240   -1.7010 ha        1 W33      0.145000
     40 H3B         2.4160    0.0490   -4.1300 ha        1 W33      0.158000
     41 H5B        -1.8270   -0.1080   -5.0070 ha        1 W33      0.173000
     42 H4A1        0.4020   -0.9270   -8.9980 h1        1 W33      0.073200
     43 H4A2        0.3310    0.8930   -8.9930 h1        1 W33      0.073200
     44 H5A1        2.6750   -0.8490   -8.2160 h1        1 W33      0.063200
     45 H5A2        2.6030    0.9910   -8.2110 h1        1 W33      0.063200
@<TRIPOS>BOND
     1    1    2 1   
     2    1    6 1   
     3    2    3 2   
     4    3    4 1   
     5    3    5 1   
     6    4   25 1   
     7    4   26 1   
     8    4   27 1   
     9    5    6 2   
    10    5   28 1   
    11    6    7 1   
    12    7    8 1   
    13    7   29 1   
    14    7   30 1   
    15    8    9 1   
    16    8   31 1   
    17    8   32 1   
    18    9   10 1   
    19    9   33 1   
    20    9   34 1   
    21   10   11 1   
    22   10   35 1   
    23   10   36 1   
    24   11   12 1   
    25   11   37 1   
    26   11   38 1   
    27   12   13 1   
    28   13   14 ar  
    29   13   18 ar  
    30   14   15 ar  
    31   14   39 1   
    32   15   16 ar  
    33   15   40 1   
    34   16   17 ar  
    35   16   20 1   
    36   17   18 ar  
    37   17   41 1   
    38   18   19 1   
    39   20   21 2   
    40   20   24 1   
    41   21   22 1   
    42   22   23 1   
    43   22   42 1   
    44   22   43 1   
    45   23   24 1   
    46   23   44 1   
    47   23   45 1   
@<TRIPOS>SUBSTRUCTURE
     1 W33         1 TEMP              0 ****  ****    0 ROOT
