@<TRIPOS>MOLECULE
W33
   45    47     1     0     0
SMALL
bcc


@<TRIPOS>ATOM
      1 O1         -0.0310    0.4250    0.0350 os        1 W33     -0.122100
      2 N2          1.2630    0.4980   -0.2000 nc        1 W33     -0.360300
      3 C3          1.9370    0.2830    0.9490 cd        1 W33      0.319600
      4 C31         3.4000    0.2770    1.1280 c3        1 W33     -0.132400
      5 C4          0.9690    0.0490    2.0240 cd        1 W33     -0.362600
      6 C5         -0.2610    0.1470    1.4070 cc        1 W33      0.263000
      7 C1C        -1.6610    0.0230    1.8340 c3        1 W33     -0.117700
      8 C2C        -2.3420    1.3760    1.9290 c3        1 W33     -0.078400
      9 C3C        -3.7960    1.2170    2.3210 c3        1 W33     -0.078400
     10 C4C        -4.4690    2.5660    2.4460 c3        1 W33     -0.086400
     11 C5C        -5.9300    2.3890    2.8190 c3        1 W33      0.128400
     12 O1B        -6.4540    3.7180    2.9550 os        1 W33     -0.313900
     13 C1B        -7.7840    3.8180    3.2920 ca        1 W33      0.161100
     14 C2B        -8.6230    2.7130    3.5000 ca        1 W33     -0.216000
     15 C3B        -9.9570    2.9050    3.8390 ca        1 W33     -0.048000
     16 C4B       -10.4730    4.2000    3.9750 ca        1 W33     -0.157900
     17 C5B        -9.6420    5.3090    3.7690 ca        1 W33     -0.049000
     18 C6B        -8.3000    5.1270    3.4280 ca        1 W33     -0.029600
     19 CL1        -7.3320    6.5020    3.1880 cl        1 W33     -0.066400
     20 C2A       -11.8750    4.3970    4.3310 ce        1 W33      0.636200
     21 N3A       -12.5480    5.5060    4.5080 n2        1 W33     -0.628900
     22 C4A       -13.9210    5.1590    4.8530 c3        1 W33      0.071800
     23 C5A       -13.9700    3.6080    4.8560 c3        1 W33      0.089400
     24 O1A       -12.6210    3.2090    4.5130 os        1 W33     -0.460400
     25 H311        3.9400    0.4660    0.1670 hc        1 W33      0.057700
     26 H312        3.6880    1.0710    1.8620 hc        1 W33      0.057700
     27 H313        3.7220   -0.7160    1.5300 hc        1 W33      0.057700
     28 H4          1.2050   -0.1550    3.0620 ha        1 W33      0.173000
     29 H1C1       -2.2140   -0.6240    1.0990 hc        1 W33      0.066700
     30 H1C2       -1.6880   -0.4900    2.8330 hc        1 W33      0.066700
     31 H2C1       -2.2690    1.8990    0.9390 hc        1 W33      0.056200
     32 H2C2       -1.8130    2.0140    2.6840 hc        1 W33      0.056200
     33 H3C1       -3.8660    0.6670    3.2960 hc        1 W33      0.042200
     34 H3C2       -4.3280    0.5980    1.5500 hc        1 W33      0.042200
     35 H4C1       -4.3970    3.1290    1.4780 hc        1 W33      0.063700
     36 H4C2       -3.9570    3.1860    3.2280 hc        1 W33      0.063700
     37 H5C1       -6.4910    1.8450    2.0140 h1        1 W33      0.042700
     38 H5C2       -6.0370    1.8430    3.7930 h1        1 W33      0.042700
     39 H2B        -8.2380    1.6890    3.3980 ha        1 W33      0.145000
     40 H3B       -10.6150    2.0360    4.0020 ha        1 W33      0.158000
     41 H5B       -10.0440    6.3310    3.8750 ha        1 W33      0.173000
     42 H4A1      -14.6220    5.5930    4.0930 h1        1 W33      0.073200
     43 H4A2      -14.1760    5.5820    5.8590 h1        1 W33      0.073200
     44 H5A1      -14.6460    3.1880    4.0750 h1        1 W33      0.063200
     45 H5A2      -14.1950    3.1780    5.8610 h1        1 W33      0.063200
@<TRIPOS>BOND
     1    1    2 1   
     2    1    6 1   
     3    2    3 2   
     4    3    4 1   
     5    3    5 1   
     6    4   25 1   
     7    4   26 1   
     8    4   27 1   
     9    5    6 2   
    10    5   28 1   
    11    6    7 1   
    12    7    8 1   
    13    7   29 1   
    14    7   30 1   
    15    8    9 1   
    16    8   31 1   
    17    8   32 1   
    18    9   10 1   
    19    9   33 1   
    20    9   34 1   
    21   10   11 1   
    22   10   35 1   
    23   10   36 1   
    24   11   12 1   
    25   11   37 1   
    26   11   38 1   
    27   12   13 1   
    28   13   14 ar  
    29   13   18 ar  
    30   14   15 ar  
    31   14   39 1   
    32   15   16 ar  
    33   15   40 1   
    34   16   17 ar  
    35   16   20 1   
    36   17   18 ar  
    37   17   41 1   
    38   18   19 1   
    39   20   21 2   
    40   20   24 1   
    41   21   22 1   
    42   22   23 1   
    43   22   42 1   
    44   22   43 1   
    45   23   24 1   
    46   23   44 1   
    47   23   45 1   
@<TRIPOS>SUBSTRUCTURE
     1 W33         1 TEMP              0 ****  ****    0 ROOT
