@<TRIPOS>MOLECULE
W35
   45    47     1     0     0
SMALL
bcc


@<TRIPOS>ATOM
      1 O1          0.0460    0.5930    0.0890 os        1 W35     -0.122100
      2 N2          1.3420    0.6960   -0.1240 nc        1 W35     -0.361300
      3 C3          2.0040    0.4060    1.0160 cd        1 W35      0.319600
      4 C31         3.4640    0.4020    1.2140 c3        1 W35     -0.132400
      5 C4          1.0240    0.0870    2.0590 cd        1 W35     -0.363600
      6 C5         -0.1990    0.2170    1.4350 cc        1 W35      0.264000
      7 C1C        -1.6010    0.0470    1.8340 c3        1 W35     -0.117700
      8 C2C        -2.3250    1.3780    1.9320 c3        1 W35     -0.078400
      9 C3C        -3.7790    1.1710    2.2970 c3        1 W35     -0.078400
     10 C4C        -4.4970    2.4980    2.4150 c3        1 W35     -0.086400
     11 C5C        -5.9560    2.2740    2.7720 c3        1 W35      0.128400
     12 O1B        -6.5330    3.5820    2.8840 os        1 W35     -0.326900
     13 C1B        -7.8720    3.6280    3.2020 ca        1 W35      0.153100
     14 C2B        -8.4090    4.9280    3.3000 ca        1 W35     -0.197500
     15 C3B        -9.7490    5.0880    3.6160 ca        1 W35     -0.049500
     16 C4B       -10.5670    3.9670    3.8390 ca        1 W35     -0.167900
     17 C5B       -10.0250    2.6800    3.7400 ca        1 W35     -0.049500
     18 C6B        -8.6800    2.5050    3.4220 ca        1 W35     -0.197500
     19 C2A       -11.9760    4.1450    4.1720 ce        1 W35      0.640200
     20 N3A       -12.9000    3.2500    4.4170 n2        1 W35     -0.636900
     21 C4A       -14.1500    3.9450    4.6980 c3        1 W35      0.072800
     22 C5A       -13.8210    5.4560    4.5790 c3        1 W35      0.089400
     23 O1A       -12.4140    5.4890    4.2420 os        1 W35     -0.459400
     24 H311        3.7330    1.1290    2.0200 hc        1 W35      0.057700
     25 H312        4.0130    0.6820    0.2810 hc        1 W35      0.057700
     26 H313        3.7940   -0.6200    1.5290 hc        1 W35      0.057700
     27 H4          1.2500   -0.1860    3.0830 ha        1 W35      0.173000
     28 H1C1       -1.6320   -0.4800    2.8260 hc        1 W35      0.066700
     29 H1C2       -2.1210   -0.6070    1.0810 hc        1 W35      0.066700
     30 H2C1       -1.8280    2.0230    2.7030 hc        1 W35      0.056200
     31 H2C2       -2.2500    1.9140    0.9490 hc        1 W35      0.056200
     32 H3C1       -4.2780    0.5390    1.5160 hc        1 W35      0.042700
     33 H3C2       -3.8490    0.6160    3.2700 hc        1 W35      0.042700
     34 H4C1       -4.4330    3.0620    1.4480 hc        1 W35      0.060700
     35 H4C2       -4.0140    3.1330    3.2020 hc        1 W35      0.060700
     36 H5C1       -6.4860    1.6980    1.9690 h1        1 W35      0.041700
     37 H5C2       -6.0560    1.7360    3.7520 h1        1 W35      0.041700
     38 H2B        -7.7580    5.7950    3.1230 ha        1 W35      0.147500
     39 H3B       -10.1810    6.1000    3.6960 ha        1 W35      0.157000
     40 H5B       -10.6610    1.7960    3.9120 ha        1 W35      0.157000
     41 H6B        -8.2720    1.4870    3.3480 ha        1 W35      0.147500
     42 H4A1      -14.5060    3.6800    5.7270 h1        1 W35      0.070700
     43 H4A2      -14.9300    3.6330    3.9570 h1        1 W35      0.070700
     44 H5A1      -13.9420    6.0090    5.5400 h1        1 W35      0.062700
     45 H5A2      -14.3700    5.9620    3.7510 h1        1 W35      0.062700
@<TRIPOS>BOND
     1    1    2 1   
     2    1    6 1   
     3    2    3 2   
     4    3    4 1   
     5    3    5 1   
     6    4   24 1   
     7    4   25 1   
     8    4   26 1   
     9    5    6 2   
    10    5   27 1   
    11    6    7 1   
    12    7    8 1   
    13    7   28 1   
    14    7   29 1   
    15    8    9 1   
    16    8   30 1   
    17    8   31 1   
    18    9   10 1   
    19    9   32 1   
    20    9   33 1   
    21   10   11 1   
    22   10   34 1   
    23   10   35 1   
    24   11   12 1   
    25   11   36 1   
    26   11   37 1   
    27   12   13 1   
    28   13   14 ar  
    29   13   18 ar  
    30   14   15 ar  
    31   14   38 1   
    32   15   16 ar  
    33   15   39 1   
    34   16   17 ar  
    35   16   19 1   
    36   17   18 ar  
    37   17   40 1   
    38   18   41 1   
    39   19   20 2   
    40   19   23 1   
    41   20   21 1   
    42   21   22 1   
    43   21   42 1   
    44   21   43 1   
    45   22   23 1   
    46   22   44 1   
    47   22   45 1   
@<TRIPOS>SUBSTRUCTURE
     1 W35         1 TEMP              0 ****  ****    0 ROOT
