@<TRIPOS>MOLECULE
W35
   45    47     1     0     0
SMALL
bcc


@<TRIPOS>ATOM
      1 O1         -0.1050    1.1360    6.7080 os        1 W35     -0.122100
      2 N2         -0.6020    1.0320    7.9230 nc        1 W35     -0.361300
      3 C3         -0.4480   -0.2360    8.3600 cd        1 W35      0.319600
      4 C31        -0.8650   -0.7770    9.6650 c3        1 W35     -0.132400
      5 C4          0.2140   -1.0160    7.3110 cd        1 W35     -0.363600
      6 C5          0.4130   -0.1160    6.2860 cc        1 W35      0.264000
      7 C1C         1.0180   -0.1690    4.9490 c3        1 W35     -0.117700
      8 C2C        -0.0290   -0.0830    3.8530 c3        1 W35     -0.078400
      9 C3C         0.6230   -0.0910    2.4870 c3        1 W35     -0.078400
     10 C4C        -0.4200   -0.0270    1.3930 c3        1 W35     -0.086400
     11 C5C         0.2500   -0.0260    0.0300 c3        1 W35      0.128400
     12 O1B        -0.8190    0.0100   -0.9260 os        1 W35     -0.326900
     13 C1B        -0.4440    0.0210   -2.2520 ca        1 W35      0.153100
     14 C2B        -1.5170    0.0600   -3.1650 ca        1 W35     -0.197500
     15 C3B        -1.2520    0.0740   -4.5260 ca        1 W35     -0.049500
     16 C4B         0.0730    0.0470   -4.9930 ca        1 W35     -0.167900
     17 C5B         1.1330    0.0080   -4.0790 ca        1 W35     -0.049500
     18 C6B         0.8800   -0.0060   -2.7080 ca        1 W35     -0.197500
     19 C2A         0.3440    0.0610   -6.4260 ce        1 W35      0.640200
     20 N3A         1.4870    0.0390   -7.0650 n2        1 W35     -0.636900
     21 C4A         1.2140    0.0680   -8.4960 c3        1 W35      0.072800
     22 C5A        -0.3310    0.1130   -8.6240 c3        1 W35      0.089400
     23 O1A        -0.8020    0.1050   -7.2550 os        1 W35     -0.459400
     24 H311        0.0290   -1.1780   10.2060 hc        1 W35      0.057700
     25 H312       -1.3510    0.0000   10.3060 hc        1 W35      0.057700
     26 H313       -1.5910   -1.6140    9.5070 hc        1 W35      0.057700
     27 H4          0.4740   -2.0670    7.3660 ha        1 W35      0.173000
     28 H1C1        1.7440    0.6840    4.8400 hc        1 W35      0.066700
     29 H1C2        1.5960   -1.1270    4.8530 hc        1 W35      0.066700
     30 H2C1       -0.7390   -0.9470    3.9400 hc        1 W35      0.056200
     31 H2C2       -0.6290    0.8560    3.9850 hc        1 W35      0.056200
     32 H3C1        1.3200    0.7830    2.3970 hc        1 W35      0.042700
     33 H3C2        1.2390   -1.0220    2.3680 hc        1 W35      0.042700
     34 H4C1       -1.1150   -0.9040    1.4660 hc        1 W35      0.060700
     35 H4C2       -1.0420    0.8990    1.5030 hc        1 W35      0.060700
     36 H5C1        0.9010    0.8770   -0.1010 h1        1 W35      0.041700
     37 H5C2        0.8580   -0.9570   -0.1230 h1        1 W35      0.041700
     38 H2B        -2.5490    0.0810   -2.7860 ha        1 W35      0.147500
     39 H3B        -2.0820    0.1050   -5.2510 ha        1 W35      0.157000
     40 H5B         2.1750   -0.0130   -4.4370 ha        1 W35      0.157000
     41 H6B         1.7230   -0.0360   -2.0050 ha        1 W35      0.147500
     42 H4A1        1.6920    0.9730   -8.9530 h1        1 W35      0.070700
     43 H4A2        1.6420   -0.8470   -8.9810 h1        1 W35      0.070700
     44 H5A1       -0.7070    1.0510   -9.0960 h1        1 W35      0.062700
     45 H5A2       -0.7570   -0.7890   -9.1240 h1        1 W35      0.062700
@<TRIPOS>BOND
     1    1    2 1   
     2    1    6 1   
     3    2    3 2   
     4    3    4 1   
     5    3    5 1   
     6    4   24 1   
     7    4   25 1   
     8    4   26 1   
     9    5    6 2   
    10    5   27 1   
    11    6    7 1   
    12    7    8 1   
    13    7   28 1   
    14    7   29 1   
    15    8    9 1   
    16    8   30 1   
    17    8   31 1   
    18    9   10 1   
    19    9   32 1   
    20    9   33 1   
    21   10   11 1   
    22   10   34 1   
    23   10   35 1   
    24   11   12 1   
    25   11   36 1   
    26   11   37 1   
    27   12   13 1   
    28   13   14 ar  
    29   13   18 ar  
    30   14   15 ar  
    31   14   38 1   
    32   15   16 ar  
    33   15   39 1   
    34   16   17 ar  
    35   16   19 1   
    36   17   18 ar  
    37   17   40 1   
    38   18   41 1   
    39   19   20 2   
    40   19   23 1   
    41   20   21 1   
    42   21   22 1   
    43   21   42 1   
    44   21   43 1   
    45   22   23 1   
    46   22   44 1   
    47   22   45 1   
@<TRIPOS>SUBSTRUCTURE
     1 W35         1 TEMP              0 ****  ****    0 ROOT
