@<TRIPOS>MOLECULE
W35
   45    47     1     0     0
SMALL
bcc


@<TRIPOS>ATOM
      1 O1          0.0480    0.6080    0.0830 os        1 W35     -0.122100
      2 N2          1.3460    0.7100   -0.1210 nc        1 W35     -0.361300
      3 C3          2.0010    0.4030    1.0190 cd        1 W35      0.319600
      4 C31         3.4600    0.3910    1.2240 c3        1 W35     -0.132400
      5 C4          1.0150    0.0720    2.0510 cd        1 W35     -0.363600
      6 C5         -0.2040    0.2150    1.4230 cc        1 W35      0.264000
      7 C1C        -1.6100    0.0430    1.8120 c3        1 W35     -0.117700
      8 C2C        -2.3280    1.3760    1.9290 c3        1 W35     -0.078400
      9 C3C        -3.7850    1.1700    2.2840 c3        1 W35     -0.078400
     10 C4C        -4.4980    2.4970    2.4220 c3        1 W35     -0.086400
     11 C5C        -5.9590    2.2730    2.7680 c3        1 W35      0.128400
     12 O1B        -6.5310    3.5820    2.9010 os        1 W35     -0.326900
     13 C1B        -7.8720    3.6280    3.2140 ca        1 W35      0.153100
     14 C2B        -8.4030    4.9290    3.3320 ca        1 W35     -0.197500
     15 C3B        -9.7440    5.0890    3.6460 ca        1 W35     -0.049500
     16 C4B       -10.5670    3.9690    3.8450 ca        1 W35     -0.167900
     17 C5B       -10.0310    2.6810    3.7250 ca        1 W35     -0.049500
     18 C6B        -8.6850    2.5050    3.4100 ca        1 W35     -0.197500
     19 C2A       -11.9770    4.1460    4.1760 ce        1 W35      0.640200
     20 N3A       -12.9050    3.2520    4.4010 n2        1 W35     -0.636900
     21 C4A       -14.1540    3.9470    4.6890 c3        1 W35      0.072800
     22 C5A       -13.8180    5.4580    4.5990 c3        1 W35      0.089400
     23 O1A       -12.4090    5.4910    4.2680 os        1 W35     -0.459400
     24 H311        3.7280    1.1130    2.0350 hc        1 W35      0.057700
     25 H312        4.0160    0.6750    0.2960 hc        1 W35      0.057700
     26 H313        3.7840   -0.6330    1.5350 hc        1 W35      0.057700
     27 H4          1.2340   -0.2160    3.0730 ha        1 W35      0.173000
     28 H1C1       -1.6480   -0.5000    2.7940 hc        1 W35      0.066700
     29 H1C2       -2.1290   -0.5950    1.0450 hc        1 W35      0.066700
     30 H2C1       -1.8320    2.0050    2.7140 hc        1 W35      0.056200
     31 H2C2       -2.2460    1.9290    0.9560 hc        1 W35      0.056200
     32 H3C1       -4.2830    0.5530    1.4900 hc        1 W35      0.042700
     33 H3C2       -3.8620    0.5980    3.2470 hc        1 W35      0.042700
     34 H4C1       -4.0160    3.1160    3.2230 hc        1 W35      0.060700
     35 H4C2       -4.4260    3.0770    1.4650 hc        1 W35      0.060700
     36 H5C1       -6.0660    1.7190    3.7380 h1        1 W35      0.041700
     37 H5C2       -6.4880    1.7140    1.9530 h1        1 W35      0.041700
     38 H2B        -7.7470    5.7960    3.1740 ha        1 W35      0.147500
     39 H3B       -10.1710    6.1010    3.7420 ha        1 W35      0.157000
     40 H5B       -10.6710    1.7970    3.8800 ha        1 W35      0.157000
     41 H6B        -8.2810    1.4870    3.3200 ha        1 W35      0.147500
     42 H4A1      -14.9320    3.6520    3.9390 h1        1 W35      0.070700
     43 H4A2      -14.5150    3.6650    5.7120 h1        1 W35      0.070700
     44 H5A1      -13.9400    5.9950    5.5690 h1        1 W35      0.062700
     45 H5A2      -14.3610    5.9810    3.7770 h1        1 W35      0.062700
@<TRIPOS>BOND
     1    1    2 1   
     2    1    6 1   
     3    2    3 2   
     4    3    4 1   
     5    3    5 1   
     6    4   24 1   
     7    4   25 1   
     8    4   26 1   
     9    5    6 2   
    10    5   27 1   
    11    6    7 1   
    12    7    8 1   
    13    7   28 1   
    14    7   29 1   
    15    8    9 1   
    16    8   30 1   
    17    8   31 1   
    18    9   10 1   
    19    9   32 1   
    20    9   33 1   
    21   10   11 1   
    22   10   34 1   
    23   10   35 1   
    24   11   12 1   
    25   11   36 1   
    26   11   37 1   
    27   12   13 1   
    28   13   14 ar  
    29   13   18 ar  
    30   14   15 ar  
    31   14   38 1   
    32   15   16 ar  
    33   15   39 1   
    34   16   17 ar  
    35   16   19 1   
    36   17   18 ar  
    37   17   40 1   
    38   18   41 1   
    39   19   20 2   
    40   19   23 1   
    41   20   21 1   
    42   21   22 1   
    43   21   42 1   
    44   21   43 1   
    45   22   23 1   
    46   22   44 1   
    47   22   45 1   
@<TRIPOS>SUBSTRUCTURE
     1 W35         1 TEMP              0 ****  ****    0 ROOT
