@<TRIPOS>MOLECULE
W37
   58    51     1     0     0
SMALL
bcc


@<TRIPOS>ATOM
      1 C3A        -8.2270    0.9930   -1.1780 c1        1 W37     -0.147750
      2 C2A        -7.1630    1.5130   -1.8880 c1        1 W37     -0.147750
      3 C1A        -6.4740    2.8150   -1.4100 c2        1 W37     -0.047000
      4 N1         -5.4370    3.3890   -2.6340 n3        1 W37     -0.259000
      5 C1B        -4.0420    4.0790   -1.9040 c3        1 W37     -0.066000
      6 C2B        -2.7870    3.2930   -2.3520 c3        1 W37     -0.160000
      7 C3B        -1.6970    3.4690   -1.3350 c3        1 W37     -0.158000
      8 C4B        -0.5960    2.4290   -1.5730 c3        1 W37     -0.159000
      9 C5B         0.3780    2.4370   -0.3810 c3        1 W37     -0.161000
     10 C6B         1.3410    1.2600   -0.4970 c3        1 W37     -0.024000
     11 O           2.1450    1.1750    0.7080 os        1 W37     -0.210000
     12 C3C         6.7010   -2.9490    0.4310 c1        1 W37     -0.071000
     13 C6C         2.8290   -0.0630    0.8580 c2        1 W37      0.107000
     14 C4C         6.0080   -1.7890    0.0670 c1        1 W37     -0.174000
     15 C7C         2.2590   -0.9750    1.7460 c2        1 W37     -0.147000
     16 C8C         2.9250   -2.1530    2.0520 c1        1 W37     -0.077000
     17 N2C         6.1320   -3.8450    1.3090 n1        1 W37     -0.138000
     18 C1C         4.8940   -3.6050    1.8250 c1        1 W37      0.053000
     19 C8P         4.1870   -2.4310    1.4610 c1        1 W37     -0.110000
     20 C4P         4.7470   -1.5410    0.5930 c2        1 W37      0.025000
     21 C5C         4.0660   -0.3350    0.2780 c2        1 W37     -0.224000
     22 C1D         4.6870   -4.6330    2.7520 c1        1 W37     -0.027000
     23 C2D         5.2880   -4.5700    4.0040 c1        1 W37     -0.147750
     24 C3D         5.1200   -5.6150    4.9130 c1        1 W37     -0.147750
     25 C4D         4.3500   -6.7230    4.5670 c1        1 W37     -0.161000
     26 C5D         3.7520   -6.7860    3.3220 c1        1 W37     -0.109000
     27 C6D         3.9210   -5.7330    2.4060 c1        1 W37     -0.116000
     28 BR29        4.0290   -8.1010    5.8510 br        1 W37      0.053000
     29 C1E        -6.2580    4.6180   -3.5420 c3        1 W37     -0.120000
     30 H3A1       -8.5500    1.4520   -0.3660 DU        1 W37      0.110000
     31 H3A2       -8.6560    0.1800   -1.4770 ha        1 W37      0.136500
     32 H2A        -6.8490    1.0660   -2.6770 ha        1 W37      0.136500
     33 H1A1       -5.9500    2.6300   -0.5970 h4        1 W37      0.077000
     34 H1A2       -7.1540    3.4920   -1.2150 h4        1 W37      0.077000
     35 H1B1       -4.1260    4.0330   -0.9340 h1        1 W37      0.069500
     36 H1B2       -3.9590    5.0070   -2.1770 h1        1 W37      0.069500
     37 H2B1       -3.0070    2.3480   -2.4320 hc        1 W37      0.088500
     38 H2B2       -2.4820    3.6330   -3.2190 hc        1 W37      0.088500
     39 H3B1       -1.3210    4.3620   -1.4150 hc        1 W37      0.079500
     40 H3B2       -2.0650    3.3520   -0.4410 hc        1 W37      0.079500
     41 H4B1       -0.1100    2.6490   -2.3950 hc        1 W37      0.087500
     42 H4B2       -1.0000    1.5370   -1.6600 hc        1 W37      0.087500
     43 H5B1       -0.1300    2.3630    0.4560 hc        1 W37      0.096000
     44 H5B2        0.8840    3.2720   -0.3820 hc        1 W37      0.096000
     45 H6B1        1.9230    1.3910   -1.2680 h1        1 W37      0.081500
     46 H6B2        0.8320    0.4330   -0.6080 h1        1 W37      0.081500
     47 H30         7.5930   -3.1250    0.0600 ha        1 W37      0.161000
     48 H40         6.4150   -1.1490   -0.5600 ha        1 W37      0.144000
     49 H7C         1.3640   -0.8110    2.1080 ha        1 W37      0.154000
     50 H7P         2.5150   -2.8080    2.6910 ha        1 W37      0.148000
     51 H5C         4.4780    0.3170   -0.3300 ha        1 W37      0.143000
     52 H6D         5.8290   -3.7930    4.2490 ha        1 W37      0.136500
     53 H5D         5.5490   -5.5700    5.8060 ha        1 W37      0.136500
     54 H3D         3.2130   -7.5620    3.0800 ha        1 W37      0.148000
     55 H2D         3.4920   -5.7780    1.5120 ha        1 W37      0.145000
     56 H1F1       -5.7250    4.8450   -4.3470 h1        1 W37      0.071333
     57 H1F2       -7.1450    4.2860   -3.8170 h1        1 W37      0.071333
     58 H1F3       -6.3660    5.4170   -2.9860 h1        1 W37      0.071333
@<TRIPOS>BOND
     1    1    2 1   
     2    1   31 1   
     3    2   32 1   
     4    3    4 1   
     5    3   33 1   
     6    3   34 1   
     7    4    5 1   
     8    4   29 1   
     9    5    6 1   
    10    5   35 1   
    11    5   36 1   
    12    6    7 1   
    13    6   37 1   
    14    6   38 1   
    15    7    8 1   
    16    7   39 1   
    17    7   40 1   
    18    8    9 1   
    19    8   41 1   
    20    8   42 1   
    21    9   10 1   
    22    9   43 1   
    23    9   44 1   
    24   10   11 1   
    25   10   45 1   
    26   10   46 1   
    27   11   13 1   
    28   12   17 1   
    29   12   47 1   
    30   13   15 1   
    31   13   21 1   
    32   14   20 1   
    33   14   48 1   
    34   15   16 1   
    35   15   49 1   
    36   16   50 1   
    37   18   19 1   
    38   19   20 1   
    39   20   21 1   
    40   21   51 1   
    41   22   27 1   
    42   23   24 1   
    43   23   52 1   
    44   24   53 1   
    45   25   26 1   
    46   25   28 1   
    47   26   54 1   
    48   27   55 1   
    49   29   56 1   
    50   29   57 1   
    51   29   58 1   
@<TRIPOS>SUBSTRUCTURE
     1 W37         1 TEMP              0 ****  ****    0 ROOT
