@<TRIPOS>MOLECULE
W37
   58    60     1     0     0
SMALL
bcc


@<TRIPOS>ATOM
      1 C3A         2.2030   -1.3490  -12.1430 c2        1 W37     -0.202000
      2 C2A         1.7860   -0.1820  -11.6610 c2        1 W37     -0.171200
      3 C1A         0.7090   -0.0600  -10.6290 c3        1 W37      0.200000
      4 N1          1.1950    0.2580   -9.2890 n3        1 W37     -0.729600
      5 C1B         0.0870    0.3760   -8.3470 c3        1 W37      0.169800
      6 C2B         0.5160    0.3280   -6.8810 c3        1 W37     -0.080400
      7 C3B        -0.7040    0.2160   -5.9910 c3        1 W37     -0.079400
      8 C4B        -0.3110    0.2070   -4.5290 c3        1 W37     -0.078400
      9 C5B        -1.5310    0.0890   -3.6420 c3        1 W37     -0.086400
     10 C6B        -1.1170    0.0790   -2.1800 c3        1 W37      0.129400
     11 O          -2.3360   -0.0290   -1.4330 os        1 W37     -0.328900
     12 C3C        -4.4890   -0.2680    4.1980 ca        1 W37      0.392200
     13 C6C        -2.2110   -0.0520   -0.0600 ca        1 W37      0.146100
     14 C4C        -4.5820   -0.2540    2.8200 ca        1 W37     -0.234300
     15 C7C        -0.9680    0.0120    0.6250 ca        1 W37     -0.192000
     16 C8C        -0.9460   -0.0240    1.9980 ca        1 W37     -0.069000
     17 N2C        -3.3100   -0.2240    4.8880 nb        1 W37     -0.664000
     18 C1C        -2.1750   -0.1650    4.1910 cp        1 W37      0.488800
     19 C8P        -2.1440   -0.1270    2.7480 ca        1 W37     -0.178300
     20 C4P        -3.3840   -0.1770    2.0550 ca        1 W37      0.019000
     21 C5C        -3.4040   -0.1440    0.6410 ca        1 W37     -0.173000
     22 C1D        -0.8990   -0.1330    4.9380 cp        1 W37     -0.134500
     23 C2D        -0.6400    0.9060    5.8380 ca        1 W37     -0.106500
     24 C3D         0.5600    0.9360    6.5470 ca        1 W37     -0.109000
     25 C4D         1.5030   -0.0800    6.3690 ca        1 W37     -0.020900
     26 C5D         1.2400   -1.1290    5.4830 ca        1 W37     -0.109000
     27 C6D         0.0430   -1.1550    4.7700 ca        1 W37     -0.106500
     28 BR29        3.1160   -0.0400    7.3210 br        1 W37     -0.087100
     29 C1E         2.0950    1.3870   -9.2560 c3        1 W37      0.153100
     30 H3A1        2.9690   -1.4180  -12.9270 ha        1 W37      0.113000
     31 H3A2        1.8130   -2.3130  -11.7900 ha        1 W37      0.113000
     32 H2A         2.2010    0.7720  -12.0230 ha        1 W37      0.119000
     33 H1A1        0.1540   -1.0400  -10.5500 h1        1 W37      0.033700
     34 H1A2       -0.0290    0.7170  -10.9940 h1        1 W37      0.033700
     35 H1B1       -0.5000    1.3270   -8.5160 h1        1 W37      0.029200
     36 H1B2       -0.6150   -0.4880   -8.5320 h1        1 W37      0.029200
     37 H2B1        1.1950   -0.5460   -6.7050 hc        1 W37      0.049200
     38 H2B2        1.0870    1.2560   -6.6140 hc        1 W37      0.049200
     39 H3B1       -1.3980    1.0750   -6.1890 hc        1 W37      0.042700
     40 H3B2       -1.2650   -0.7260   -6.2340 hc        1 W37      0.042700
     41 H4B1        0.3850   -0.6500   -4.3330 hc        1 W37      0.042700
     42 H4B2        0.2450    1.1500   -4.2840 hc        1 W37      0.042700
     43 H5B1       -2.2300    0.9460   -3.8240 hc        1 W37      0.058700
     44 H5B2       -2.0920   -0.8530   -3.8760 hc        1 W37      0.058700
     45 H6B1       -0.4590   -0.8000   -1.9530 h1        1 W37      0.040700
     46 H6B2       -0.5900    1.0290   -1.9030 h1        1 W37      0.040700
     47 H40        -5.5530   -0.2980    2.3090 ha        1 W37      0.147000
     48 H7C        -0.0270    0.0920    0.0620 ha        1 W37      0.142000
     49 H7P         0.0150    0.0300    2.5360 ha        1 W37      0.146000
     50 H5C        -4.3620   -0.1880    0.1040 ha        1 W37      0.154000
     51 H6D        -1.3880    1.7000    5.9920 ha        1 W37      0.148000
     52 H5D         0.7530    1.7620    7.2490 ha        1 W37      0.148500
     53 H3D         1.9710   -1.9400    5.3450 ha        1 W37      0.148500
     54 H2D        -0.1650   -1.9860    4.0790 ha        1 W37      0.148000
     55 H1F1        2.4530    1.5410   -8.2050 h1        1 W37      0.031700
     56 H1F2        2.9840    1.1610   -9.9020 h1        1 W37      0.031700
     57 H1F3        1.6230    2.3430   -9.6160 h1        1 W37      0.031700
     58 H30        -5.3880   -0.3210    4.8390 h4        1 W37      0.024100
@<TRIPOS>BOND
     1    1    2 2   
     2    1   30 1   
     3    1   31 1   
     4    2    3 1   
     5    2   32 1   
     6    3    4 1   
     7    3   33 1   
     8    3   34 1   
     9    4    5 1   
    10    4   29 1   
    11    5    6 1   
    12    5   35 1   
    13    5   36 1   
    14    6    7 1   
    15    6   37 1   
    16    6   38 1   
    17    7    8 1   
    18    7   39 1   
    19    7   40 1   
    20    8    9 1   
    21    8   41 1   
    22    8   42 1   
    23    9   10 1   
    24    9   43 1   
    25    9   44 1   
    26   10   11 1   
    27   10   45 1   
    28   10   46 1   
    29   11   13 1   
    30   12   14 ar  
    31   12   17 ar  
    32   12   58 1   
    33   13   15 ar  
    34   13   21 ar  
    35   14   20 ar  
    36   14   47 1   
    37   15   16 ar  
    38   15   48 1   
    39   16   19 ar  
    40   16   49 1   
    41   17   18 ar  
    42   18   19 ar  
    43   18   22 1   
    44   19   20 ar  
    45   20   21 ar  
    46   21   50 1   
    47   22   23 ar  
    48   22   27 ar  
    49   23   24 ar  
    50   23   51 1   
    51   24   25 ar  
    52   24   52 1   
    53   25   26 ar  
    54   25   28 1   
    55   26   27 ar  
    56   26   53 1   
    57   27   54 1   
    58   29   55 1   
    59   29   56 1   
    60   29   57 1   
@<TRIPOS>SUBSTRUCTURE
     1 W37         1 TEMP              0 ****  ****    0 ROOT
