@<TRIPOS>MOLECULE
W42
   57    59     1     0     0
SMALL
bcc


@<TRIPOS>ATOM
      1 O1D         2.1470    1.9420   -8.7490 oh        1 W42     -0.603800
      2 C2D         2.5580    1.2580   -9.9220 c3        1 W42      0.123400
      3 C3D         2.2900   -0.2260   -9.6940 c3        1 W42      0.123400
      4 O4D         0.9440   -0.4710  -10.1010 os        1 W42     -0.454600
      5 C5D         0.3100   -1.5390   -9.4370 c3        1 W42      0.327200
      6 O6D         0.1980   -1.2010   -8.0730 os        1 W42     -0.452600
      7 O1         -2.2360    0.4280   -4.6860 os        1 W42     -0.123100
      8 N2         -2.0280    0.7450   -5.9470 nc        1 W42     -0.364300
      9 C3         -1.0610   -0.0540   -6.4480 cd        1 W42      0.312600
     10 C31        -0.5230    0.0130   -7.8320 c3        1 W42      0.096100
     11 C4         -0.6140   -0.9720   -5.4000 cd        1 W42     -0.330600
     12 C5         -1.3770   -0.6360   -4.3020 cc        1 W42      0.252000
     13 C1C        -1.4950   -1.1170   -2.9200 c3        1 W42     -0.115700
     14 C2C        -0.8190   -0.1770   -1.9380 c3        1 W42     -0.078400
     15 C3C        -0.9860   -0.6750   -0.5180 c3        1 W42     -0.078400
     16 C4C        -0.2940    0.2480    0.4610 c3        1 W42     -0.085400
     17 C5C        -0.4810   -0.2590    1.8790 c3        1 W42      0.131400
     18 O1B         0.2330    0.6690    2.7210 os        1 W42     -0.329900
     19 C1B         0.1560    0.3560    4.0660 ca        1 W42      0.129100
     20 C2B         1.1540   -0.4360    4.6680 ca        1 W42     -0.006100
     21 C3B         1.1480   -0.6450    6.0480 ca        1 W42     -0.075500
     22 C4B         0.1420   -0.0750    6.8370 ca        1 W42     -0.115900
     23 C5B        -0.8600    0.7060    6.2500 ca        1 W42     -0.075500
     24 C6B        -0.8560    0.9170    4.8680 ca        1 W42     -0.006100
     25 CL1        -2.0890    1.8660    4.1900 cl        1 W42     -0.063400
     26 CL2         2.3870   -1.1470    3.7430 cl        1 W42     -0.063400
     27 C2A         0.1380   -0.2980    8.2820 ce        1 W42      0.627200
     28 N3A        -0.7020    0.1260    9.1910 n2        1 W42     -0.619900
     29 C4A        -0.2610   -0.3700   10.4890 c3        1 W42      0.069800
     30 C5A         1.0240   -1.1910   10.2050 c3        1 W42      0.090400
     31 O1A         1.2010   -1.0900    8.7710 os        1 W42     -0.456400
     32 HOD1        2.1310    2.8820   -8.9650 ho        1 W42      0.404000
     33 H2D1        1.9860    1.6250  -10.8160 h1        1 W42      0.037200
     34 H2D2        3.6570    1.4200  -10.0850 h1        1 W42      0.037200
     35 H3D1        2.9660   -0.8450  -10.3390 h1        1 W42      0.053700
     36 H3D2        2.4330   -0.4880   -8.6130 h1        1 W42      0.053700
     37 H5D1       -0.6870   -1.6430   -9.9430 h2        1 W42      0.065200
     38 H5D2        0.9130   -2.4860   -9.4500 h2        1 W42      0.065200
     39 H311        0.2070    0.8680   -7.9310 h1        1 W42      0.073700
     40 H312       -1.3470    0.1360   -8.5850 h1        1 W42      0.073700
     41 H4          0.1510   -1.7320   -5.5190 ha        1 W42      0.184000
     42 H1C1       -2.5840   -1.2160   -2.6540 hc        1 W42      0.065700
     43 H1C2       -1.0310   -2.1380   -2.8530 hc        1 W42      0.065700
     44 H2C1        0.2720   -0.0930   -2.1840 hc        1 W42      0.055700
     45 H2C2       -1.2640    0.8480   -2.0380 hc        1 W42      0.055700
     46 H3C1       -2.0780   -0.7420   -0.2680 hc        1 W42      0.042200
     47 H3C2       -0.5590   -1.7090   -0.4280 hc        1 W42      0.042200
     48 H4C1        0.8010    0.3120    0.2290 hc        1 W42      0.061700
     49 H4C2       -0.7120    1.2860    0.3780 hc        1 W42      0.061700
     50 H5C1       -1.5620   -0.2660    2.1730 h1        1 W42      0.042200
     51 H5C2       -0.0440   -1.2830    2.0090 h1        1 W42      0.042200
     52 H3B         1.9340   -1.2580    6.5220 ha        1 W42      0.175000
     53 H5B        -1.6520    1.1560    6.8730 ha        1 W42      0.175000
     54 H4A1       -0.0580    0.4940   11.1730 h1        1 W42      0.076200
     55 H4A2       -1.0670   -1.0050   10.9420 h1        1 W42      0.076200
     56 H5A1        1.9360   -0.7590   10.6800 h1        1 W42      0.065700
     57 H5A2        0.9160   -2.2750   10.4470 h1        1 W42      0.065700
@<TRIPOS>BOND
     1    1    2 1   
     2    1   32 1   
     3    2    3 1   
     4    2   33 1   
     5    2   34 1   
     6    3    4 1   
     7    3   35 1   
     8    3   36 1   
     9    4    5 1   
    10    5    6 1   
    11    5   37 1   
    12    5   38 1   
    13    6   10 1   
    14    7    8 1   
    15    7   12 1   
    16    8    9 2   
    17    9   10 1   
    18    9   11 1   
    19   10   39 1   
    20   10   40 1   
    21   11   12 2   
    22   11   41 1   
    23   12   13 1   
    24   13   14 1   
    25   13   42 1   
    26   13   43 1   
    27   14   15 1   
    28   14   44 1   
    29   14   45 1   
    30   15   16 1   
    31   15   46 1   
    32   15   47 1   
    33   16   17 1   
    34   16   48 1   
    35   16   49 1   
    36   17   18 1   
    37   17   50 1   
    38   17   51 1   
    39   18   19 1   
    40   19   20 ar  
    41   19   24 ar  
    42   20   21 ar  
    43   20   26 1   
    44   21   22 ar  
    45   21   52 1   
    46   22   23 ar  
    47   22   27 1   
    48   23   24 ar  
    49   23   53 1   
    50   24   25 1   
    51   27   28 2   
    52   27   31 1   
    53   28   29 1   
    54   29   30 1   
    55   29   54 1   
    56   29   55 1   
    57   30   31 1   
    58   30   56 1   
    59   30   57 1   
@<TRIPOS>SUBSTRUCTURE
     1 W42         1 TEMP              0 ****  ****    0 ROOT
