@<TRIPOS>MOLECULE
W42
   57    59     1     0     0
SMALL
bcc


@<TRIPOS>ATOM
      1 O1D         0.1000   -0.9470    0.5930 oh        1 W42     -0.603800
      2 C2D         1.4440   -1.3060    0.3150 c3        1 W42      0.123400
      3 C3D         2.2970   -0.7790    1.4650 c3        1 W42      0.123400
      4 O4D         2.3040   -1.7910    2.4720 os        1 W42     -0.454600
      5 C5D         2.4740   -1.3160    3.7870 c3        1 W42      0.327200
      6 O6D         1.3580   -0.5190    4.1120 os        1 W42     -0.452600
      7 O1         -2.6650   -0.0920    6.0310 os        1 W42     -0.123100
      8 N2         -2.0570   -0.9910    5.2860 nc        1 W42     -0.364300
      9 C3         -0.8660   -0.4980    4.8850 cd        1 W42      0.312600
     10 C31         0.1030   -1.2010    4.0040 c3        1 W42      0.096100
     11 C4         -0.7010    0.8490    5.4330 cd        1 W42     -0.330600
     12 C5         -1.8570    1.0710    6.1510 cc        1 W42      0.252000
     13 C1C        -2.3930    2.1690    6.9640 c3        1 W42     -0.115700
     14 C2C        -3.4430    2.9660    6.2110 c3        1 W42     -0.078400
     15 C3C        -4.0040    4.0700    7.0820 c3        1 W42     -0.078400
     16 C4C        -5.0340    4.8800    6.3270 c3        1 W42     -0.085400
     17 C5C        -5.5940    5.9740    7.2170 c3        1 W42      0.131400
     18 O1B        -6.5370    6.6970    6.3990 os        1 W42     -0.329900
     19 C1B        -7.1550    7.7380    7.0690 ca        1 W42      0.129100
     20 C2B        -6.6180    9.0380    7.0080 ca        1 W42     -0.006100
     21 C3B        -7.3080   10.1120    7.5740 ca        1 W42     -0.075500
     22 C4B        -8.5350    9.8940    8.2120 ca        1 W42     -0.115900
     23 C5B        -9.0750    8.6050    8.2870 ca        1 W42     -0.075500
     24 C6B        -8.3850    7.5300    7.7210 ca        1 W42     -0.006100
     25 Cl1        -9.0680    5.9790    7.8340 cl        1 W42     -0.063400
     26 Cl2        -5.1310    9.3400    6.2460 cl        1 W42     -0.063400
     27 C2A        -9.2550   11.0200    8.8050 ce        1 W42      0.627200
     28 N3A       -10.3940   11.0390    9.4480 n2        1 W42     -0.619900
     29 C4A       -10.6790   12.4150    9.8360 c3        1 W42      0.069800
     30 C5A        -9.4860   13.2520    9.3040 c3        1 W42      0.090400
     31 O1A        -8.6270   12.2780    8.6620 os        1 W42     -0.456400
     32 HOD1       -0.4540   -1.4420   -0.0200 ho        1 W42      0.404000
     33 H2D1        1.7690   -0.8220   -0.6450 h1        1 W42      0.037200
     34 H2D2        1.5470   -2.4200    0.2310 h1        1 W42      0.037200
     35 H3D1        3.3530   -0.6230    1.1230 h1        1 W42      0.053700
     36 H3D2        1.8680    0.1770    1.8650 h1        1 W42      0.053700
     37 H5D1        2.5470   -2.2400    4.4210 h2        1 W42      0.065200
     38 H5D2        3.3580   -0.6340    3.8970 h2        1 W42      0.065200
     39 H311        0.2170   -2.2780    4.3010 h1        1 W42      0.073700
     40 H312       -0.2260   -1.1410    2.9270 h1        1 W42      0.073700
     41 H4          0.1650    1.4850    5.2800 ha        1 W42      0.184000
     42 H1C1       -2.8470    1.7460    7.9030 hc        1 W42      0.066200
     43 H1C2       -1.5450    2.8410    7.2640 hc        1 W42      0.066200
     44 H2C1       -4.2690    2.2800    5.8850 hc        1 W42      0.055700
     45 H2C2       -2.9900    3.4080    5.2850 hc        1 W42      0.055700
     46 H3C1       -4.4710    3.6250    8.0000 hc        1 W42      0.042200
     47 H3C2       -3.1720    4.7410    7.4240 hc        1 W42      0.042200
     48 H4C1       -4.5740    5.3420    5.4140 hc        1 W42      0.061700
     49 H4C2       -5.8700    4.2190    5.9790 hc        1 W42      0.061700
     50 H5C1       -6.1290    5.5470    8.1040 h1        1 W42      0.042200
     51 H5C2       -4.7900    6.6770    7.5590 h1        1 W42      0.042200
     52 H3B        -6.8930   11.1330    7.5200 ha        1 W42      0.175000
     53 H5B       -10.0430    8.4350    8.7890 ha        1 W42      0.175000
     54 H4A1      -11.6490   12.7410    9.3790 h1        1 W42      0.076200
     55 H4A2      -10.7670   12.4810   10.9510 h1        1 W42      0.076200
     56 H5A1       -8.8890   13.7320   10.1150 h1        1 W42      0.065700
     57 H5A2       -9.7810   13.9940    8.5250 h1        1 W42      0.065700
@<TRIPOS>BOND
     1    1    2 1   
     2    1   32 1   
     3    2    3 1   
     4    2   33 1   
     5    2   34 1   
     6    3    4 1   
     7    3   35 1   
     8    3   36 1   
     9    4    5 1   
    10    5    6 1   
    11    5   37 1   
    12    5   38 1   
    13    6   10 1   
    14    7    8 1   
    15    7   12 1   
    16    8    9 2   
    17    9   10 1   
    18    9   11 1   
    19   10   39 1   
    20   10   40 1   
    21   11   12 2   
    22   11   41 1   
    23   12   13 1   
    24   13   14 1   
    25   13   42 1   
    26   13   43 1   
    27   14   15 1   
    28   14   44 1   
    29   14   45 1   
    30   15   16 1   
    31   15   46 1   
    32   15   47 1   
    33   16   17 1   
    34   16   48 1   
    35   16   49 1   
    36   17   18 1   
    37   17   50 1   
    38   17   51 1   
    39   18   19 1   
    40   19   20 ar  
    41   19   24 ar  
    42   20   21 ar  
    43   20   26 1   
    44   21   22 ar  
    45   21   52 1   
    46   22   23 ar  
    47   22   27 1   
    48   23   24 ar  
    49   23   53 1   
    50   24   25 1   
    51   27   28 2   
    52   27   31 1   
    53   28   29 1   
    54   29   30 1   
    55   29   54 1   
    56   29   55 1   
    57   30   31 1   
    58   30   56 1   
    59   30   57 1   
@<TRIPOS>SUBSTRUCTURE
     1 W42         1 TEMP              0 ****  ****    0 ROOT
