@<TRIPOS>MOLECULE
W42
   57    59     1     0     0
SMALL
bcc


@<TRIPOS>ATOM
      1 O1D         0.1310   -0.9330    0.5830 oh        1 W42     -0.603800
      2 C2D         1.4740   -1.3090    0.3210 c3        1 W42      0.123400
      3 C3D         2.3180   -0.7990    1.4840 c3        1 W42      0.123400
      4 O4D         2.2990   -1.8160    2.4870 os        1 W42     -0.454600
      5 C5D         2.4580   -1.3490    3.8060 c3        1 W42      0.327200
      6 O6D         1.3480   -0.5390    4.1200 os        1 W42     -0.452600
      7 O1         -2.6920   -0.0790    5.9960 os        1 W42     -0.123100
      8 N2         -2.0860   -0.9790    5.2520 nc        1 W42     -0.364300
      9 C3         -0.8850   -0.4970    4.8670 cd        1 W42      0.312600
     10 C31         0.0860   -1.2050    3.9910 c3        1 W42      0.096100
     11 C4         -0.7110    0.8440    5.4260 cd        1 W42     -0.330600
     12 C5         -1.8720    1.0740    6.1330 cc        1 W42      0.252000
     13 C1C        -2.4040    2.1720    6.9490 c3        1 W42     -0.115700
     14 C2C        -3.4530    2.9730    6.1980 c3        1 W42     -0.078400
     15 C3C        -4.0110    4.0760    7.0720 c3        1 W42     -0.078400
     16 C4C        -5.0420    4.8890    6.3200 c3        1 W42     -0.085400
     17 C5C        -5.5980    5.9820    7.2130 c3        1 W42      0.131400
     18 O1B        -6.5420    6.7080    6.3980 os        1 W42     -0.329900
     19 C1B        -7.1580    7.7470    7.0720 ca        1 W42      0.129100
     20 C2B        -6.6200    9.0480    7.0130 ca        1 W42     -0.006100
     21 C3B        -7.3090   10.1200    7.5820 ca        1 W42     -0.075500
     22 C4B        -8.5350    9.9020    8.2230 ca        1 W42     -0.115900
     23 C5B        -9.0750    8.6130    8.2960 ca        1 W42     -0.075500
     24 C6B        -8.3870    7.5380    7.7260 ca        1 W42     -0.006100
     25 CL1        -9.0700    5.9890    7.8380 cl        1 W42     -0.063400
     26 CL2        -5.1350    9.3510    6.2480 cl        1 W42     -0.063400
     27 C2A        -9.2530   11.0270    8.8190 ce        1 W42      0.627200
     28 N3A       -10.3900   11.0450    9.4650 n2        1 W42     -0.619900
     29 C4A       -10.6740   12.4210    9.8560 c3        1 W42      0.069800
     30 C5A        -9.4820   13.2580    9.3230 c3        1 W42      0.090400
     31 O1A        -8.6240   12.2860    8.6770 os        1 W42     -0.456400
     32 HOD1       -0.4220   -1.4190   -0.0400 ho        1 W42      0.404000
     33 H2D1        1.5630   -2.4240    0.2330 h1        1 W42      0.037200
     34 H2D2        1.8180   -0.8260   -0.6330 h1        1 W42      0.037200
     35 H3D1        3.3810   -0.6550    1.1560 h1        1 W42      0.053700
     36 H3D2        1.8970    0.1610    1.8830 h1        1 W42      0.053700
     37 H5D1        3.3490   -0.6780    3.9300 h2        1 W42      0.065200
     38 H5D2        2.5110   -2.2770    4.4360 h2        1 W42      0.065200
     39 H311        0.1830   -2.2860    4.2810 h1        1 W42      0.073700
     40 H312       -0.2300   -1.1320    2.9110 h1        1 W42      0.073700
     41 H4          0.1640    1.4710    5.2870 ha        1 W42      0.184000
     42 H1C1       -2.8570    1.7500    7.8870 hc        1 W42      0.065700
     43 H1C2       -1.5540    2.8420    7.2480 hc        1 W42      0.065700
     44 H2C1       -3.0000    3.4160    5.2730 hc        1 W42      0.055700
     45 H2C2       -4.2810    2.2890    5.8720 hc        1 W42      0.055700
     46 H3C1       -3.1780    4.7450    7.4150 hc        1 W42      0.042200
     47 H3C2       -4.4780    3.6300    7.9900 hc        1 W42      0.042200
     48 H4C1       -4.5820    5.3530    5.4080 hc        1 W42      0.061700
     49 H4C2       -5.8790    4.2300    5.9710 hc        1 W42      0.061700
     50 H5C1       -6.1320    5.5540    8.1010 h1        1 W42      0.042200
     51 H5C2       -4.7930    6.6830    7.5550 h1        1 W42      0.042200
     52 H3B        -6.8940   11.1420    7.5290 ha        1 W42      0.175000
     53 H5B       -10.0420    8.4430    8.8000 ha        1 W42      0.175000
     54 H4A1      -10.7590   12.4850   10.9720 h1        1 W42      0.076200
     55 H4A2      -11.6450   12.7480    9.4020 h1        1 W42      0.076200
     56 H5A1       -9.7780   14.0020    8.5470 h1        1 W42      0.065700
     57 H5A2       -8.8830   13.7360   10.1340 h1        1 W42      0.065700
@<TRIPOS>BOND
     1    1    2 1   
     2    1   32 1   
     3    2    3 1   
     4    2   33 1   
     5    2   34 1   
     6    3    4 1   
     7    3   35 1   
     8    3   36 1   
     9    4    5 1   
    10    5    6 1   
    11    5   37 1   
    12    5   38 1   
    13    6   10 1   
    14    7    8 1   
    15    7   12 1   
    16    8    9 2   
    17    9   10 1   
    18    9   11 1   
    19   10   39 1   
    20   10   40 1   
    21   11   12 2   
    22   11   41 1   
    23   12   13 1   
    24   13   14 1   
    25   13   42 1   
    26   13   43 1   
    27   14   15 1   
    28   14   44 1   
    29   14   45 1   
    30   15   16 1   
    31   15   46 1   
    32   15   47 1   
    33   16   17 1   
    34   16   48 1   
    35   16   49 1   
    36   17   18 1   
    37   17   50 1   
    38   17   51 1   
    39   18   19 1   
    40   19   20 ar  
    41   19   24 ar  
    42   20   21 ar  
    43   20   26 1   
    44   21   22 ar  
    45   21   52 1   
    46   22   23 ar  
    47   22   27 1   
    48   23   24 ar  
    49   23   53 1   
    50   24   25 1   
    51   27   28 2   
    52   27   31 1   
    53   28   29 1   
    54   29   30 1   
    55   29   54 1   
    56   29   55 1   
    57   30   31 1   
    58   30   56 1   
    59   30   57 1   
@<TRIPOS>SUBSTRUCTURE
     1 W42         1 TEMP              0 ****  ****    0 ROOT
