@<TRIPOS>MOLECULE
W43
   54    56     1     0     0
SMALL
bcc


@<TRIPOS>ATOM
      1 O1         -1.4100    0.6730   -9.4470 os        1 W43     -0.124100
      2 N2         -0.7590    0.5200  -10.5820 nc        1 W43     -0.362300
      3 C3          0.3030   -0.2880  -10.3800 cd        1 W43      0.320600
      4 C31         1.2920   -0.7150  -11.3840 c3        1 W43     -0.132400
      5 C4          0.3250   -0.6890   -8.9700 cd        1 W43     -0.365600
      6 C5         -0.7710   -0.0630   -8.4150 cc        1 W43      0.267000
      7 C1C        -1.4020   -0.0040   -7.0910 c3        1 W43     -0.120700
      8 C2C        -0.3770   -0.0300   -5.9740 c3        1 W43     -0.076400
      9 C3C        -1.0570   -0.0310   -4.6220 c3        1 W43     -0.080400
     10 C4C        -0.0400   -0.0530   -3.5010 c3        1 W43     -0.078400
     11 C5C        -0.7180   -0.0510   -2.1470 c3        1 W43     -0.078400
     12 C6C         0.3030   -0.0790   -1.0320 c3        1 W43     -0.086400
     13 C7C        -0.3960   -0.0720    0.3180 c3        1 W43      0.128400
     14 O1B         0.6570   -0.1120    1.2920 os        1 W43     -0.314900
     15 C1B         0.2670   -0.1130    2.6110 ca        1 W43      0.161100
     16 C2B        -1.0720   -0.0770    3.0310 ca        1 W43     -0.216000
     17 C3B        -1.3780   -0.0820    4.3870 ca        1 W43     -0.048000
     18 C4B        -0.3560   -0.1210    5.3430 ca        1 W43     -0.158900
     19 C5B         0.9840   -0.1570    4.9320 ca        1 W43     -0.049000
     20 C6B         1.3020   -0.1530    3.5740 ca        1 W43     -0.030600
     21 CL1         2.9400   -0.1980    3.1250 cl        1 W43     -0.067400
     22 C2A        -0.6820   -0.1250    6.7660 ce        1 W43      0.638200
     23 N3A         0.1110   -0.1720    7.8050 n2        1 W43     -0.626900
     24 C4A        -0.7150   -0.1690    9.0200 c3        1 W43      0.088500
     25 CM1        -0.4070    0.9660    9.9790 c3        1 W43     -0.086100
     26 C5A        -2.1850   -0.0980    8.5040 c3        1 W43      0.089400
     27 O1A        -2.0630   -0.0790    7.0630 os        1 W43     -0.459400
     28 H311        2.3110   -0.3740  -11.0720 hc        1 W43      0.057367
     29 H312        1.2950   -1.8320  -11.4540 hc        1 W43      0.057367
     30 H313        1.0700   -0.2950  -12.3960 hc        1 W43      0.057367
     31 H4          1.0580   -1.3360   -8.5030 ha        1 W43      0.173000
     32 H1C1       -2.1000   -0.8810   -6.9880 hc        1 W43      0.070700
     33 H1C2       -2.0270    0.9280   -7.0150 hc        1 W43      0.070700
     34 H2C1        0.2960    0.8640   -6.0580 hc        1 W43      0.049200
     35 H2C2        0.2680   -0.9420   -6.0750 hc        1 W43      0.049200
     36 H3C1       -1.7290   -0.9260   -4.5380 hc        1 W43      0.042700
     37 H3C2       -1.7050    0.8800   -4.5250 hc        1 W43      0.042700
     38 H4C1        0.6340    0.8410   -3.5860 hc        1 W43      0.044700
     39 H4C2        0.6070   -0.9650   -3.5960 hc        1 W43      0.044700
     40 H5C1       -1.3950   -0.9420   -2.0640 hc        1 W43      0.042200
     41 H5C2       -1.3610    0.8640   -2.0500 hc        1 W43      0.042200
     42 H6C1        0.9830    0.8100   -1.1030 hc        1 W43      0.061700
     43 H6C2        0.9440   -0.9950   -1.1130 hc        1 W43      0.061700
     44 H7C1       -1.0530   -0.9730    0.4390 h1        1 W43      0.042700
     45 H7C2       -1.0000    0.8630    0.4560 h1        1 W43      0.042700
     46 H2B        -1.8890   -0.0450    2.2970 ha        1 W43      0.145000
     47 H3B        -2.4310   -0.0530    4.7140 ha        1 W43      0.158000
     48 H5B         1.7920   -0.1880    5.6820 ha        1 W43      0.173000
     49 H4A        -0.5400   -1.1490    9.5500 h1        1 W43      0.075700
     50 HM11        0.6560    0.9160   10.3150 hc        1 W43      0.045700
     51 HM12       -0.5820    1.9590    9.5000 hc        1 W43      0.045700
     52 HM13       -1.0720    0.8770   10.8730 hc        1 W43      0.045700
     53 H5A1       -2.7830   -1.0000    8.7710 h1        1 W43      0.063700
     54 H5A2       -2.7090    0.8400    8.8040 h1        1 W43      0.063700
@<TRIPOS>BOND
     1    1    2 1   
     2    1    6 1   
     3    2    3 2   
     4    3    4 1   
     5    3    5 1   
     6    4   28 1   
     7    4   29 1   
     8    4   30 1   
     9    5    6 2   
    10    5   31 1   
    11    6    7 1   
    12    7    8 1   
    13    7   32 1   
    14    7   33 1   
    15    8    9 1   
    16    8   34 1   
    17    8   35 1   
    18    9   10 1   
    19    9   36 1   
    20    9   37 1   
    21   10   11 1   
    22   10   38 1   
    23   10   39 1   
    24   11   12 1   
    25   11   40 1   
    26   11   41 1   
    27   12   13 1   
    28   12   42 1   
    29   12   43 1   
    30   13   14 1   
    31   13   44 1   
    32   13   45 1   
    33   14   15 1   
    34   15   16 ar  
    35   15   20 ar  
    36   16   17 ar  
    37   16   46 1   
    38   17   18 ar  
    39   17   47 1   
    40   18   19 ar  
    41   18   22 1   
    42   19   20 ar  
    43   19   48 1   
    44   20   21 1   
    45   22   23 2   
    46   22   27 1   
    47   23   24 1   
    48   24   25 1   
    49   24   26 1   
    50   24   49 1   
    51   25   50 1   
    52   25   51 1   
    53   25   52 1   
    54   26   27 1   
    55   26   53 1   
    56   26   54 1   
@<TRIPOS>SUBSTRUCTURE
     1 W43         1 TEMP              0 ****  ****    0 ROOT
