@<TRIPOS>MOLECULE
W43
   54    56     1     0     0
SMALL
bcc


@<TRIPOS>ATOM
      1 O1          0.0490    0.4990    0.0390 os        1 W43     -0.122100
      2 N2          1.3410    0.5660   -0.2130 nc        1 W43     -0.361300
      3 C3          2.0280    0.3330    0.9260 cd        1 W43      0.319600
      4 C31         3.4930    0.3140    1.0850 c3        1 W43     -0.132400
      5 C4          1.0720    0.0960    2.0100 cd        1 W43     -0.364600
      6 C5         -0.1650    0.2100    1.4110 cc        1 W43      0.265000
      7 C1C        -1.5600    0.0910    1.8560 c3        1 W43     -0.117700
      8 C2C        -2.2460    1.4440    1.9250 c3        1 W43     -0.078400
      9 C3C        -3.6930    1.2900    2.3410 c3        1 W43     -0.079400
     10 C4C        -4.3790    2.6360    2.4290 c3        1 W43     -0.078400
     11 C5C        -5.8300    2.4850    2.8340 c3        1 W43     -0.078400
     12 C6C        -6.5080    3.8340    2.9330 c3        1 W43     -0.086400
     13 C7C        -7.9630    3.6610    3.3310 c3        1 W43      0.128400
     14 O1B        -8.4970    4.9910    3.4170 os        1 W43     -0.313900
     15 C1B        -9.8230    5.0940    3.7680 ca        1 W43      0.162100
     16 C2B       -10.6490    3.9920    4.0350 ca        1 W43     -0.217000
     17 C3B       -11.9810    4.1870    4.3840 ca        1 W43     -0.048000
     18 C4B       -12.5070    5.4820    4.4710 ca        1 W43     -0.158900
     19 C5B       -11.6880    6.5880    4.2050 ca        1 W43     -0.049000
     20 C6B       -10.3500    6.4040    3.8540 ca        1 W43     -0.030600
     21 CL1        -9.3970    7.7740    3.5420 cl        1 W43     -0.067400
     22 C2A       -13.9060    5.6830    4.8360 ce        1 W43      0.639200
     23 N3A       -14.5810    6.7930    4.9850 n2        1 W43     -0.626900
     24 C4A       -15.9550    6.4540    5.3770 c3        1 W43      0.088500
     25 CM1       -17.0210    7.0000    4.4450 c3        1 W43     -0.086100
     26 C5A       -15.9820    4.8950    5.4250 c3        1 W43      0.089400
     27 O1A       -14.6380    4.4960    5.0730 os        1 W43     -0.459400
     28 H311        3.7960    1.0910    1.8310 hc        1 W43      0.057700
     29 H312        4.0220    0.5190    0.1220 hc        1 W43      0.057700
     30 H313        3.8130   -0.6890    1.4630 hc        1 W43      0.057700
     31 H4          1.3200   -0.1190    3.0430 ha        1 W43      0.173000
     32 H1C1       -2.1180   -0.5750    1.1430 hc        1 W43      0.066200
     33 H1C2       -1.5750   -0.3980    2.8670 hc        1 W43      0.066200
     34 H2C1       -1.7100    2.1030    2.6560 hc        1 W43      0.053700
     35 H2C2       -2.1880    1.9410    0.9210 hc        1 W43      0.053700
     36 H3C1       -3.7480    0.7730    3.3360 hc        1 W43      0.041200
     37 H3C2       -4.2320    0.6410    1.6010 hc        1 W43      0.041200
     38 H4C1       -4.3180    3.1560    1.4370 hc        1 W43      0.045700
     39 H4C2       -3.8460    3.2830    3.1750 hc        1 W43      0.045700
     40 H5C1       -6.3660    1.8470    2.0820 hc        1 W43      0.041200
     41 H5C2       -5.8920    1.9570    3.8220 hc        1 W43      0.041200
     42 H6C1       -6.4520    4.3710    1.9510 hc        1 W43      0.061700
     43 H6C2       -5.9880    4.4760    3.6920 hc        1 W43      0.061700
     44 H7C1       -8.0540    3.1570    4.3290 h1        1 W43      0.042200
     45 H7C2       -8.5290    3.0790    2.5570 h1        1 W43      0.042200
     46 H2B       -10.2570    2.9680    3.9720 ha        1 W43      0.145000
     47 H3B       -12.6280    3.3200    4.5930 ha        1 W43      0.158000
     48 H5B       -12.0990    7.6100    4.2720 ha        1 W43      0.172000
     49 H4A       -16.1260    6.8740    6.4090 h1        1 W43      0.075700
     50 HM11      -16.9660    8.1140    4.4000 hc        1 W43      0.045700
     51 HM12      -16.9000    6.5960    3.4110 hc        1 W43      0.045700
     52 HM13      -18.0260    6.7030    4.8300 hc        1 W43      0.045700
     53 H5A1      -16.1860    4.4960    6.4470 h1        1 W43      0.063700
     54 H5A2      -16.6690    4.4460    4.6690 h1        1 W43      0.063700
@<TRIPOS>BOND
     1    1    2 1   
     2    1    6 1   
     3    2    3 2   
     4    3    4 1   
     5    3    5 1   
     6    4   28 1   
     7    4   29 1   
     8    4   30 1   
     9    5    6 2   
    10    5   31 1   
    11    6    7 1   
    12    7    8 1   
    13    7   32 1   
    14    7   33 1   
    15    8    9 1   
    16    8   34 1   
    17    8   35 1   
    18    9   10 1   
    19    9   36 1   
    20    9   37 1   
    21   10   11 1   
    22   10   38 1   
    23   10   39 1   
    24   11   12 1   
    25   11   40 1   
    26   11   41 1   
    27   12   13 1   
    28   12   42 1   
    29   12   43 1   
    30   13   14 1   
    31   13   44 1   
    32   13   45 1   
    33   14   15 1   
    34   15   16 ar  
    35   15   20 ar  
    36   16   17 ar  
    37   16   46 1   
    38   17   18 ar  
    39   17   47 1   
    40   18   19 ar  
    41   18   22 1   
    42   19   20 ar  
    43   19   48 1   
    44   20   21 1   
    45   22   23 2   
    46   22   27 1   
    47   23   24 1   
    48   24   25 1   
    49   24   26 1   
    50   24   49 1   
    51   25   50 1   
    52   25   51 1   
    53   25   52 1   
    54   26   27 1   
    55   26   53 1   
    56   26   54 1   
@<TRIPOS>SUBSTRUCTURE
     1 W43         1 TEMP              0 ****  ****    0 ROOT
