@<TRIPOS>MOLECULE
W43
   54    56     1     0     0
SMALL
bcc


@<TRIPOS>ATOM
      1 O1          0.0510    0.4720    0.0520 os        1 W43     -0.122100
      2 N2          1.3410    0.5380   -0.2030 nc        1 W43     -0.361300
      3 C3          2.0310    0.3270    0.9380 cd        1 W43      0.319600
      4 C31         3.4960    0.3160    1.0950 c3        1 W43     -0.132400
      5 C4          1.0780    0.1030    2.0280 cd        1 W43     -0.364600
      6 C5         -0.1610    0.2040    1.4290 cc        1 W43      0.265000
      7 C1C        -1.5540    0.0870    1.8780 c3        1 W43     -0.117700
      8 C2C        -2.2440    1.4390    1.9310 c3        1 W43     -0.078400
      9 C3C        -3.6890    1.2870    2.3530 c3        1 W43     -0.079400
     10 C4C        -4.3780    2.6330    2.4250 c3        1 W43     -0.078400
     11 C5C        -5.8270    2.4830    2.8370 c3        1 W43     -0.078400
     12 C6C        -6.5080    3.8320    2.9200 c3        1 W43     -0.086400
     13 C7C        -7.9610    3.6610    3.3260 c3        1 W43      0.128400
     14 O1B        -8.4980    4.9900    3.3960 os        1 W43     -0.313900
     15 C1B        -9.8220    5.0960    3.7520 ca        1 W43      0.162100
     16 C2B       -10.6450    3.9960    4.0360 ca        1 W43     -0.217000
     17 C3B       -11.9760    4.1920    4.3880 ca        1 W43     -0.048000
     18 C4B       -12.5040    5.4870    4.4630 ca        1 W43     -0.158900
     19 C5B       -11.6880    6.5910    4.1800 ca        1 W43     -0.049000
     20 C6B       -10.3510    6.4050    3.8260 ca        1 W43     -0.030600
     21 Cl1        -9.4020    7.7740    3.4930 cl        1 W43     -0.067400
     22 C2A       -13.9020    5.6900    4.8320 ce        1 W43      0.639200
     23 N3A       -14.5770    6.8000    4.9720 n2        1 W43     -0.626900
     24 C4A       -15.9490    6.4630    5.3740 c3        1 W43      0.088500
     25 CM1       -17.0200    6.9970    4.4410 c3        1 W43     -0.086100
     26 C5A       -15.9740    4.9050    5.4400 c3        1 W43      0.089400
     27 O1A       -14.6300    4.5050    5.0860 os        1 W43     -0.459400
     28 H311        3.8210   -0.6780    1.4940 hc        1 W43      0.057700
     29 H312        4.0230    0.5010    0.1270 hc        1 W43      0.057700
     30 H313        3.7990    1.1090    1.8240 hc        1 W43      0.057700
     31 H4          1.3280   -0.0940    3.0630 ha        1 W43      0.173000
     32 H1C1       -2.1120   -0.5900    1.1740 hc        1 W43      0.066700
     33 H1C2       -1.5660   -0.3890    2.8950 hc        1 W43      0.066700
     34 H2C1       -1.7060    2.1090    2.6520 hc        1 W43      0.053700
     35 H2C2       -2.1890    1.9230    0.9200 hc        1 W43      0.053700
     36 H3C1       -3.7400    0.7840    3.3540 hc        1 W43      0.041200
     37 H3C2       -4.2280    0.6270    1.6230 hc        1 W43      0.041200
     38 H4C1       -4.3210    3.1400    1.4260 hc        1 W43      0.045700
     39 H4C2       -3.8440    3.2910    3.1610 hc        1 W43      0.045700
     40 H5C1       -5.8850    1.9680    3.8320 hc        1 W43      0.041200
     41 H5C2       -6.3640    1.8340    2.0950 hc        1 W43      0.041200
     42 H6C1       -6.4570    4.3560    1.9300 hc        1 W43      0.061700
     43 H6C2       -5.9870    4.4850    3.6690 hc        1 W43      0.061700
     44 H7C1       -8.5280    3.0680    2.5610 h1        1 W43      0.042200
     45 H7C2       -8.0470    3.1690    4.3300 h1        1 W43      0.042200
     46 H2B       -10.2510    2.9710    3.9830 ha        1 W43      0.145000
     47 H3B       -12.6210    3.3260    4.6100 ha        1 W43      0.158000
     48 H5B       -12.1000    7.6130    4.2380 ha        1 W43      0.172000
     49 H4A       -16.1160    6.8950    6.4020 h1        1 W43      0.075700
     50 HM11      -16.9030    6.5820    3.4110 hc        1 W43      0.045700
     51 HM12      -18.0230    6.7030    4.8340 hc        1 W43      0.045700
     52 HM13      -16.9680    8.1110    4.3830 hc        1 W43      0.045700
     53 H5A1      -16.1720    4.5170    6.4670 h1        1 W43      0.063700
     54 H5A2      -16.6630    4.4470    4.6920 h1        1 W43      0.063700
@<TRIPOS>BOND
     1    1    2 1   
     2    1    6 1   
     3    2    3 2   
     4    3    4 1   
     5    3    5 1   
     6    4   28 1   
     7    4   29 1   
     8    4   30 1   
     9    5    6 2   
    10    5   31 1   
    11    6    7 1   
    12    7    8 1   
    13    7   32 1   
    14    7   33 1   
    15    8    9 1   
    16    8   34 1   
    17    8   35 1   
    18    9   10 1   
    19    9   36 1   
    20    9   37 1   
    21   10   11 1   
    22   10   38 1   
    23   10   39 1   
    24   11   12 1   
    25   11   40 1   
    26   11   41 1   
    27   12   13 1   
    28   12   42 1   
    29   12   43 1   
    30   13   14 1   
    31   13   44 1   
    32   13   45 1   
    33   14   15 1   
    34   15   16 ar  
    35   15   20 ar  
    36   16   17 ar  
    37   16   46 1   
    38   17   18 ar  
    39   17   47 1   
    40   18   19 ar  
    41   18   22 1   
    42   19   20 ar  
    43   19   48 1   
    44   20   21 1   
    45   22   23 2   
    46   22   27 1   
    47   23   24 1   
    48   24   25 1   
    49   24   26 1   
    50   24   49 1   
    51   25   50 1   
    52   25   51 1   
    53   25   52 1   
    54   26   27 1   
    55   26   53 1   
    56   26   54 1   
@<TRIPOS>SUBSTRUCTURE
     1 W43         1 TEMP              0 ****  ****    0 ROOT
