@<TRIPOS>MOLECULE
W43
   54    50     1     0     0
SMALL
bcc


@<TRIPOS>ATOM
      1 O1          7.2090   -2.1470   -3.2370 os        1 W43     -0.065000
      2 N2          8.4420   -2.5160   -3.7700 n2        1 W43     -0.026000
      3 C3          8.7160   -3.7830   -3.3610 c1        1 W43     -0.103000
      4 C31         9.9820   -4.5780   -3.6830 c2        1 W43     -0.156000
      5 C4          7.6680   -4.2130   -2.5780 c1        1 W43     -0.234000
      6 C5          6.7380   -3.1900   -2.5080 c1        1 W43     -0.024000
      7 C1C         5.3200   -3.2830   -1.8430 c2        1 W43     -0.102000
      8 C2C         4.8080   -1.8720   -1.5180 c3        1 W43     -0.157000
      9 C3C         3.3390   -1.9490   -1.1200 c3        1 W43     -0.158000
     10 C4C         2.7440   -0.5430   -1.0780 c3        1 W43     -0.157000
     11 C5C         1.2320   -0.6320   -0.7380 c3        1 W43     -0.157000
     12 C6C         0.6520    0.7690   -0.6210 c3        1 W43     -0.165000
     13 C7C        -0.7970    0.6780   -0.1590 c3        1 W43     -0.022000
     14 O1B        -1.3220    2.0040    0.0460 os        1 W43     -0.197000
     15 C1B        -2.6150    2.0290    0.6590 c2        1 W43      0.117000
     16 C2B        -3.7550    1.9050   -0.1260 c2        1 W43     -0.217000
     17 C3B        -5.0120    2.0530    0.4470 c1        1 W43     -0.048000
     18 C4B        -5.1300    2.3250    1.8060 c1        1 W43     -0.075000
     19 C5B        -3.9890    2.4490    2.5890 c1        1 W43     -0.049000
     20 C6B        -2.7320    2.3010    2.0150 c1        1 W43     -0.109000
     21 CL1        -1.3190    2.4580    2.9840 cl        1 W43      0.011000
     22 C2A        -6.5390    2.4100    2.4640 c2        1 W43      0.134000
     23 N3A        -6.8650    3.5130    3.3210 n1        1 W43     -0.214000
     24 C4A        -8.0060    3.4180    3.8610 c2        1 W43     -0.076000
     25 CM1        -8.9930    4.3720    3.1740 c3        1 W43     -0.204000
     26 C5A        -8.3060    1.8410    3.6170 c3        1 W43     -0.061000
     27 O1A        -7.1560    1.3640    2.7400 os        1 W43     -0.254000
     28 H311        9.7340   -5.4380   -4.0890 ha        1 W43      0.097000
     29 H312       10.4800   -4.7380   -2.8650 ha        1 W43      0.097000
     30 H313       10.5340   -4.0720   -4.3070 ha        1 W43      0.097000
     31 H4          7.5920   -5.1140   -2.1340 DU        1 W43      0.173000
     32 H1C1        5.3800   -3.8000   -1.0250 ha        1 W43      0.105500
     33 H1C2        4.6980   -3.7220   -2.4620 ha        1 W43      0.105500
     34 H2C1        4.9090   -1.2750   -2.3400 hc        1 W43      0.093000
     35 H2C2        5.3380   -1.4920   -0.7620 hc        1 W43      0.093000
     36 H3C1        2.8570   -2.4850   -1.7670 hc        1 W43      0.080500
     37 H3C2        3.2620   -2.3670   -0.2220 hc        1 W43      0.080500
     38 H4C1        3.2000   -0.0190   -0.3940 hc        1 W43      0.085000
     39 H4C2        2.8560   -0.1190   -1.9380 hc        1 W43      0.085000
     40 H5C1        0.7630   -1.1220   -1.4520 hc        1 W43      0.080500
     41 H5C2        1.1180   -1.1030    0.1090 hc        1 W43      0.080500
     42 H6C1        1.1760    1.2870    0.0370 hc        1 W43      0.101000
     43 H6C2        0.6910    1.2150   -1.4950 hc        1 W43      0.101000
     44 H7C1       -1.3210    0.2250   -0.8310 h1        1 W43      0.081500
     45 H7C2       -0.8410    0.1710    0.6870 h1        1 W43      0.081500
     46 H2B        -3.6720    1.7130   -1.0820 ha        1 W43      0.145000
     47 H3B        -5.8090    1.9660   -0.1030 ha        1 W43      0.158000
     48 H5B        -4.0710    2.6410    3.5490 ha        1 W43      0.172000
     49 H4A        -8.1060    3.6680    4.7970 ha        1 W43      0.115000
     50 HM11       -9.9150    4.1340    3.4360 hc        1 W43      0.085000
     51 HM12       -8.8040    5.2830    3.4450 hc        1 W43      0.085000
     52 HM13       -8.9000    4.2950    2.2040 hc        1 W43      0.085000
     53 H5A1       -9.1560    1.7230    3.1590 h1        1 W43      0.103000
     54 H5A2       -8.3060    1.3620    4.4630 h1        1 W43      0.103000
@<TRIPOS>BOND
     1    1    2 1   
     2    1    6 1   
     3    2    3 1   
     4    3    5 1   
     5    4   28 1   
     6    4   29 1   
     7    4   30 1   
     8    5    6 1   
     9    7    8 1   
    10    7   32 1   
    11    7   33 1   
    12    8    9 1   
    13    8   34 1   
    14    8   35 1   
    15    9   10 1   
    16    9   36 1   
    17    9   37 1   
    18   10   11 1   
    19   10   38 1   
    20   10   39 1   
    21   11   12 1   
    22   11   40 1   
    23   11   41 1   
    24   12   13 1   
    25   12   42 1   
    26   12   43 1   
    27   13   14 1   
    28   13   44 1   
    29   13   45 1   
    30   14   15 1   
    31   15   16 1   
    32   15   20 1   
    33   16   17 1   
    34   16   46 1   
    35   17   47 1   
    36   18   19 1   
    37   18   22 1   
    38   19   48 1   
    39   20   21 1   
    40   22   23 1   
    41   22   27 1   
    42   24   25 1   
    43   24   26 1   
    44   24   49 1   
    45   25   50 1   
    46   25   51 1   
    47   25   52 1   
    48   26   27 1   
    49   26   53 1   
    50   26   54 1   
@<TRIPOS>SUBSTRUCTURE
     1 W43         1 TEMP              0 ****  ****    0 ROOT
