@<TRIPOS>MOLECULE
W4N
   38    39     1     0     0
SMALL
bcc


@<TRIPOS>ATOM
      1 CAK         0.1750   -0.4790    0.1760 ca        1 W4N     -0.123000
      2 CAI         1.5650   -0.5200    0.2720 ca        1 W4N     -0.140000
      3 CAH         2.2010   -0.0990    1.4400 ca        1 W4N     -0.146000
      4 CAJ         1.4400    0.3610    2.5140 ca        1 W4N     -0.140000
      5 CAL         0.0500    0.4030    2.4210 ca        1 W4N     -0.123000
      6 CAQ        -0.5950   -0.0150    1.2510 ca        1 W4N     -0.060300
      7 CAM        -2.0780    0.0650    1.1420 c3        1 W4N     -0.043100
      8 CAR        -2.7400   -1.3000    0.9410 c3        1 W4N      0.212300
      9 OAC        -2.4240   -1.7160   -0.3880 oh        1 W4N     -0.620800
     10 CAP        -4.2230   -1.2930    1.1700 c2        1 W4N     -0.206400
     11 CAG        -4.9450   -0.2250    1.5360 c2        1 W4N     -0.081200
     12 CAU        -6.4170   -0.2280    1.8210 c3        1 W4N      0.038000
     13 CAO        -7.1060    0.7990    0.8370 c         1 W4N      0.908600
     14 OAB        -7.2520    1.9650    1.3000 o         1 W4N     -0.813800
     15 OAA        -7.4600    0.4030   -0.3000 o         1 W4N     -0.813800
     16 OAF        -6.5950    0.2060    3.1690 oh        1 W4N     -0.634800
     17 CAN        -7.0800   -1.5960    1.6890 c3        1 W4N     -0.097400
     18 CAS        -6.1090   -2.7410    1.9100 c3        1 W4N      0.108100
     19 OAD        -6.7180   -4.0120    1.7150 oh        1 W4N     -0.626800
     20 CAT        -4.9140   -2.6070    0.9490 c3        1 W4N      0.153300
     21 OAE        -3.9900   -3.6800    1.1170 oh        1 W4N     -0.628800
     22 HAK        -0.3370   -0.8240   -0.7380 ha        1 W4N      0.144500
     23 HAI         2.1600   -0.8870   -0.5760 ha        1 W4N      0.119000
     24 HAH         3.2960   -0.1310    1.5140 ha        1 W4N      0.116000
     25 HAJ         1.9370    0.6920    3.4370 ha        1 W4N      0.119000
     26 HAL        -0.5440    0.7660    3.2730 ha        1 W4N      0.144500
     27 HAM1       -2.3500    0.7280    0.2770 hc        1 W4N      0.066700
     28 HAM2       -2.4950    0.5220    2.0780 hc        1 W4N      0.066700
     29 HAR        -2.2870   -2.0450    1.6610 h1        1 W4N      0.045700
     30 HAC        -2.8780   -2.5560   -0.5290 ho        1 W4N      0.413000
     31 HAG        -4.4930    0.7730    1.6600 ha        1 W4N      0.132000
     32 HAT        -5.2870   -2.6520   -0.1170 h1        1 W4N      0.047700
     33 HAF        -6.8480    1.1430    3.1320 ho        1 W4N      0.429000
     34 HAN1       -7.9140   -1.6720    2.4340 hc        1 W4N      0.068200
     35 HAN2       -7.5210   -1.6710    0.6570 hc        1 W4N      0.068200
     36 HAS        -5.7440   -2.7690    2.9740 h1        1 W4N      0.084700
     37 HAD        -7.2450   -3.9550    0.9090 ho        1 W4N      0.399000
     38 HAE        -4.5070   -4.4460    1.3990 ho        1 W4N      0.413000
@<TRIPOS>BOND
     1    1    2 ar  
     2    1    6 ar  
     3    1   22 1   
     4    2    3 ar  
     5    2   23 1   
     6    3    4 ar  
     7    3   24 1   
     8    4    5 ar  
     9    4   25 1   
    10    5    6 ar  
    11    5   26 1   
    12    6    7 1   
    13    7    8 1   
    14    7   27 1   
    15    7   28 1   
    16    8    9 1   
    17    8   10 1   
    18    8   29 1   
    19    9   30 1   
    20   10   11 2   
    21   10   20 1   
    22   11   12 1   
    23   11   31 1   
    24   12   13 1   
    25   12   16 1   
    26   12   17 1   
    27   13   14 1   
    28   13   15 1   
    29   16   33 1   
    30   17   18 1   
    31   17   34 1   
    32   17   35 1   
    33   18   19 1   
    34   18   20 1   
    35   18   36 1   
    36   19   37 1   
    37   20   21 1   
    38   20   32 1   
    39   21   38 1   
@<TRIPOS>SUBSTRUCTURE
     1 W4N         1 TEMP              0 ****  ****    0 ROOT
