@<TRIPOS>MOLECULE
W4N
   38    39     1     0     0
SMALL
bcc


@<TRIPOS>ATOM
      1 CAK         0.1750   -0.4960    0.1720 ca        1 W4N     -0.123000
      2 CAI         1.5650   -0.5380    0.2680 ca        1 W4N     -0.140000
      3 CAH         2.2010   -0.1060    1.4320 ca        1 W4N     -0.146000
      4 CAJ         1.4420    0.3650    2.5020 ca        1 W4N     -0.140000
      5 CAL         0.0510    0.4080    2.4090 ca        1 W4N     -0.123000
      6 CAQ        -0.5950   -0.0210    1.2430 ca        1 W4N     -0.060300
      7 CAM        -2.0780    0.0590    1.1330 c3        1 W4N     -0.043100
      8 CAR        -2.7400   -1.3060    0.9440 c3        1 W4N      0.212300
      9 OAC        -2.4260   -1.7350   -0.3810 oh        1 W4N     -0.620800
     10 CAP        -4.2240   -1.2960    1.1750 c2        1 W4N     -0.206400
     11 CAG        -4.9440   -0.2250    1.5320 c2        1 W4N     -0.081200
     12 CAU        -6.4160   -0.2240    1.8180 c3        1 W4N      0.038000
     13 CAO        -7.1040    0.7960    0.8260 c         1 W4N      0.908600
     14 OAB        -7.2500    1.9650    1.2790 o         1 W4N     -0.813800
     15 OAA        -7.4590    0.3900   -0.3070 o         1 W4N     -0.813800
     16 OAF        -6.5930    0.2220    3.1630 oh        1 W4N     -0.634800
     17 CAN        -7.0810   -1.5930    1.6990 c3        1 W4N     -0.097400
     18 CAS        -6.1100   -2.7360    1.9290 c3        1 W4N      0.109100
     19 OAD        -6.7200   -4.0090    1.7440 oh        1 W4N     -0.626800
     20 CAT        -4.9150   -2.6110    0.9650 c3        1 W4N      0.153300
     21 OAE        -3.9930   -3.6840    1.1420 oh        1 W4N     -0.628800
     22 HAK        -0.3370   -0.8490   -0.7380 ha        1 W4N      0.144500
     23 HAI         2.1600   -0.9140   -0.5760 ha        1 W4N      0.119000
     24 HAH         3.2970   -0.1390    1.5060 ha        1 W4N      0.116000
     25 HAJ         1.9390    0.7040    3.4220 ha        1 W4N      0.119000
     26 HAL        -0.5420    0.7800    3.2570 ha        1 W4N      0.144500
     27 HAM1       -2.3490    0.7150    0.2630 hc        1 W4N      0.066700
     28 HAM2       -2.4940    0.5250    2.0660 hc        1 W4N      0.066700
     29 HAR        -2.2870   -2.0460    1.6710 h1        1 W4N      0.045700
     30 HAC        -2.8810   -2.5750   -0.5140 ho        1 W4N      0.413000
     31 HAG        -4.4920    0.7740    1.6480 ha        1 W4N      0.132000
     32 HAT        -5.2900   -2.6660   -0.1000 h1        1 W4N      0.047700
     33 HAF        -6.8450    1.1590    3.1180 ho        1 W4N      0.429000
     34 HAN1       -7.5220   -1.6760    0.6680 hc        1 W4N      0.068200
     35 HAN2       -7.9140   -1.6620    2.4450 hc        1 W4N      0.068200
     36 HAS        -5.7450   -2.7560    2.9930 h1        1 W4N      0.084700
     37 HAD        -7.2480   -3.9580    0.9380 ho        1 W4N      0.399000
     38 HAE        -4.5100   -4.4470    1.4310 ho        1 W4N      0.413000
@<TRIPOS>BOND
     1    1    2 ar  
     2    1    6 ar  
     3    1   22 1   
     4    2    3 ar  
     5    2   23 1   
     6    3    4 ar  
     7    3   24 1   
     8    4    5 ar  
     9    4   25 1   
    10    5    6 ar  
    11    5   26 1   
    12    6    7 1   
    13    7    8 1   
    14    7   27 1   
    15    7   28 1   
    16    8    9 1   
    17    8   10 1   
    18    8   29 1   
    19    9   30 1   
    20   10   11 2   
    21   10   20 1   
    22   11   12 1   
    23   11   31 1   
    24   12   13 1   
    25   12   16 1   
    26   12   17 1   
    27   13   14 1   
    28   13   15 1   
    29   16   33 1   
    30   17   18 1   
    31   17   34 1   
    32   17   35 1   
    33   18   19 1   
    34   18   20 1   
    35   18   36 1   
    36   19   37 1   
    37   20   21 1   
    38   20   32 1   
    39   21   38 1   
@<TRIPOS>SUBSTRUCTURE
     1 W4N         1 TEMP              0 ****  ****    0 ROOT
