@<TRIPOS>MOLECULE
W54
   45    47     1     0     0
SMALL
bcc


@<TRIPOS>ATOM
      1 C31         0.8790   -0.5090   10.0070 c3        1 W54     -0.132400
      2 C3          0.2880   -0.1280    8.7130 cc        1 W54      0.319600
      3 C4          1.0300    0.4940    7.6130 cc        1 W54     -0.363600
      4 C5          0.0900    0.6680    6.6180 cd        1 W54      0.264000
      5 O1         -1.1470    0.1740    7.1070 os        1 W54     -0.122100
      6 N2         -0.9970   -0.2850    8.3330 nd        1 W54     -0.361300
      7 C1C         0.0920    1.2280    5.2610 c3        1 W54     -0.118700
      8 C2C         0.0680    0.1390    4.2030 c3        1 W54     -0.077400
      9 C3C         0.0300    0.7420    2.8150 c3        1 W54     -0.078400
     10 C4C         0.0320   -0.3410    1.7580 c3        1 W54     -0.085400
     11 C5C        -0.0200    0.2790    0.3740 c3        1 W54      0.131400
     12 O1B         0.0200   -0.8280   -0.5490 os        1 W54     -0.329900
     13 C1B        -0.0330   -0.4350   -1.8750 ca        1 W54      0.128100
     14 C2B         1.1570   -0.2260   -2.5990 ca        1 W54     -0.005600
     15 CL1         2.6730   -0.3000   -1.8400 cl        1 W54     -0.062900
     16 C3B         1.1070    0.0430   -3.9690 ca        1 W54     -0.075500
     17 C4B        -0.1290    0.1160   -4.6220 ca        1 W54     -0.115900
     18 C5B        -1.3180   -0.0820   -3.9110 ca        1 W54     -0.075500
     19 C6B        -1.2700   -0.3520   -2.5410 ca        1 W54     -0.005600
     20 CL2        -2.7320   -0.5810   -1.7090 cl        1 W54     -0.062900
     21 C2A        -0.1770    0.3990   -6.0560 ce        1 W54      0.627200
     22 N3A        -1.2090    0.5200   -6.8500 n2        1 W54     -0.618900
     23 C4A        -0.7220    0.8030   -8.1940 c3        1 W54      0.069800
     24 C5A         0.8240    0.8350   -8.0780 c3        1 W54      0.090400
     25 O1A         1.0810    0.5690   -6.6780 os        1 W54     -0.456400
     26 H311        1.3220    0.3950   10.4950 hc        1 W54      0.057700
     27 H312        0.1220   -0.9540   10.6990 hc        1 W54      0.057700
     28 H313        1.6930   -1.2580    9.8390 hc        1 W54      0.057700
     29 H4          2.0830    0.7480    7.6170 ha        1 W54      0.173000
     30 H1C1       -0.8070    1.8920    5.1340 hc        1 W54      0.067200
     31 H1C2        1.0100    1.8640    5.1350 hc        1 W54      0.067200
     32 H2C1        0.9760   -0.5110    4.3090 hc        1 W54      0.055700
     33 H2C2       -0.8310   -0.5130    4.3610 hc        1 W54      0.055700
     34 H3C1       -0.8880    1.3770    2.7050 hc        1 W54      0.042700
     35 H3C2        0.9180    1.4130    2.6700 hc        1 W54      0.042700
     36 H4C1        0.9540   -0.9720    1.8490 hc        1 W54      0.061700
     37 H4C2       -0.8500   -1.0200    1.8960 hc        1 W54      0.061700
     38 H5C1       -0.9680    0.8550    0.2180 h1        1 W54      0.042200
     39 H5C2        0.8640    0.9440    0.1890 h1        1 W54      0.042200
     40 H3B         2.0380    0.1990   -4.5400 ha        1 W54      0.175000
     41 H5B        -2.2910   -0.0260   -4.4280 ha        1 W54      0.175000
     42 H4A1       -1.0680    0.0010   -8.8960 h1        1 W54      0.076200
     43 H4A2       -1.1320    1.7870   -8.5440 h1        1 W54      0.076200
     44 H5A1        1.3260    0.0290   -8.6640 h1        1 W54      0.066200
     45 H5A2        1.2620    1.8350   -8.3080 h1        1 W54      0.066200
@<TRIPOS>BOND
     1    1    2 1   
     2    1   26 1   
     3    1   27 1   
     4    1   28 1   
     5    2    3 1   
     6    2    6 2   
     7    3    4 2   
     8    3   29 1   
     9    4    5 1   
    10    4    7 1   
    11    5    6 1   
    12    7    8 1   
    13    7   30 1   
    14    7   31 1   
    15    8    9 1   
    16    8   32 1   
    17    8   33 1   
    18    9   10 1   
    19    9   34 1   
    20    9   35 1   
    21   10   11 1   
    22   10   36 1   
    23   10   37 1   
    24   11   12 1   
    25   11   38 1   
    26   11   39 1   
    27   12   13 1   
    28   13   14 ar  
    29   13   19 ar  
    30   14   15 1   
    31   14   16 ar  
    32   16   17 ar  
    33   16   40 1   
    34   17   18 ar  
    35   17   21 1   
    36   18   19 ar  
    37   18   41 1   
    38   19   20 1   
    39   21   22 2   
    40   21   25 1   
    41   22   23 1   
    42   23   24 1   
    43   23   42 1   
    44   23   43 1   
    45   24   25 1   
    46   24   44 1   
    47   24   45 1   
@<TRIPOS>SUBSTRUCTURE
     1 W54         1 TEMP              0 ****  ****    0 ROOT
