@<TRIPOS>MOLECULE
W54
   45    47     1     0     0
SMALL
bcc


@<TRIPOS>ATOM
      1 C31        -0.1500   -0.2160   -0.3940 c3        1 W54     -0.132400
      2 C3          1.3130   -0.2340   -0.2270 cc        1 W54      0.319600
      3 C4          2.0060   -0.0050    1.0440 cc        1 W54     -0.363600
      4 C5          3.3450   -0.1160    0.7320 cd        1 W54      0.264000
      5 O1          3.4390   -0.3960   -0.6560 os        1 W54     -0.122100
      6 N2          2.2350   -0.4600   -1.1870 nd        1 W54     -0.361300
      7 C1C         4.6070   -0.0020    1.4730 c3        1 W54     -0.118700
      8 C2C         5.2210   -1.3630    1.7520 c3        1 W54     -0.077400
      9 C3C         6.5390   -1.2160    2.4820 c3        1 W54     -0.078400
     10 C4C         7.1400   -2.5710    2.7830 c3        1 W54     -0.085400
     11 C5C         8.4660   -2.4070    3.5020 c3        1 W54      0.131400
     12 O1B         8.9320   -3.7460    3.7690 os        1 W54     -0.329900
     13 C1B        10.1530   -3.7790    4.4180 ca        1 W54      0.128100
     14 C2B        10.2070   -3.8420    5.8250 ca        1 W54     -0.005600
     15 CL1         8.7970   -3.7290    6.7640 cl        1 W54     -0.062900
     16 C3B        11.4310   -4.0060    6.4750 ca        1 W54     -0.075500
     17 C4B        12.6120   -4.0990    5.7290 ca        1 W54     -0.115900
     18 C5B        12.5730   -4.0280    4.3320 ca        1 W54     -0.075500
     19 C6B        11.3480   -3.8640    3.6780 ca        1 W54     -0.005600
     20 CL2        11.3390   -3.7780    1.9830 cl        1 W54     -0.062900
     21 C2A        13.8920   -4.2690    6.4130 ce        1 W54      0.627200
     22 N3A        15.0990   -4.3650    5.9170 n2        1 W54     -0.618900
     23 C4A        16.0370   -4.5260    7.0210 c3        1 W54      0.069800
     24 C5A        15.1710   -4.5110    8.3080 c3        1 W54      0.090400
     25 O1A        13.8160   -4.3410    7.8230 os        1 W54     -0.456400
     26 H311       -0.5490    0.7810   -0.0810 hc        1 W54      0.057700
     27 H312       -0.4530   -0.4040   -1.4540 hc        1 W54      0.057700
     28 H313       -0.6090   -1.0040    0.2540 hc        1 W54      0.057700
     29 H4          1.5360    0.2040    1.9980 ha        1 W54      0.173000
     30 H1C1        4.4090    0.5330    2.4410 hc        1 W54      0.067200
     31 H1C2        5.3310    0.6190    0.8770 hc        1 W54      0.067200
     32 H2C1        4.5130   -1.9780    2.3680 hc        1 W54      0.055700
     33 H2C2        5.3790   -1.9050    0.7820 hc        1 W54      0.055700
     34 H3C1        6.3800   -0.6520    3.4390 hc        1 W54      0.042700
     35 H3C2        7.2520   -0.6170    1.8560 hc        1 W54      0.042700
     36 H4C1        7.3000   -3.1460    1.8330 hc        1 W54      0.061700
     37 H4C2        6.4430   -3.1740    3.4220 hc        1 W54      0.061700
     38 H5C1        9.2170   -1.8760    2.8610 h1        1 W54      0.042200
     39 H5C2        8.3410   -1.8610    4.4730 h1        1 W54      0.042200
     40 H3B        11.4740   -4.0650    7.5770 ha        1 W54      0.175000
     41 H5B        13.5040   -4.1030    3.7440 ha        1 W54      0.175000
     42 H4A1       16.7780   -3.6860    7.0110 h1        1 W54      0.076200
     43 H4A2       16.5900   -5.4950    6.9070 h1        1 W54      0.076200
     44 H5A1       15.2000   -5.4740    8.8700 h1        1 W54      0.066200
     45 H5A2       15.3900   -3.6450    8.9760 h1        1 W54      0.066200
@<TRIPOS>BOND
     1    1    2 1   
     2    1   26 1   
     3    1   27 1   
     4    1   28 1   
     5    2    3 1   
     6    2    6 2   
     7    3    4 2   
     8    3   29 1   
     9    4    5 1   
    10    4    7 1   
    11    5    6 1   
    12    7    8 1   
    13    7   30 1   
    14    7   31 1   
    15    8    9 1   
    16    8   32 1   
    17    8   33 1   
    18    9   10 1   
    19    9   34 1   
    20    9   35 1   
    21   10   11 1   
    22   10   36 1   
    23   10   37 1   
    24   11   12 1   
    25   11   38 1   
    26   11   39 1   
    27   12   13 1   
    28   13   14 ar  
    29   13   19 ar  
    30   14   15 1   
    31   14   16 ar  
    32   16   17 ar  
    33   16   40 1   
    34   17   18 ar  
    35   17   21 1   
    36   18   19 ar  
    37   18   41 1   
    38   19   20 1   
    39   21   22 2   
    40   21   25 1   
    41   22   23 1   
    42   23   24 1   
    43   23   42 1   
    44   23   43 1   
    45   24   25 1   
    46   24   44 1   
    47   24   45 1   
@<TRIPOS>SUBSTRUCTURE
     1 W54         1 TEMP              0 ****  ****    0 ROOT
