@<TRIPOS>MOLECULE
W54
   45    47     1     0     0
SMALL
bcc


@<TRIPOS>ATOM
      1 C31         0.0390   -0.7400   -0.4680 c3        1 W54     -0.132400
      2 C3          1.3270   -0.1230   -0.1060 cc        1 W54      0.321600
      3 C4          2.4270   -0.8280    0.5590 cc        1 W54     -0.365600
      4 C5          3.4140    0.1260    0.6980 cd        1 W54      0.267000
      5 O1          2.9210    1.3350    0.1420 os        1 W54     -0.125100
      6 N2          1.7000    1.1570   -0.3190 nd        1 W54     -0.362300
      7 C1C         4.7710    0.1760    1.2530 c3        1 W54     -0.120700
      8 C2C         5.1960   -1.1600    1.8290 c3        1 W54     -0.077400
      9 C3C         6.5980   -1.0780    2.3940 c3        1 W54     -0.078400
     10 C4C         7.0250   -2.4110    2.9690 c3        1 W54     -0.085400
     11 C5C         8.4310   -2.3130    3.5320 c3        1 W54      0.131400
     12 O1B         8.7340   -3.6240    4.0490 os        1 W54     -0.330900
     13 C1B         9.9970   -3.7120    4.6070 ca        1 W54      0.127100
     14 C2B        10.1790   -3.4940    5.9860 ca        1 W54     -0.005100
     15 Cl1         8.8980   -2.9740    6.9710 cl        1 W54     -0.063400
     16 C3B        11.4280   -3.7080    6.5730 ca        1 W54     -0.075500
     17 C4B        12.5060   -4.1330    5.7870 ca        1 W54     -0.114900
     18 C5B        12.3390   -4.3450    4.4130 ca        1 W54     -0.075500
     19 C6B        11.0900   -4.1310    3.8240 ca        1 W54     -0.005100
     20 Cl2        10.9250   -4.3940    2.1550 cl        1 W54     -0.063400
     21 C2A        13.8120   -4.3550    6.4040 ce        1 W54      0.627200
     22 N3A        14.9390   -4.7370    5.8610 n2        1 W54     -0.618900
     23 C4A        15.9510   -4.8100    6.9080 c3        1 W54      0.069800
     24 C5A        15.2260   -4.3960    8.2150 c3        1 W54      0.090400
     25 O1A        13.8670   -4.1220    7.7970 os        1 W54     -0.456400
     26 H311       -0.4630   -1.1240    0.4550 hc        1 W54      0.057367
     27 H312        0.2200   -1.6000   -1.1600 hc        1 W54      0.057367
     28 H313       -0.6460   -0.0140   -0.9710 hc        1 W54      0.057367
     29 H4          2.4300   -1.8680    0.8610 ha        1 W54      0.173000
     30 H1C1        5.4860    0.4900    0.4430 hc        1 W54      0.071700
     31 H1C2        4.8110    0.9690    2.0510 hc        1 W54      0.071700
     32 H2C1        4.4800   -1.4690    2.6350 hc        1 W54      0.050700
     33 H2C2        5.1550   -1.9460    1.0290 hc        1 W54      0.050700
     34 H3C1        7.3130   -0.7690    1.5860 hc        1 W54      0.044700
     35 H3C2        6.6380   -0.2910    3.1920 hc        1 W54      0.044700
     36 H4C1        6.3200   -2.7280    3.7820 hc        1 W54      0.060700
     37 H4C2        6.9960   -3.2040    2.1770 hc        1 W54      0.060700
     38 H5C1        9.1740   -2.0510    2.7350 h1        1 W54      0.043200
     39 H5C2        8.4870   -1.5660    4.3660 h1        1 W54      0.043200
     40 H3B        11.5710   -3.5460    7.6550 ha        1 W54      0.175000
     41 H5B        13.1890   -4.6810    3.7950 ha        1 W54      0.175000
     42 H4A1       16.7960   -4.1150    6.6640 h1        1 W54      0.076200
     43 H4A2       16.3520   -5.8550    6.9710 h1        1 W54      0.076200
     44 H5A1       15.1790   -5.2150    8.9710 h1        1 W54      0.066200
     45 H5A2       15.6270   -3.4550    8.6620 h1        1 W54      0.066200
@<TRIPOS>BOND
     1    1    2 1   
     2    1   26 1   
     3    1   27 1   
     4    1   28 1   
     5    2    3 1   
     6    2    6 2   
     7    3    4 2   
     8    3   29 1   
     9    4    5 1   
    10    4    7 1   
    11    5    6 1   
    12    7    8 1   
    13    7   30 1   
    14    7   31 1   
    15    8    9 1   
    16    8   32 1   
    17    8   33 1   
    18    9   10 1   
    19    9   34 1   
    20    9   35 1   
    21   10   11 1   
    22   10   36 1   
    23   10   37 1   
    24   11   12 1   
    25   11   38 1   
    26   11   39 1   
    27   12   13 1   
    28   13   14 ar  
    29   13   19 ar  
    30   14   15 1   
    31   14   16 ar  
    32   16   17 ar  
    33   16   40 1   
    34   17   18 ar  
    35   17   21 1   
    36   18   19 ar  
    37   18   41 1   
    38   19   20 1   
    39   21   22 2   
    40   21   25 1   
    41   22   23 1   
    42   23   24 1   
    43   23   42 1   
    44   23   43 1   
    45   24   25 1   
    46   24   44 1   
    47   24   45 1   
@<TRIPOS>SUBSTRUCTURE
     1 W54         1 TEMP              0 ****  ****    0 ROOT
