@<TRIPOS>MOLECULE
W56
   48    50     1     0     0
SMALL
bcc


@<TRIPOS>ATOM
      1 O1         -0.2100   -1.1010   -7.1380 os        1 W56     -0.122100
      2 N2         -0.6650   -0.9220   -8.3610 nc        1 W56     -0.361300
      3 C3         -0.3280    0.3140   -8.7860 cd        1 W56      0.319600
      4 C31        -0.6400    0.9150  -10.0940 c3        1 W56     -0.132400
      5 C4          0.4180    0.9880   -7.7200 cd        1 W56     -0.363600
      6 C5          0.4710    0.0640   -6.6970 cc        1 W56      0.264000
      7 C1C         1.0520    0.0240   -5.3500 c3        1 W56     -0.117700
      8 C2C        -0.0170    0.0830   -4.2730 c3        1 W56     -0.078400
      9 C3C         0.6050   -0.0070   -2.8960 c3        1 W56     -0.078400
     10 C4C        -0.4570    0.0710   -1.8210 c3        1 W56     -0.086400
     11 C5C         0.1810   -0.0300   -0.4470 c3        1 W56      0.128400
     12 O1B        -0.8990    0.0810    0.4910 os        1 W56     -0.327900
     13 C1B        -0.5530    0.0110    1.8230 ca        1 W56      0.152100
     14 C2B        -1.6380    0.1190    2.7170 ca        1 W56     -0.197500
     15 C3B        -1.4020    0.0620    4.0820 ca        1 W56     -0.049500
     16 C4B        -0.0950   -0.1010    4.5720 ca        1 W56     -0.168900
     17 C5B         0.9760   -0.2070    3.6760 ca        1 W56     -0.049500
     18 C6B         0.7520   -0.1520    2.3020 ca        1 W56     -0.197500
     19 C2A         0.1450   -0.1580    6.0100 ce        1 W56      0.642200
     20 N3A         1.2660   -0.3140    6.6650 n2        1 W56     -0.634900
     21 C4A         0.9690   -0.3210    8.1030 c3        1 W56      0.089500
     22 CM1         1.7090    0.7380    8.8990 c3        1 W56     -0.086100
     23 C5A        -0.5760   -0.1270    8.1920 c3        1 W56      0.089400
     24 O1A        -1.0110   -0.0380    6.8160 os        1 W56     -0.458400
     25 H311       -1.2430    1.8450   -9.9420 hc        1 W56      0.057700
     26 H312        0.3110    1.1870  -10.6160 hc        1 W56      0.057700
     27 H313       -1.2200    0.2170  -10.7480 hc        1 W56      0.057700
     28 H4          0.8240    1.9920   -7.7620 ha        1 W56      0.173000
     29 H1C1        1.7580    0.8910   -5.2370 hc        1 W56      0.066700
     30 H1C2        1.6490   -0.9220   -5.2340 hc        1 W56      0.066700
     31 H2C1       -0.7400   -0.7620   -4.4220 hc        1 W56      0.056200
     32 H2C2       -0.5950    1.0390   -4.3660 hc        1 W56      0.056200
     33 H3C1        1.3440    0.8270   -2.7600 hc        1 W56      0.042700
     34 H3C2        1.1700   -0.9720   -2.8000 hc        1 W56      0.042700
     35 H4C1       -1.2010   -0.7580   -1.9480 hc        1 W56      0.060700
     36 H4C2       -1.0200    1.0380   -1.9000 hc        1 W56      0.060700
     37 H5C1        0.9110    0.8040   -0.2760 h1        1 W56      0.041700
     38 H5C2        0.6960   -1.0170   -0.3100 h1        1 W56      0.041700
     39 H2B        -2.6550    0.2460    2.3200 ha        1 W56      0.147500
     40 H3B        -2.2410    0.1450    4.7920 ha        1 W56      0.157000
     41 H5B         2.0030   -0.3350    4.0530 ha        1 W56      0.157000
     42 H6B         1.6040   -0.2370    1.6140 ha        1 W56      0.147500
     43 H4A         1.2520   -1.3370    8.5020 h1        1 W56      0.073700
     44 HM11        2.8120    0.6010    8.8000 hc        1 W56      0.044367
     45 HM12        1.4460    1.7650    8.5470 hc        1 W56      0.044367
     46 HM13        1.4290    0.6460    9.9760 hc        1 W56      0.044367
     47 H5A1       -1.0990   -1.0010    8.6460 h1        1 W56      0.062700
     48 H5A2       -0.8690    0.8260    8.6940 h1        1 W56      0.062700
@<TRIPOS>BOND
     1    1    2 1   
     2    1    6 1   
     3    2    3 2   
     4    3    4 1   
     5    3    5 1   
     6    4   25 1   
     7    4   26 1   
     8    4   27 1   
     9    5    6 2   
    10    5   28 1   
    11    6    7 1   
    12    7    8 1   
    13    7   29 1   
    14    7   30 1   
    15    8    9 1   
    16    8   31 1   
    17    8   32 1   
    18    9   10 1   
    19    9   33 1   
    20    9   34 1   
    21   10   11 1   
    22   10   35 1   
    23   10   36 1   
    24   11   12 1   
    25   11   37 1   
    26   11   38 1   
    27   12   13 1   
    28   13   14 ar  
    29   13   18 ar  
    30   14   15 ar  
    31   14   39 1   
    32   15   16 ar  
    33   15   40 1   
    34   16   17 ar  
    35   16   19 1   
    36   17   18 ar  
    37   17   41 1   
    38   18   42 1   
    39   19   20 2   
    40   19   24 1   
    41   20   21 1   
    42   21   22 1   
    43   21   23 1   
    44   21   43 1   
    45   22   44 1   
    46   22   45 1   
    47   22   46 1   
    48   23   24 1   
    49   23   47 1   
    50   23   48 1   
@<TRIPOS>SUBSTRUCTURE
     1 W56         1 TEMP              0 ****  ****    0 ROOT
