@<TRIPOS>MOLECULE
W56
   48    50     1     0     0
SMALL
bcc


@<TRIPOS>ATOM
      1 O1          0.0720    0.5880    0.0360 os        1 W56     -0.122100
      2 N2          1.3630    0.7090   -0.1950 nc        1 W56     -0.361300
      3 C3          2.0450    0.4340    0.9370 cd        1 W56      0.319600
      4 C31         3.5070    0.4520    1.1140 c3        1 W56     -0.132400
      5 C4          1.0840    0.1050    1.9940 cd        1 W56     -0.363600
      6 C5         -0.1490    0.2140    1.3870 cc        1 W56      0.264000
      7 C1C        -1.5430    0.0250    1.8060 c3        1 W56     -0.117700
      8 C2C        -2.2820    1.3470    1.9150 c3        1 W56     -0.078400
      9 C3C        -3.7280    1.1220    2.3010 c3        1 W56     -0.078400
     10 C4C        -4.4620    2.4390    2.4310 c3        1 W56     -0.086400
     11 C5C        -5.9120    2.1960    2.8090 c3        1 W56      0.128400
     12 O1B        -6.5040    3.4960    2.9310 os        1 W56     -0.327900
     13 C1B        -7.8390    3.5240    3.2700 ca        1 W56      0.152100
     14 C2B        -8.3910    4.8170    3.3770 ca        1 W56     -0.197500
     15 C3B        -9.7280    4.9600    3.7140 ca        1 W56     -0.049500
     16 C4B       -10.5280    3.8290    3.9470 ca        1 W56     -0.168900
     17 C5B        -9.9720    2.5490    3.8380 ca        1 W56     -0.049500
     18 C6B        -8.6290    2.3910    3.4990 ca        1 W56     -0.197500
     19 C2A       -11.9340    3.9880    4.3020 ce        1 W56      0.642200
     20 N3A       -12.8430    3.0790    4.5460 n2        1 W56     -0.634900
     21 C4A       -14.1120    3.7570    4.8400 c3        1 W56      0.089500
     22 CM1       -14.7070    3.4090    6.1930 c3        1 W56     -0.086100
     23 C5A       -13.7860    5.2790    4.7350 c3        1 W56      0.089400
     24 O1A       -12.3840    5.3260    4.3860 os        1 W56     -0.458400
     25 H311        3.7770    1.1930    1.9070 hc        1 W56      0.057700
     26 H312        4.0400    0.7270    0.1710 hc        1 W56      0.057700
     27 H313        3.8560   -0.5610    1.4390 hc        1 W56      0.057700
     28 H4          1.3280   -0.1610    3.0160 ha        1 W56      0.173000
     29 H1C1       -1.5530   -0.5020    2.7970 hc        1 W56      0.066700
     30 H1C2       -2.0650   -0.6350    1.0590 hc        1 W56      0.066700
     31 H2C1       -2.2290    1.8850    0.9310 hc        1 W56      0.056200
     32 H2C2       -1.7830    1.9980    2.6790 hc        1 W56      0.056200
     33 H3C1       -4.2310    0.4840    1.5260 hc        1 W56      0.042700
     34 H3C2       -3.7770    0.5640    3.2740 hc        1 W56      0.042700
     35 H4C1       -4.4190    3.0040    1.4640 hc        1 W56      0.060700
     36 H4C2       -3.9760    3.0790    3.2120 hc        1 W56      0.060700
     37 H5C1       -5.9910    1.6560    3.7890 h1        1 W56      0.041700
     38 H5C2       -6.4470    1.6140    2.0130 h1        1 W56      0.041700
     39 H2B        -7.7530    5.6940    3.1920 ha        1 W56      0.147500
     40 H3B       -10.1710    5.9660    3.8010 ha        1 W56      0.157000
     41 H5B       -10.5930    1.6570    4.0190 ha        1 W56      0.157000
     42 H6B        -8.2090    1.3790    3.4180 ha        1 W56      0.147500
     43 H4A       -14.8470    3.4650    4.0370 h1        1 W56      0.073700
     44 HM11      -14.0180    3.6960    7.0230 hc        1 W56      0.044367
     45 HM12      -14.9060    2.3120    6.2610 hc        1 W56      0.044367
     46 HM13      -15.6690    3.9590    6.3190 hc        1 W56      0.044367
     47 H5A1      -14.3460    5.7870    3.9160 h1        1 W56      0.062700
     48 H5A2      -13.9040    5.8190    5.7040 h1        1 W56      0.062700
@<TRIPOS>BOND
     1    1    2 1   
     2    1    6 1   
     3    2    3 2   
     4    3    4 1   
     5    3    5 1   
     6    4   25 1   
     7    4   26 1   
     8    4   27 1   
     9    5    6 2   
    10    5   28 1   
    11    6    7 1   
    12    7    8 1   
    13    7   29 1   
    14    7   30 1   
    15    8    9 1   
    16    8   31 1   
    17    8   32 1   
    18    9   10 1   
    19    9   33 1   
    20    9   34 1   
    21   10   11 1   
    22   10   35 1   
    23   10   36 1   
    24   11   12 1   
    25   11   37 1   
    26   11   38 1   
    27   12   13 1   
    28   13   14 ar  
    29   13   18 ar  
    30   14   15 ar  
    31   14   39 1   
    32   15   16 ar  
    33   15   40 1   
    34   16   17 ar  
    35   16   19 1   
    36   17   18 ar  
    37   17   41 1   
    38   18   42 1   
    39   19   20 2   
    40   19   24 1   
    41   20   21 1   
    42   21   22 1   
    43   21   23 1   
    44   21   43 1   
    45   22   44 1   
    46   22   45 1   
    47   22   46 1   
    48   23   24 1   
    49   23   47 1   
    50   23   48 1   
@<TRIPOS>SUBSTRUCTURE
     1 W56         1 TEMP              0 ****  ****    0 ROOT
