@<TRIPOS>MOLECULE
W56
   48    50     1     0     0
SMALL
bcc


@<TRIPOS>ATOM
      1 O1          0.0690    0.5490    0.0400 os        1 W56     -0.122100
      2 N2          1.3580    0.6740   -0.2010 nc        1 W56     -0.361300
      3 C3          2.0480    0.4360    0.9350 cd        1 W56      0.319600
      4 C31         3.5110    0.4710    1.1040 c3        1 W56     -0.132400
      5 C4          1.0960    0.1310    2.0060 cd        1 W56     -0.363600
      6 C5         -0.1410    0.2130    1.4030 cc        1 W56      0.264000
      7 C1C        -1.5320    0.0250    1.8340 c3        1 W56     -0.117700
      8 C2C        -2.2800    1.3440    1.9120 c3        1 W56     -0.078400
      9 C3C        -3.7220    1.1190    2.3140 c3        1 W56     -0.078400
     10 C4C        -4.4640    2.4340    2.4120 c3        1 W56     -0.086400
     11 C5C        -5.9110    2.1910    2.8060 c3        1 W56      0.128400
     12 O1B        -6.5110    3.4900    2.8980 os        1 W56     -0.327900
     13 C1B        -7.8440    3.5180    3.2450 ca        1 W56      0.152100
     14 C2B        -8.4040    4.8090    3.3220 ca        1 W56     -0.197500
     15 C3B        -9.7400    4.9520    3.6640 ca        1 W56     -0.049500
     16 C4B       -10.5300    3.8210    3.9320 ca        1 W56     -0.168900
     17 C5B        -9.9660    2.5430    3.8530 ca        1 W56     -0.049500
     18 C6B        -8.6240    2.3850    3.5100 ca        1 W56     -0.197500
     19 C2A       -11.9350    3.9810    4.2930 ce        1 W56      0.642200
     20 N3A       -12.8360    3.0720    4.5660 n2        1 W56     -0.634900
     21 C4A       -14.1080    3.7490    4.8510 c3        1 W56      0.089500
     22 CM1       -14.6910    3.4310    6.2160 c3        1 W56     -0.086100
     23 C5A       -13.7930    5.2690    4.7060 c3        1 W56      0.089400
     24 O1A       -12.3930    5.3170    4.3460 os        1 W56     -0.458400
     25 H311        3.8690   -0.5270    1.4600 hc        1 W56      0.057700
     26 H312        4.0370    0.7190    0.1490 hc        1 W56      0.057700
     27 H313        3.7800    1.2410    1.8700 hc        1 W56      0.057700
     28 H4          1.3460   -0.1040    3.0340 ha        1 W56      0.173000
     29 H1C1       -2.0540   -0.6580    1.1090 hc        1 W56      0.066700
     30 H1C2       -1.5330   -0.4750    2.8400 hc        1 W56      0.066700
     31 H2C1       -2.2370    1.8550    0.9140 hc        1 W56      0.056200
     32 H2C2       -1.7810    2.0190    2.6560 hc        1 W56      0.056200
     33 H3C1       -3.7610    0.5880    3.3010 hc        1 W56      0.042700
     34 H3C2       -4.2240    0.4570    1.5600 hc        1 W56      0.042700
     35 H4C1       -3.9780    3.0990    3.1730 hc        1 W56      0.060700
     36 H4C2       -4.4310    2.9730    1.4300 hc        1 W56      0.060700
     37 H5C1       -6.4460    1.5840    2.0290 h1        1 W56      0.041700
     38 H5C2       -5.9790    1.6760    3.8010 h1        1 W56      0.041700
     39 H2B        -7.7740    5.6850    3.1090 ha        1 W56      0.147500
     40 H3B       -10.1900    5.9560    3.7280 ha        1 W56      0.157000
     41 H5B       -10.5790    1.6510    4.0610 ha        1 W56      0.157000
     42 H6B        -8.1980    1.3750    3.4520 ha        1 W56      0.147500
     43 H4A       -14.8450    3.4310    4.0600 h1        1 W56      0.073700
     44 HM11      -14.8830    2.3350    6.3130 hc        1 W56      0.044367
     45 HM12      -13.9990    3.7430    7.0340 hc        1 W56      0.044367
     46 HM13      -15.6570    3.9780    6.3350 hc        1 W56      0.044367
     47 H5A1      -13.9080    5.8330    5.6620 h1        1 W56      0.062700
     48 H5A2      -14.3620    5.7530    3.8780 h1        1 W56      0.062700
@<TRIPOS>BOND
     1    1    2 1   
     2    1    6 1   
     3    2    3 2   
     4    3    4 1   
     5    3    5 1   
     6    4   25 1   
     7    4   26 1   
     8    4   27 1   
     9    5    6 2   
    10    5   28 1   
    11    6    7 1   
    12    7    8 1   
    13    7   29 1   
    14    7   30 1   
    15    8    9 1   
    16    8   31 1   
    17    8   32 1   
    18    9   10 1   
    19    9   33 1   
    20    9   34 1   
    21   10   11 1   
    22   10   35 1   
    23   10   36 1   
    24   11   12 1   
    25   11   37 1   
    26   11   38 1   
    27   12   13 1   
    28   13   14 ar  
    29   13   18 ar  
    30   14   15 ar  
    31   14   39 1   
    32   15   16 ar  
    33   15   40 1   
    34   16   17 ar  
    35   16   19 1   
    36   17   18 ar  
    37   17   41 1   
    38   18   42 1   
    39   19   20 2   
    40   19   24 1   
    41   20   21 1   
    42   21   22 1   
    43   21   23 1   
    44   21   43 1   
    45   22   44 1   
    46   22   45 1   
    47   22   46 1   
    48   23   24 1   
    49   23   47 1   
    50   23   48 1   
@<TRIPOS>SUBSTRUCTURE
     1 W56         1 TEMP              0 ****  ****    0 ROOT
