@<TRIPOS>MOLECULE
W59
   57    59     1     0     0
SMALL
bcc


@<TRIPOS>ATOM
      1 O1          0.2880    0.9570   -0.0450 os        1 W59     -0.122100
      2 N2          1.5910    1.0500   -0.2100 nc        1 W59     -0.362300
      3 C3          2.2140    0.5520    0.8790 cd        1 W59      0.319600
      4 C31         3.6670    0.4660    1.1040 c3        1 W59     -0.132400
      5 C4          1.1980    0.0980    1.8330 cd        1 W59     -0.364600
      6 C5         -0.0040    0.3710    1.2130 cc        1 W59      0.265000
      7 C1C        -1.4210    0.1840    1.5490 c3        1 W59     -0.117700
      8 C2C        -2.1080    1.5040    1.8500 c3        1 W59     -0.078400
      9 C3C        -3.5750    1.2900    2.1500 c3        1 W59     -0.079400
     10 C4C        -4.2640    2.6010    2.4620 c3        1 W59     -0.078400
     11 C5C        -5.7340    2.3900    2.7560 c3        1 W59     -0.078400
     12 C6C        -6.4160    3.7030    3.0750 c3        1 W59     -0.086400
     13 C7C        -7.8890    3.4720    3.3640 c3        1 W59      0.128400
     14 O1B        -8.4330    4.7650    3.6620 os        1 W59     -0.327900
     15 C1B        -9.7780    4.8020    3.9580 ca        1 W59      0.153100
     16 C2B       -10.2810    6.0870    4.2440 ca        1 W59     -0.198000
     17 C3B       -11.6240    6.2380    4.5560 ca        1 W59     -0.049500
     18 C4B       -12.4760    5.1210    4.5880 ca        1 W59     -0.168900
     19 C5B       -11.9680    3.8490    4.3030 ca        1 W59     -0.049500
     20 C6B       -10.6200    3.6830    3.9870 ca        1 W59     -0.198000
     21 C2A       -13.8880    5.2890    4.9190 ce        1 W59      0.641200
     22 N3A       -14.8410    4.3950    4.9950 n2        1 W59     -0.633900
     23 C4A       -16.0920    5.0770    5.3460 c3        1 W59      0.088500
     24 CM1       -16.7590    4.5650    6.6190 c3        1 W59     -0.066400
     25 CM2       -17.2700    3.1580    6.4630 c3        1 W59     -0.090100
     26 C5A       -15.7020    6.5810    5.4820 c3        1 W59      0.088400
     27 O1A       -14.2880    6.6180    5.1880 os        1 W59     -0.458400
     28 H311        4.2500    0.8800    0.2440 hc        1 W59      0.057367
     29 H312        3.9580   -0.6050    1.2500 hc        1 W59      0.057367
     30 H313        3.9370    1.0380    2.0260 hc        1 W59      0.057367
     31 H4          1.3880   -0.3500    2.8010 ha        1 W59      0.173000
     32 H1C1       -1.9400   -0.3190    0.6870 hc        1 W59      0.066700
     33 H1C2       -1.4930   -0.4960    2.4390 hc        1 W59      0.066700
     34 H2C1       -1.9940    2.1910    0.9690 hc        1 W59      0.053700
     35 H2C2       -1.6100    1.9980    2.7250 hc        1 W59      0.053700
     36 H3C1       -3.6850    0.5900    3.0200 hc        1 W59      0.041200
     37 H3C2       -4.0730    0.8040    1.2690 hc        1 W59      0.041200
     38 H4C1       -3.7690    3.0850    3.3460 hc        1 W59      0.045200
     39 H4C2       -4.1500    3.3020    1.5940 hc        1 W59      0.045200
     40 H5C1       -5.8470    1.6850    3.6220 hc        1 W59      0.041700
     41 H5C2       -6.2290    1.9110    1.8710 hc        1 W59      0.041700
     42 H6C1       -6.3120    4.4130    2.2140 hc        1 W59      0.059200
     43 H6C2       -5.9330    4.1860    3.9640 hc        1 W59      0.059200
     44 H7C1       -8.4140    3.0410    2.4710 h1        1 W59      0.041200
     45 H7C2       -8.0270    2.7950    4.2470 h1        1 W59      0.041200
     46 H2B        -9.6030    6.9520    4.2160 ha        1 W59      0.147500
     47 H3B       -12.0300    7.2370    4.7820 ha        1 W59      0.156000
     48 H5B       -12.6300    2.9680    4.3250 ha        1 W59      0.156000
     49 H6B       -10.2380    2.6780    3.7660 ha        1 W59      0.147500
     50 H4A       -16.8070    4.9390    4.4860 h1        1 W59      0.074700
     51 HM11      -17.6120    5.2550    6.8560 hc        1 W59      0.043700
     52 HM12      -16.0380    4.6150    7.4770 hc        1 W59      0.043700
     53 HM21      -17.9910    3.0910    5.6120 hc        1 W59      0.038367
     54 HM22      -17.7930    2.8350    7.3960 hc        1 W59      0.038367
     55 HM23      -16.4300    2.4490    6.2650 hc        1 W59      0.038367
     56 H5A1      -16.2120    7.2300    4.7320 h1        1 W59      0.062700
     57 H5A2      -15.8350    6.9760    6.5170 h1        1 W59      0.062700
@<TRIPOS>BOND
     1    1    2 1   
     2    1    6 1   
     3    2    3 2   
     4    3    4 1   
     5    3    5 1   
     6    4   28 1   
     7    4   29 1   
     8    4   30 1   
     9    5    6 2   
    10    5   31 1   
    11    6    7 1   
    12    7    8 1   
    13    7   32 1   
    14    7   33 1   
    15    8    9 1   
    16    8   34 1   
    17    8   35 1   
    18    9   10 1   
    19    9   36 1   
    20    9   37 1   
    21   10   11 1   
    22   10   38 1   
    23   10   39 1   
    24   11   12 1   
    25   11   40 1   
    26   11   41 1   
    27   12   13 1   
    28   12   42 1   
    29   12   43 1   
    30   13   14 1   
    31   13   44 1   
    32   13   45 1   
    33   14   15 1   
    34   15   16 ar  
    35   15   20 ar  
    36   16   17 ar  
    37   16   46 1   
    38   17   18 ar  
    39   17   47 1   
    40   18   19 ar  
    41   18   21 1   
    42   19   20 ar  
    43   19   48 1   
    44   20   49 1   
    45   21   22 2   
    46   21   27 1   
    47   22   23 1   
    48   23   24 1   
    49   23   26 1   
    50   23   50 1   
    51   24   25 1   
    52   24   51 1   
    53   24   52 1   
    54   25   53 1   
    55   25   54 1   
    56   25   55 1   
    57   26   27 1   
    58   26   56 1   
    59   26   57 1   
@<TRIPOS>SUBSTRUCTURE
     1 W59         1 TEMP              0 ****  ****    0 ROOT
