@<TRIPOS>MOLECULE
W59
   57    59     1     0     0
SMALL
bcc


@<TRIPOS>ATOM
      1 O1          0.2840    0.9590   -0.0490 os        1 W59     -0.122100
      2 N2          1.5870    1.0560   -0.2170 nc        1 W59     -0.362300
      3 C3          2.2140    0.5690    0.8750 cd        1 W59      0.319600
      4 C31         3.6690    0.4900    1.0970 c3        1 W59     -0.132400
      5 C4          1.2020    0.1180    1.8340 cd        1 W59     -0.364600
      6 C5         -0.0020    0.3820    1.2160 cc        1 W59      0.265000
      7 C1C        -1.4170    0.1930    1.5560 c3        1 W59     -0.117700
      8 C2C        -2.1080    1.5130    1.8480 c3        1 W59     -0.078400
      9 C3C        -3.5750    1.2950    2.1540 c3        1 W59     -0.079400
     10 C4C        -4.2670    2.6060    2.4580 c3        1 W59     -0.078400
     11 C5C        -5.7360    2.3920    2.7580 c3        1 W59     -0.078400
     12 C6C        -6.4220    3.7040    3.0680 c3        1 W59     -0.086400
     13 C7C        -7.8930    3.4690    3.3630 c3        1 W59      0.128400
     14 O1B        -8.4420    4.7620    3.6530 os        1 W59     -0.327900
     15 C1B        -9.7850    4.7960    3.9530 ca        1 W59      0.153100
     16 C2B       -10.2930    6.0820    4.2300 ca        1 W59     -0.198000
     17 C3B       -11.6360    6.2300    4.5450 ca        1 W59     -0.049500
     18 C4B       -12.4840    5.1100    4.5880 ca        1 W59     -0.168900
     19 C5B       -11.9700    3.8370    4.3110 ca        1 W59     -0.049500
     20 C6B       -10.6230    3.6750    3.9930 ca        1 W59     -0.198000
     21 C2A       -13.8950    5.2740    4.9210 ce        1 W59      0.641200
     22 N3A       -14.8430    4.3780    5.0080 n2        1 W59     -0.633900
     23 C4A       -16.0970    5.0570    5.3570 c3        1 W59      0.088500
     24 CM1       -16.7570    4.5530    6.6360 c3        1 W59     -0.066400
     25 CM2       -17.2640    3.1420    6.4930 c3        1 W59     -0.090100
     26 C5A       -15.7130    6.5640    5.4800 c3        1 W59      0.088400
     27 O1A       -14.2990    6.6040    5.1810 os        1 W59     -0.458400
     28 H311        4.2480    0.8940    0.2300 hc        1 W59      0.057367
     29 H312        3.9390    1.0760    2.0110 hc        1 W59      0.057367
     30 H313        3.9640   -0.5770    1.2570 hc        1 W59      0.057367
     31 H4          1.3960   -0.3210    2.8060 ha        1 W59      0.173000
     32 H1C1       -1.4850   -0.4810    2.4520 hc        1 W59      0.066700
     33 H1C2       -1.9360   -0.3190    0.6990 hc        1 W59      0.066700
     34 H2C1       -1.6110    2.0150    2.7190 hc        1 W59      0.053700
     35 H2C2       -1.9990    2.1920    0.9620 hc        1 W59      0.053700
     36 H3C1       -4.0730    0.8000    1.2780 hc        1 W59      0.041200
     37 H3C2       -3.6790    0.6010    3.0290 hc        1 W59      0.041200
     38 H4C1       -4.1590    3.3010    1.5840 hc        1 W59      0.045200
     39 H4C2       -3.7720    3.0990    3.3360 hc        1 W59      0.045200
     40 H5C1       -5.8440    1.6930    3.6290 hc        1 W59      0.041700
     41 H5C2       -6.2320    1.9040    1.8770 hc        1 W59      0.041700
     42 H6C1       -6.3240    4.4080    2.2010 hc        1 W59      0.059200
     43 H6C2       -5.9390    4.1960    3.9520 hc        1 W59      0.059200
     44 H7C1       -8.4190    3.0290    2.4760 h1        1 W59      0.041200
     45 H7C2       -8.0260    2.7990    4.2520 h1        1 W59      0.041200
     46 H2B        -9.6190    6.9490    4.1920 ha        1 W59      0.147500
     47 H3B       -12.0450    7.2300    4.7630 ha        1 W59      0.156000
     48 H5B       -12.6290    2.9550    4.3430 ha        1 W59      0.156000
     49 H6B       -10.2380    2.6690    3.7790 ha        1 W59      0.147500
     50 H4A       -16.8140    4.9090    4.5000 h1        1 W59      0.074700
     51 HM11      -16.0350    4.6140    7.4920 hc        1 W59      0.043700
     52 HM12      -17.6130    5.2410    6.8700 hc        1 W59      0.043700
     53 HM21      -17.7820    2.8250    7.4300 hc        1 W59      0.038367
     54 HM22      -17.9870    3.0660    5.6460 hc        1 W59      0.038367
     55 HM23      -16.4210    2.4360    6.2980 hc        1 W59      0.038367
     56 H5A1      -16.2270    7.2050    4.7260 h1        1 W59      0.062700
     57 H5A2      -15.8440    6.9670    6.5120 h1        1 W59      0.062700
@<TRIPOS>BOND
     1    1    2 1   
     2    1    6 1   
     3    2    3 2   
     4    3    4 1   
     5    3    5 1   
     6    4   28 1   
     7    4   29 1   
     8    4   30 1   
     9    5    6 2   
    10    5   31 1   
    11    6    7 1   
    12    7    8 1   
    13    7   32 1   
    14    7   33 1   
    15    8    9 1   
    16    8   34 1   
    17    8   35 1   
    18    9   10 1   
    19    9   36 1   
    20    9   37 1   
    21   10   11 1   
    22   10   38 1   
    23   10   39 1   
    24   11   12 1   
    25   11   40 1   
    26   11   41 1   
    27   12   13 1   
    28   12   42 1   
    29   12   43 1   
    30   13   14 1   
    31   13   44 1   
    32   13   45 1   
    33   14   15 1   
    34   15   16 ar  
    35   15   20 ar  
    36   16   17 ar  
    37   16   46 1   
    38   17   18 ar  
    39   17   47 1   
    40   18   19 ar  
    41   18   21 1   
    42   19   20 ar  
    43   19   48 1   
    44   20   49 1   
    45   21   22 2   
    46   21   27 1   
    47   22   23 1   
    48   23   24 1   
    49   23   26 1   
    50   23   50 1   
    51   24   25 1   
    52   24   51 1   
    53   24   52 1   
    54   25   53 1   
    55   25   54 1   
    56   25   55 1   
    57   26   27 1   
    58   26   56 1   
    59   26   57 1   
@<TRIPOS>SUBSTRUCTURE
     1 W59         1 TEMP              0 ****  ****    0 ROOT
