@<TRIPOS>MOLECULE
W59
   57    59     1     0     0
SMALL
bcc


@<TRIPOS>ATOM
      1 O1         -0.4520    1.0750    8.8520 os        1 W59     -0.122100
      2 N2         -0.9080    0.8360   10.0640 nc        1 W59     -0.362300
      3 C3         -0.4040   -0.3350   10.5070 cd        1 W59      0.319600
      4 C31        -0.6590   -0.9710   11.8110 c3        1 W59     -0.132400
      5 C4          0.4620   -0.8960    9.4650 cd        1 W59     -0.364600
      6 C5          0.4040    0.0230    8.4380 cc        1 W59      0.265000
      7 C1C         1.0090    0.1420    7.1050 c3        1 W59     -0.117700
      8 C2C        -0.0110   -0.0700    6.0010 c3        1 W59     -0.078400
      9 C3C         0.6270    0.1020    4.6400 c3        1 W59     -0.079400
     10 C4C        -0.3830   -0.1200    3.5340 c3        1 W59     -0.078400
     11 C5C         0.2520    0.0570    2.1710 c3        1 W59     -0.078400
     12 C6C        -0.7590   -0.1730    1.0690 c3        1 W59     -0.086400
     13 C7C        -0.1050    0.0110   -0.2890 c3        1 W59      0.128400
     14 O1B        -1.1380   -0.2380   -1.2530 os        1 W59     -0.327900
     15 C1B        -0.7700   -0.1260   -2.5760 ca        1 W59      0.153100
     16 C2B        -1.8080   -0.3750   -3.4970 ca        1 W59     -0.198000
     17 C3B        -1.5460   -0.2890   -4.8560 ca        1 W59     -0.049500
     18 C4B        -0.2600    0.0430   -5.3130 ca        1 W59     -0.168900
     19 C5B         0.7640    0.2900   -4.3910 ca        1 W59     -0.049500
     20 C6B         0.5150    0.2070   -3.0220 ca        1 W59     -0.198000
     21 C2A         0.0070    0.1310   -6.7450 ce        1 W59      0.641200
     22 N3A         1.1160    0.4290   -7.3720 n2        1 W59     -0.633900
     23 C4A         0.8570    0.3990   -8.8170 c3        1 W59      0.088500
     24 CM1         1.7450   -0.5630   -9.6010 c3        1 W59     -0.066400
     25 CM2         3.1850   -0.1240   -9.6100 c3        1 W59     -0.090100
     26 C5A        -0.6470    0.0040   -8.9440 c3        1 W59      0.088400
     27 O1A        -1.1020   -0.1380   -7.5800 os        1 W59     -0.458400
     28 H311       -1.1120   -1.9820   11.6500 hc        1 W59      0.057367
     29 H312        0.3080   -1.0970   12.3600 hc        1 W59      0.057367
     30 H313       -1.3530   -0.3650   12.4440 hc        1 W59      0.057367
     31 H4          1.0100   -1.8290    9.5250 ha        1 W59      0.173000
     32 H1C1        1.8330   -0.6160    7.0150 hc        1 W59      0.066700
     33 H1C2        1.4680    1.1640    7.0000 hc        1 W59      0.066700
     34 H2C1       -0.8500    0.6660    6.1260 hc        1 W59      0.053700
     35 H2C2       -0.4530   -1.0970    6.0870 hc        1 W59      0.053700
     36 H3C1        1.4760   -0.6240    4.5270 hc        1 W59      0.041200
     37 H3C2        1.0600    1.1330    4.5530 hc        1 W59      0.041200
     38 H4C1       -1.2330    0.6030    3.6500 hc        1 W59      0.045200
     39 H4C2       -0.8120   -1.1530    3.6180 hc        1 W59      0.045200
     40 H5C1        1.1050   -0.6630    2.0570 hc        1 W59      0.041700
     41 H5C2        0.6770    1.0920    2.0850 hc        1 W59      0.041700
     42 H6C1       -1.6150    0.5450    1.1710 hc        1 W59      0.059200
     43 H6C2       -1.1840   -1.2080    1.1410 hc        1 W59      0.059200
     44 H7C1        0.7310   -0.7200   -0.4390 h1        1 W59      0.041200
     45 H7C2        0.2790    1.0570   -0.4150 h1        1 W59      0.041200
     46 H2B        -2.8090   -0.6340   -3.1260 ha        1 W59      0.147500
     47 H3B        -2.3490   -0.4820   -5.5870 ha        1 W59      0.156000
     48 H5B         1.7760    0.5510   -4.7420 ha        1 W59      0.156000
     49 H6B         1.3300    0.4030   -2.3130 ha        1 W59      0.147500
     50 H4A         1.0190    1.4410   -9.2130 h1        1 W59      0.074700
     51 HM11        1.3540   -0.6040  -10.6530 hc        1 W59      0.043700
     52 HM12        1.6640   -1.5970   -9.1730 hc        1 W59      0.043700
     53 HM21        3.7950   -0.8230  -10.2310 hc        1 W59      0.038367
     54 HM22        3.2820    0.9040  -10.0360 hc        1 W59      0.038367
     55 HM23        3.6030   -0.1140   -8.5740 hc        1 W59      0.038367
     56 H5A1       -1.2650    0.8040   -9.4160 h1        1 W59      0.062700
     57 H5A2       -0.8010   -0.9790   -9.4490 h1        1 W59      0.062700
@<TRIPOS>BOND
     1    1    2 1   
     2    1    6 1   
     3    2    3 2   
     4    3    4 1   
     5    3    5 1   
     6    4   28 1   
     7    4   29 1   
     8    4   30 1   
     9    5    6 2   
    10    5   31 1   
    11    6    7 1   
    12    7    8 1   
    13    7   32 1   
    14    7   33 1   
    15    8    9 1   
    16    8   34 1   
    17    8   35 1   
    18    9   10 1   
    19    9   36 1   
    20    9   37 1   
    21   10   11 1   
    22   10   38 1   
    23   10   39 1   
    24   11   12 1   
    25   11   40 1   
    26   11   41 1   
    27   12   13 1   
    28   12   42 1   
    29   12   43 1   
    30   13   14 1   
    31   13   44 1   
    32   13   45 1   
    33   14   15 1   
    34   15   16 ar  
    35   15   20 ar  
    36   16   17 ar  
    37   16   46 1   
    38   17   18 ar  
    39   17   47 1   
    40   18   19 ar  
    41   18   21 1   
    42   19   20 ar  
    43   19   48 1   
    44   20   49 1   
    45   21   22 2   
    46   21   27 1   
    47   22   23 1   
    48   23   24 1   
    49   23   26 1   
    50   23   50 1   
    51   24   25 1   
    52   24   51 1   
    53   24   52 1   
    54   25   53 1   
    55   25   54 1   
    56   25   55 1   
    57   26   27 1   
    58   26   56 1   
    59   26   57 1   
@<TRIPOS>SUBSTRUCTURE
     1 W59         1 TEMP              0 ****  ****    0 ROOT
