@<TRIPOS>MOLECULE
W59
   57    53     1     0     0
SMALL
bcc


@<TRIPOS>ATOM
      1 O1          7.4670   -1.8590   -3.3200 os        1 W59     -0.065000
      2 N2          8.5570   -2.0710   -4.1560 n2        1 W59     -0.027000
      3 C3          8.8110   -3.3970   -4.1840 c1        1 W59     -0.103000
      4 C31         9.9360   -4.0710   -4.9400 c2        1 W59     -0.156000
      5 C4          7.8890   -4.0240   -3.3730 c1        1 W59     -0.234000
      6 C5          7.0640   -3.0610   -2.8450 c1        1 W59     -0.024000
      7 C1C         5.8900   -3.3040   -1.9190 c2        1 W59     -0.102000
      8 C2C         5.4340   -1.9890   -1.3260 c3        1 W59     -0.157000
      9 C3C         4.0710   -2.1670   -0.6910 c3        1 W59     -0.158000
     10 C4C         3.5800   -0.8340   -0.1680 c3        1 W59     -0.157000
     11 C5C         2.1620   -0.9830    0.3420 c3        1 W59     -0.157000
     12 C6C         1.6250    0.3750    0.7450 c3        1 W59     -0.165000
     13 C7C         0.1640    0.2460    1.1300 c3        1 W59     -0.022000
     14 O1B        -0.3150    1.4940    1.5820 os        1 W59     -0.211000
     15 C1B        -1.7190    1.5770    1.6460 c2        1 W59      0.108000
     16 C2B        -2.4550    1.7770    0.4890 c2        1 W59     -0.221000
     17 C3B        -3.8360    1.8820    0.5560 c1        1 W59     -0.048000
     18 C4B        -4.4810    1.7880    1.7800 c1        1 W59     -0.085000
     19 C5B        -3.7450    1.5870    2.9370 c1        1 W59     -0.051000
     20 C6B        -2.3640    1.4820    2.8700 c1        1 W59     -0.174000
     21 C2A        -5.9920    1.8310    1.8440 c2        1 W59      0.136000
     22 N3A        -6.6550    3.0310    2.2450 n1        1 W59     -0.218000
     23 C4A        -7.9170    2.9130    2.3270 c2        1 W59     -0.076000
     24 CM1        -8.5790    3.5870    1.1390 c3        1 W59     -0.145000
     25 CM2        -9.5750    4.6140    1.6320 c3        1 W59     -0.208000
     26 C5A        -8.0520    1.2870    2.3520 c3        1 W59     -0.061000
     27 O1A        -6.6400    0.7860    2.1000 os        1 W59     -0.255000
     28 H311       10.5410   -4.5090   -4.3050 ha        1 W59      0.097000
     29 H312        9.5630   -4.7420   -5.5510 ha        1 W59      0.097000
     30 H313       10.4330   -3.4010   -5.4550 ha        1 W59      0.097000
     31 H4          7.8330   -4.9840   -3.2040 DU        1 W59      0.173000
     32 H1C1        5.1550   -3.7070   -2.4240 ha        1 W59      0.106000
     33 H1C2        6.1610   -3.9100   -1.2000 ha        1 W59      0.106000
     34 H2C1        6.0740   -1.6980   -0.6460 hc        1 W59      0.093000
     35 H2C2        5.3790   -1.3140   -2.0320 hc        1 W59      0.093000
     36 H3C1        3.4420   -2.5060   -1.3590 hc        1 W59      0.080500
     37 H3C2        4.1360   -2.8040    0.0480 hc        1 W59      0.080500
     38 H4C1        4.1600   -0.5380    0.5630 hc        1 W59      0.084500
     39 H4C2        3.6000   -0.1730   -0.8880 hc        1 W59      0.084500
     40 H5C1        1.6000   -1.3600   -0.3650 hc        1 W59      0.080500
     41 H5C2        2.1550   -1.5800    1.1170 hc        1 W59      0.080500
     42 H6C1        2.1340    0.7140    1.5070 hc        1 W59      0.098500
     43 H6C2        1.7100    0.9950   -0.0070 hc        1 W59      0.098500
     44 H7C1       -0.3550   -0.0400    0.3510 h1        1 W59      0.080500
     45 H7C2        0.0720   -0.4180    1.8450 h1        1 W59      0.080500
     46 H2B        -2.0020    1.8430   -0.3720 ha        1 W59      0.141000
     47 H3B        -4.3550    2.0230   -0.2590 ha        1 W59      0.154000
     48 H5B        -4.1980    1.5210    3.7990 ha        1 W59      0.159000
     49 H6B        -1.8450    1.3410    3.6850 ha        1 W59      0.154000
     50 H4A        -8.3830    3.3310    3.0800 ha        1 W59      0.114000
     51 HM11       -9.0430    2.9160    0.6000 hc        1 W59      0.083000
     52 HM12       -7.8980    4.0290    0.5940 hc        1 W59      0.083000
     53 HM21      -10.1560    4.8870    0.8920 hc        1 W59      0.077667
     54 HM22      -10.1190    4.2240    2.3480 hc        1 W59      0.077667
     55 HM23       -9.0940    5.3960    1.9760 hc        1 W59      0.077667
     56 H5A1       -8.3710    0.9840    3.2250 h1        1 W59      0.102000
     57 H5A2       -8.6530    0.9830    1.6430 h1        1 W59      0.102000
@<TRIPOS>BOND
     1    1    2 1   
     2    1    6 1   
     3    2    3 1   
     4    3    5 1   
     5    4   28 1   
     6    4   29 1   
     7    4   30 1   
     8    5    6 1   
     9    7    8 1   
    10    7   32 1   
    11    7   33 1   
    12    8    9 1   
    13    8   34 1   
    14    8   35 1   
    15    9   10 1   
    16    9   36 1   
    17    9   37 1   
    18   10   11 1   
    19   10   38 1   
    20   10   39 1   
    21   11   12 1   
    22   11   40 1   
    23   11   41 1   
    24   12   13 1   
    25   12   42 1   
    26   12   43 1   
    27   13   14 1   
    28   13   44 1   
    29   13   45 1   
    30   14   15 1   
    31   15   16 1   
    32   15   20 1   
    33   16   17 1   
    34   16   46 1   
    35   17   47 1   
    36   18   19 1   
    37   18   21 1   
    38   19   48 1   
    39   20   49 1   
    40   21   22 1   
    41   21   27 1   
    42   23   24 1   
    43   23   26 1   
    44   23   50 1   
    45   24   25 1   
    46   24   51 1   
    47   24   52 1   
    48   25   53 1   
    49   25   54 1   
    50   25   55 1   
    51   26   27 1   
    52   26   56 1   
    53   26   57 1   
@<TRIPOS>SUBSTRUCTURE
     1 W59         1 TEMP              0 ****  ****    0 ROOT
