@<TRIPOS>MOLECULE
W61
   58    62     1     0     0
SMALL
bcc


@<TRIPOS>ATOM
      1 C1          0.2810   -0.0940   -0.0900 ca        1 W61      0.182600
      2 C2          1.6210   -0.4090    0.1160 ca        1 W61     -0.281300
      3 C3          2.1650   -0.2970    1.4250 ca        1 W61      0.370600
      4 N4          1.4920    0.1100    2.4910 nb        1 W61     -0.625000
      5 C5          0.1570    0.4130    2.3200 ca        1 W61      0.400600
      6 C6         -0.5050    0.3050    1.0560 ca        1 W61     -0.130300
      7 C7         -1.9000    0.5620    0.9920 ca        1 W61     -0.107000
      8 C8         -2.5970    0.9560    2.1080 ca        1 W61     -0.125000
      9 C9         -1.9370    1.1080    3.3490 ca        1 W61     -0.119000
     10 C10        -0.5970    0.8410    3.4630 ca        1 W61     -0.161300
     11 C11         3.6560   -0.6560    1.6300 c3        1 W61      0.594600
     12 N20        -0.3430   -0.2120   -1.3570 nh        1 W61     -0.642000
     13 C21        -0.7030    1.0510   -1.9910 c3        1 W61      0.179300
     14 C22        -1.5880    0.8290   -3.2340 c3        1 W61      0.165300
     15 N23        -1.0010   -0.1080   -4.1840 n3        1 W61     -0.715600
     16 C24        -0.5970   -1.3550   -3.5450 c3        1 W61      0.165300
     17 C26        -1.8720   -0.3320   -5.3330 c3        1 W61      0.157500
     18 C27        -1.2900   -1.3310   -6.3850 c3        1 W61      0.143800
     19 N28        -1.8020   -0.9560   -7.6960 n3        1 W61     -0.771200
     20 C29        -2.1410    0.4710   -7.6450 c3        1 W61      0.102500
     21 C30        -2.1390    0.9420   -6.1700 c3        1 W61     -0.101400
     22 C32         0.2840   -1.1290   -2.2980 c3        1 W61      0.179300
     23 C33        -1.1080    1.3080   -8.4250 c         1 W61      0.668100
     24 N46        -1.5880    2.3880   -9.1760 n         1 W61     -0.475800
     25 C47        -2.8600    3.0000   -8.9120 c3        1 W61      0.175100
     26 S48        -2.7340    4.7770   -9.1980 ss        1 W61     -0.327200
     27 C49        -1.0560    4.7160   -9.7800 c3        1 W61     -0.017300
     28 C50        -0.6540    3.2470   -9.8840 c3        1 W61      0.078000
     29 F52         4.4240    0.3870    2.0770 f         1 W61     -0.229300
     30 F53         3.8680   -1.6670    2.5310 f         1 W61     -0.229300
     31 F54         4.2900   -1.0810    0.4890 f         1 W61     -0.229300
     32 O57         0.1030    1.0420   -8.4350 o         1 W61     -0.559100
     33 H2          2.2790   -0.7380   -0.7030 ha        1 W61      0.166000
     34 H7         -2.4350    0.4210    0.0390 ha        1 W61      0.148000
     35 H8         -3.6790    1.1500    2.0500 ha        1 W61      0.138000
     36 H9         -2.5150    1.4360    4.2260 ha        1 W61      0.141000
     37 H10        -0.0800    0.9440    4.4310 ha        1 W61      0.157000
     38 H21         0.2180    1.6270   -2.2980 h1        1 W61      0.052450
     39 H21A       -1.2780    1.6800   -1.2570 h1        1 W61      0.052450
     40 H22        -1.7000    1.8230   -3.7520 h1        1 W61      0.042450
     41 H22A       -2.6120    0.4970   -2.8940 h1        1 W61      0.042450
     42 H24        -1.4880   -1.9830   -3.2520 h1        1 W61      0.042450
     43 H24A        0.0170   -1.9420   -4.2840 h1        1 W61      0.042450
     44 H26        -2.8730   -0.7380   -4.9890 h1        1 W61      0.019700
     45 H27        -1.5670   -2.3850   -6.1250 h1        1 W61      0.070700
     46 H27A       -0.1690   -1.2440   -6.4330 h1        1 W61      0.070700
     47 HN28       -2.6220   -1.4860   -7.9260 hn        1 W61      0.356800
     48 H29        -3.1630    0.6240   -8.0990 h1        1 W61      0.059700
     49 H30        -1.3440    1.7120   -6.0090 hc        1 W61      0.064700
     50 H30A       -3.1250    1.3900   -5.9000 hc        1 W61      0.064700
     51 H32         0.4270   -2.1210   -1.7860 h1        1 W61      0.052450
     52 H32A        1.2930   -0.7540   -2.6380 h1        1 W61      0.052450
     53 H47        -3.1970    2.8400   -7.8540 h2        1 W61      0.067200
     54 H47A       -3.6390    2.5900   -9.6080 h2        1 W61      0.067200
     55 H49        -0.9910    5.2130  -10.7760 h1        1 W61      0.080700
     56 H49A       -0.3970    5.2650   -9.0680 h1        1 W61      0.080700
     57 H50        -0.6520    2.9320  -10.9670 h1        1 W61      0.076200
     58 H50A        0.3870    3.0940   -9.4780 h1        1 W61      0.076200
@<TRIPOS>BOND
     1    1    2 ar  
     2    1    6 ar  
     3    1   12 1   
     4    2    3 ar  
     5    2   33 1   
     6    3    4 ar  
     7    3   11 1   
     8    4    5 ar  
     9    5    6 ar  
    10    5   10 ar  
    11    6    7 ar  
    12    7    8 ar  
    13    7   34 1   
    14    8    9 ar  
    15    8   35 1   
    16    9   10 ar  
    17    9   36 1   
    18   10   37 1   
    19   11   29 1   
    20   11   30 1   
    21   11   31 1   
    22   12   13 1   
    23   12   22 1   
    24   13   14 1   
    25   13   38 1   
    26   13   39 1   
    27   14   15 1   
    28   14   40 1   
    29   14   41 1   
    30   15   16 1   
    31   15   17 1   
    32   16   22 1   
    33   16   42 1   
    34   16   43 1   
    35   17   18 1   
    36   17   21 1   
    37   17   44 1   
    38   18   19 1   
    39   18   45 1   
    40   18   46 1   
    41   19   20 1   
    42   19   47 1   
    43   20   21 1   
    44   20   23 1   
    45   20   48 1   
    46   21   49 1   
    47   21   50 1   
    48   22   51 1   
    49   22   52 1   
    50   23   24 1   
    51   23   32 2   
    52   24   25 1   
    53   24   28 1   
    54   25   26 1   
    55   25   53 1   
    56   25   54 1   
    57   26   27 1   
    58   27   28 1   
    59   27   55 1   
    60   27   56 1   
    61   28   57 1   
    62   28   58 1   
@<TRIPOS>SUBSTRUCTURE
     1 W61         1 TEMP              0 ****  ****    0 ROOT
