@<TRIPOS>MOLECULE
W61
   58    62     1     0     0
SMALL
bcc


@<TRIPOS>ATOM
      1 C1          0.2860   -0.0920   -0.0890 ca        1 W61      0.182600
      2 C2          1.6240   -0.4130    0.1160 ca        1 W61     -0.281300
      3 C3          2.1700   -0.3010    1.4250 ca        1 W61      0.370600
      4 N4          1.5000    0.1110    2.4900 nb        1 W61     -0.625000
      5 C5          0.1660    0.4220    2.3200 ca        1 W61      0.400600
      6 C6         -0.4970    0.3140    1.0570 ca        1 W61     -0.130300
      7 C7         -1.8910    0.5790    0.9930 ca        1 W61     -0.107000
      8 C8         -2.5850    0.9780    2.1100 ca        1 W61     -0.125000
      9 C9         -1.9230    1.1300    3.3490 ca        1 W61     -0.119000
     10 C10        -0.5840    0.8560    3.4620 ca        1 W61     -0.161300
     11 C11         3.6590   -0.6680    1.6300 c3        1 W61      0.594600
     12 N20        -0.3400   -0.2090   -1.3550 nh        1 W61     -0.642000
     13 C21        -0.6950    1.0550   -1.9910 c3        1 W61      0.179300
     14 C22        -1.5830    0.8340   -3.2330 c3        1 W61      0.165300
     15 N23        -1.0010   -0.1080   -4.1810 n3        1 W61     -0.715600
     16 C24        -0.6020   -1.3550   -3.5400 c3        1 W61      0.165300
     17 C26        -1.8750   -0.3310   -5.3290 c3        1 W61      0.157500
     18 C27        -1.2980   -1.3340   -6.3800 c3        1 W61      0.143800
     19 N28        -1.8110   -0.9590   -7.6900 n7        1 W61     -0.771200
     20 C29        -2.1480    0.4680   -7.6410 c3        1 W61      0.102500
     21 C30        -2.1390    0.9420   -6.1670 c3        1 W61     -0.101400
     22 C32         0.2820   -1.1310   -2.2950 c3        1 W61      0.179300
     23 C33        -1.1160    1.3020   -8.4270 c         1 W61      0.668100
     24 N46        -1.5970    2.3790   -9.1800 n         1 W61     -0.475800
     25 C47        -2.8670    2.9940   -8.9150 c3        1 W61      0.175100
     26 S48        -2.7400    4.7690   -9.2070 ss        1 W61     -0.327200
     27 C49        -1.0640    4.7050   -9.7930 c3        1 W61     -0.017300
     28 C50        -0.6630    3.2350   -9.8930 c3        1 W61      0.078000
     29 F52         4.4330    0.3720    2.0740 f         1 W61     -0.229300
     30 F53         3.8660   -1.6780    2.5320 f         1 W61     -0.229300
     31 F54         4.2900   -1.0980    0.4890 f         1 W61     -0.229300
     32 O57         0.0950    1.0340   -8.4380 o         1 W61     -0.559100
     33 H2          2.2790   -0.7470   -0.7020 ha        1 W61      0.166000
     34 H7         -2.4280    0.4380    0.0420 ha        1 W61      0.148000
     35 H8         -3.6660    1.1780    2.0520 ha        1 W61      0.138000
     36 H9         -2.4990    1.4630    4.2270 ha        1 W61      0.141000
     37 H10        -0.0660    0.9580    4.4300 ha        1 W61      0.157000
     38 H21        -1.2660    1.6880   -1.2580 h1        1 W61      0.052450
     39 H21A        0.2290    1.6250   -2.3010 h1        1 W61      0.052450
     40 H22        -1.6900    1.8270   -3.7530 h1        1 W61      0.042450
     41 H22A       -2.6080    0.5070   -2.8910 h1        1 W61      0.042450
     42 H24         0.0090   -1.9460   -4.2790 h1        1 W61      0.042450
     43 H24A       -1.4950   -1.9800   -3.2450 h1        1 W61      0.042450
     44 H26        -2.8770   -0.7340   -4.9820 h1        1 W61      0.019700
     45 H27        -1.5770   -2.3870   -6.1170 h1        1 W61      0.070700
     46 H27A       -0.1770   -1.2500   -6.4300 h1        1 W61      0.070700
     47 HN28       -2.6320   -1.4890   -7.9180 hn        1 W61      0.356800
     48 H29        -3.1710    0.6220   -8.0920 h1        1 W61      0.059700
     49 H30        -1.3410    1.7100   -6.0100 hc        1 W61      0.064700
     50 H30A       -3.1230    1.3950   -5.8960 hc        1 W61      0.064700
     51 H32         0.4210   -2.1220   -1.7810 h1        1 W61      0.052450
     52 H32A        1.2920   -0.7610   -2.6370 h1        1 W61      0.052450
     53 H47        -3.2010    2.8380   -7.8550 h2        1 W61      0.067200
     54 H47A       -3.6480    2.5830   -9.6070 h2        1 W61      0.067200
     55 H49        -1.0000    5.1990  -10.7900 h1        1 W61      0.080700
     56 H49A       -0.4020    5.2550   -9.0840 h1        1 W61      0.080700
     57 H50         0.3790    3.0830   -9.4890 h1        1 W61      0.076200
     58 H50A       -0.6640    2.9160  -10.9750 h1        1 W61      0.076200
@<TRIPOS>BOND
     1    1    2 ar  
     2    1    6 ar  
     3    1   12 1   
     4    2    3 ar  
     5    2   33 1   
     6    3    4 ar  
     7    3   11 1   
     8    4    5 ar  
     9    5    6 ar  
    10    5   10 ar  
    11    6    7 ar  
    12    7    8 ar  
    13    7   34 1   
    14    8    9 ar  
    15    8   35 1   
    16    9   10 ar  
    17    9   36 1   
    18   10   37 1   
    19   11   29 1   
    20   11   30 1   
    21   11   31 1   
    22   12   13 1   
    23   12   22 1   
    24   13   14 1   
    25   13   38 1   
    26   13   39 1   
    27   14   15 1   
    28   14   40 1   
    29   14   41 1   
    30   15   16 1   
    31   15   17 1   
    32   16   22 1   
    33   16   42 1   
    34   16   43 1   
    35   17   18 1   
    36   17   21 1   
    37   17   44 1   
    38   18   19 1   
    39   18   45 1   
    40   18   46 1   
    41   19   20 1   
    42   19   47 1   
    43   20   21 1   
    44   20   23 1   
    45   20   48 1   
    46   21   49 1   
    47   21   50 1   
    48   22   51 1   
    49   22   52 1   
    50   23   24 1   
    51   23   32 2   
    52   24   25 1   
    53   24   28 1   
    54   25   26 1   
    55   25   53 1   
    56   25   54 1   
    57   26   27 1   
    58   27   28 1   
    59   27   55 1   
    60   27   56 1   
    61   28   57 1   
    62   28   58 1   
@<TRIPOS>SUBSTRUCTURE
     1 W61         1 TEMP              0 ****  ****    0 ROOT
