@<TRIPOS>MOLECULE
W61
   58    62     1     0     0
SMALL
bcc


@<TRIPOS>ATOM
      1 C1          3.1500    0.4390   -0.0620 ca        1 W61      0.149600
      2 C2          3.4450   -0.9130   -0.1780 ca        1 W61     -0.254300
      3 C3          4.7660   -1.3010   -0.5430 ca        1 W61      0.355600
      4 N4          5.7580   -0.4570   -0.7840 nb        1 W61     -0.611000
      5 C5          5.4900    0.8910   -0.6730 ca        1 W61      0.390600
      6 C6          4.1990    1.3930   -0.3140 ca        1 W61     -0.112300
      7 C7          4.0060    2.7970   -0.2220 ca        1 W61     -0.099000
      8 C8          5.0410    3.6640   -0.4730 ca        1 W61     -0.124000
      9 C9          6.3200    3.1740   -0.8270 ca        1 W61     -0.119000
     10 C10         6.5490    1.8250   -0.9270 ca        1 W61     -0.162300
     11 C11         5.0770   -2.8110   -0.6710 c3        1 W61      0.595600
     12 N20         1.8480    0.9220    0.2970 nh        1 W61     -0.630000
     13 C21         0.8240    0.5540   -0.6770 c3        1 W61      0.168800
     14 C22        -0.5730    1.0710   -0.2820 c3        1 W61      0.164800
     15 N23        -0.9510    0.6920    1.0740 n3        1 W61     -0.719600
     16 C24         0.0720    1.0750    2.0400 c3        1 W61      0.164800
     17 C26        -2.2680    1.2100    1.4400 c3        1 W61      0.171500
     18 C27        -2.7590    0.7270    2.8410 c3        1 W61      0.148800
     19 N28        -4.2060    0.5520    2.7890 n3        1 W61     -0.791200
     20 C29        -4.6400    0.6120    1.3910 c3        1 W61      0.103500
     21 C30        -3.4020    0.7780    0.4850 c3        1 W61     -0.096400
     22 C32         1.4730    0.5590    1.6610 c3        1 W61      0.168800
     23 C33        -5.4370   -0.6240    0.9420 c         1 W61      0.653100
     24 N46        -6.3410   -0.4920   -0.0970 n         1 W61     -0.479800
     25 C47        -6.5410    0.7230   -0.8340 c3        1 W61      0.179100
     26 S48        -7.4070    0.3340   -2.3620 ss        1 W61     -0.307200
     27 C49        -7.5960   -1.3970   -2.0020 c3        1 W61     -0.015300
     28 C50        -7.0710   -1.6460   -0.5920 c3        1 W61      0.093000
     29 F52         5.4940   -3.1900   -1.9200 f         1 W61     -0.228300
     30 F53         6.0550   -3.2520    0.1820 f         1 W61     -0.228300
     31 F54         4.0030   -3.6240   -0.4080 f         1 W61     -0.228300
     32 O57        -5.2960   -1.7290    1.5030 o         1 W61     -0.601100
     33 H2          2.6870   -1.6910    0.0030 ha        1 W61      0.167000
     34 H7          3.0140    3.1870    0.0530 ha        1 W61      0.157000
     35 H8          4.8880    4.7520   -0.4000 ha        1 W61      0.139000
     36 H9          7.1320    3.8910   -1.0230 ha        1 W61      0.141000
     37 H10         7.5430    1.4390   -1.2040 ha        1 W61      0.157000
     38 H21         1.1030    1.0250   -1.6610 h1        1 W61      0.048450
     39 H21A        0.7700   -0.5630   -0.8250 h1        1 W61      0.048450
     40 H22        -0.6000    2.1900   -0.4260 h1        1 W61      0.043200
     41 H22A       -1.3130    0.6110   -0.9950 h1        1 W61      0.043200
     42 H24         0.1220    2.1960    2.1730 h1        1 W61      0.043200
     43 H24A       -0.1960    0.6210    3.0350 h1        1 W61      0.043200
     44 H26        -2.2480    2.3430    1.4600 h1        1 W61      0.031700
     45 H27        -2.2340   -0.2180    3.1500 h1        1 W61      0.054200
     46 H27A       -2.5400    1.5180    3.6080 h1        1 W61      0.054200
     47 HN28       -4.4730   -0.3210    3.2110 hn        1 W61      0.384800
     48 H29        -5.3020    1.5240    1.3140 h1        1 W61      0.079700
     49 H30        -3.5770    1.5590   -0.2930 hc        1 W61      0.063200
     50 H30A       -3.1640   -0.1880   -0.0270 hc        1 W61      0.063200
     51 H32         1.5050   -0.5580    1.8180 h1        1 W61      0.048450
     52 H32A        2.2180    1.0330    2.3590 h1        1 W61      0.048450
     53 H47        -7.1650    1.4490   -0.2460 h2        1 W61      0.068700
     54 H47A       -5.5640    1.2130   -1.0890 h2        1 W61      0.068700
     55 H49        -8.6740   -1.6740   -2.0770 h1        1 W61      0.082200
     56 H49A       -7.0260   -1.9940   -2.7530 h1        1 W61      0.082200
     57 H50        -6.3910   -2.5450   -0.5710 h1        1 W61      0.071700
     58 H50A       -7.9310   -1.8530    0.1080 h1        1 W61      0.071700
@<TRIPOS>BOND
     1    1    2 ar  
     2    1    6 ar  
     3    1   12 1   
     4    2    3 ar  
     5    2   33 1   
     6    3    4 ar  
     7    3   11 1   
     8    4    5 ar  
     9    5    6 ar  
    10    5   10 ar  
    11    6    7 ar  
    12    7    8 ar  
    13    7   34 1   
    14    8    9 ar  
    15    8   35 1   
    16    9   10 ar  
    17    9   36 1   
    18   10   37 1   
    19   11   29 1   
    20   11   30 1   
    21   11   31 1   
    22   12   13 1   
    23   12   22 1   
    24   13   14 1   
    25   13   38 1   
    26   13   39 1   
    27   14   15 1   
    28   14   40 1   
    29   14   41 1   
    30   15   16 1   
    31   15   17 1   
    32   16   22 1   
    33   16   42 1   
    34   16   43 1   
    35   17   18 1   
    36   17   21 1   
    37   17   44 1   
    38   18   19 1   
    39   18   45 1   
    40   18   46 1   
    41   19   20 1   
    42   19   47 1   
    43   20   21 1   
    44   20   23 1   
    45   20   48 1   
    46   21   49 1   
    47   21   50 1   
    48   22   51 1   
    49   22   52 1   
    50   23   24 1   
    51   23   32 2   
    52   24   25 1   
    53   24   28 1   
    54   25   26 1   
    55   25   53 1   
    56   25   54 1   
    57   26   27 1   
    58   27   28 1   
    59   27   55 1   
    60   27   56 1   
    61   28   57 1   
    62   28   58 1   
@<TRIPOS>SUBSTRUCTURE
     1 W61         1 TEMP              0 ****  ****    0 ROOT
