@<TRIPOS>MOLECULE
W61
   58    62     1     0     0
SMALL
bcc


@<TRIPOS>ATOM
      1 C1          0.2800   -0.0910   -0.0900 ca        1 W61      0.182600
      2 C2          1.6180   -0.4130    0.1170 ca        1 W61     -0.281300
      3 C3          2.1630   -0.3010    1.4260 ca        1 W61      0.370600
      4 N4          1.4920    0.1120    2.4910 nb        1 W61     -0.625000
      5 C5          0.1590    0.4230    2.3190 ca        1 W61      0.400600
      6 C6         -0.5040    0.3160    1.0550 ca        1 W61     -0.130300
      7 C7         -1.8970    0.5820    0.9900 ca        1 W61     -0.107000
      8 C8         -2.5920    0.9820    2.1060 ca        1 W61     -0.125000
      9 C9         -1.9310    1.1330    3.3460 ca        1 W61     -0.119000
     10 C10        -0.5930    0.8580    3.4610 ca        1 W61     -0.161300
     11 C11         3.6510   -0.6690    1.6320 c3        1 W61      0.594600
     12 N20        -0.3450   -0.2080   -1.3570 nh        1 W61     -0.642000
     13 C21        -0.6980    1.0560   -1.9930 c3        1 W61      0.179300
     14 C22        -1.5840    0.8360   -3.2360 c3        1 W61      0.165300
     15 N23        -1.0030   -0.1070   -4.1830 n3        1 W61     -0.715600
     16 C24        -0.6060   -1.3540   -3.5420 c3        1 W61      0.165300
     17 C26        -1.8750   -0.3280   -5.3320 c3        1 W61      0.157500
     18 C27        -1.3000   -1.3330   -6.3820 c3        1 W61      0.143800
     19 N28        -1.8100   -0.9580   -7.6930 n3        1 W61     -0.771200
     20 C29        -2.1430    0.4700   -7.6460 c3        1 W61      0.102500
     21 C30        -2.1360    0.9450   -6.1710 c3        1 W61     -0.101400
     22 C32         0.2770   -1.1300   -2.2950 c3        1 W61      0.179300
     23 C33        -1.1070    1.3010   -8.4290 c         1 W61      0.668100
     24 N46        -1.5830    2.3800   -9.1820 n         1 W61     -0.475800
     25 C47        -2.8520    2.9990   -8.9190 c3        1 W61      0.175100
     26 S48        -2.7190    4.7730   -9.2110 ss        1 W61     -0.327200
     27 C49        -1.0420    4.7050   -9.7940 c3        1 W61     -0.017300
     28 C50        -0.6450    3.2330   -9.8940 c3        1 W61      0.078000
     29 F52         4.4250    0.3710    2.0770 f         1 W61     -0.229300
     30 F53         3.8560   -1.6790    2.5350 f         1 W61     -0.229300
     31 F54         4.2830   -1.1000    0.4920 f         1 W61     -0.229300
     32 O57         0.1040    1.0300   -8.4380 o         1 W61     -0.559100
     33 H2          2.2730   -0.7480   -0.7010 ha        1 W61      0.166000
     34 H7         -2.4330    0.4410    0.0380 ha        1 W61      0.148000
     35 H8         -3.6720    1.1830    2.0470 ha        1 W61      0.138000
     36 H9         -2.5070    1.4660    4.2230 ha        1 W61      0.141000
     37 H10        -0.0750    0.9600    4.4280 ha        1 W61      0.157000
     38 H21         0.2270    1.6250   -2.3020 h1        1 W61      0.052450
     39 H21A       -1.2690    1.6900   -1.2600 h1        1 W61      0.052450
     40 H22        -1.6900    1.8290   -3.7560 h1        1 W61      0.042450
     41 H22A       -2.6110    0.5100   -2.8950 h1        1 W61      0.042450
     42 H24         0.0050   -1.9460   -4.2790 h1        1 W61      0.042450
     43 H24A       -1.5000   -1.9770   -3.2470 h1        1 W61      0.042450
     44 H26        -2.8780   -0.7290   -4.9860 h1        1 W61      0.019700
     45 H27        -0.1780   -1.2520   -6.4300 h1        1 W61      0.070700
     46 H27A       -1.5810   -2.3850   -6.1190 h1        1 W61      0.070700
     47 HN28       -2.6320   -1.4860   -7.9220 hn        1 W61      0.356800
     48 H29        -3.1640    0.6270   -8.0980 h1        1 W61      0.059700
     49 H30        -3.1200    1.3980   -5.9020 hc        1 W61      0.064700
     50 H30A       -1.3370    1.7110   -6.0130 hc        1 W61      0.064700
     51 H32         1.2880   -0.7620   -2.6360 h1        1 W61      0.052450
     52 H32A        0.4140   -2.1220   -1.7810 h1        1 W61      0.052450
     53 H47        -3.6330    2.5900   -9.6140 h2        1 W61      0.067200
     54 H47A       -3.1890    2.8430   -7.8600 h2        1 W61      0.067200
     55 H49        -0.3800    5.2530   -9.0830 h1        1 W61      0.080700
     56 H49A       -0.9750    5.1990  -10.7900 h1        1 W61      0.080700
     57 H50        -0.6460    2.9150  -10.9750 h1        1 W61      0.076200
     58 H50A        0.3950    3.0780   -9.4870 h1        1 W61      0.076200
@<TRIPOS>BOND
     1    1    2 ar  
     2    1    6 ar  
     3    1   12 1   
     4    2    3 ar  
     5    2   33 1   
     6    3    4 ar  
     7    3   11 1   
     8    4    5 ar  
     9    5    6 ar  
    10    5   10 ar  
    11    6    7 ar  
    12    7    8 ar  
    13    7   34 1   
    14    8    9 ar  
    15    8   35 1   
    16    9   10 ar  
    17    9   36 1   
    18   10   37 1   
    19   11   29 1   
    20   11   30 1   
    21   11   31 1   
    22   12   13 1   
    23   12   22 1   
    24   13   14 1   
    25   13   38 1   
    26   13   39 1   
    27   14   15 1   
    28   14   40 1   
    29   14   41 1   
    30   15   16 1   
    31   15   17 1   
    32   16   22 1   
    33   16   42 1   
    34   16   43 1   
    35   17   18 1   
    36   17   21 1   
    37   17   44 1   
    38   18   19 1   
    39   18   45 1   
    40   18   46 1   
    41   19   20 1   
    42   19   47 1   
    43   20   21 1   
    44   20   23 1   
    45   20   48 1   
    46   21   49 1   
    47   21   50 1   
    48   22   51 1   
    49   22   52 1   
    50   23   24 1   
    51   23   32 2   
    52   24   25 1   
    53   24   28 1   
    54   25   26 1   
    55   25   53 1   
    56   25   54 1   
    57   26   27 1   
    58   27   28 1   
    59   27   55 1   
    60   27   56 1   
    61   28   57 1   
    62   28   58 1   
@<TRIPOS>SUBSTRUCTURE
     1 W61         1 TEMP              0 ****  ****    0 ROOT
