@<TRIPOS>MOLECULE
W6Y
   38    40     1     0     0
SMALL
bcc


@<TRIPOS>ATOM
      1 OAA         0.8450   -0.1300    0.5010 o         1 W6Y     -0.837800
      2 CAQ         1.9800   -0.4260    0.0330 c         1 W6Y      0.906200
      3 OAE         2.8920   -0.9690    0.7250 o         1 W6Y     -0.837800
      4 CAT         2.3100   -0.1000   -1.4180 ca        1 W6Y     -0.089600
      5 CAH         3.6010    0.3010   -1.7050 ca        1 W6Y     -0.147000
      6 CAG         3.9990    0.6070   -3.0240 ca        1 W6Y     -0.144000
      7 CAJ         3.1070    0.4920   -4.0610 ca        1 W6Y     -0.155000
      8 CAY         1.7730    0.0730   -3.8130 ca        1 W6Y     -0.045000
      9 CAL         0.8470   -0.0750   -4.8810 ca        1 W6Y     -0.146000
     10 CAZ         1.3640   -0.2090   -2.4810 ca        1 W6Y     -0.023000
     11 CAK         0.0110   -0.5990   -2.2640 ca        1 W6Y     -0.097000
     12 CAI        -0.8660   -0.7280   -3.3130 ca        1 W6Y     -0.159000
     13 CAS        -0.4500   -0.4770   -4.6480 ca        1 W6Y     -0.073300
     14 CAM        -1.3930   -0.6920   -5.7820 c3        1 W6Y     -0.028100
     15 CAN        -1.7440    0.5990   -6.5120 c3        1 W6Y     -0.001200
     16 CAU        -2.0470    0.3620   -7.9470 cc        1 W6Y     -0.270400
     17 CAX        -0.8890    0.1130   -8.8180 c         1 W6Y      0.711700
     18 OAD         0.3100    0.1120   -8.4770 o         1 W6Y     -0.657500
     19 NAP        -1.1550   -0.1390  -10.1830 ns        1 W6Y     -0.595500
     20 CAW        -2.4510   -0.1100  -10.7120 c         1 W6Y      0.789500
     21 OAC        -2.6470   -0.3060  -11.9410 o         1 W6Y     -0.717500
     22 NAO        -3.5110    0.1210   -9.8320 ns        1 W6Y     -0.437100
     23 CAV        -3.3110    0.3820   -8.4800 cd        1 W6Y      0.033400
     24 CAR        -4.6190    0.7110   -7.6960 c         1 W6Y      0.919800
     25 OAF        -4.7390    0.2500   -6.5390 o         1 W6Y     -0.792800
     26 OAB        -5.4680    1.4000   -8.3230 o         1 W6Y     -0.792800
     27 H2          4.3320    0.3610   -0.8840 ha        1 W6Y      0.136000
     28 H3          5.0330    0.9300   -3.2090 ha        1 W6Y      0.095000
     29 H4          3.4040    0.7190   -5.0950 ha        1 W6Y      0.109000
     30 H5          1.1810    0.1320   -5.9120 ha        1 W6Y      0.137000
     31 H6         -0.3070   -0.7750   -1.2200 ha        1 W6Y      0.180000
     32 H7         -1.9100   -1.0230   -3.1320 ha        1 W6Y      0.122000
     33 H8         -0.9100   -1.4030   -6.5060 hc        1 W6Y      0.047200
     34 H9         -2.3420   -1.1690   -5.4200 hc        1 W6Y      0.047200
     35 H10        -0.8790    1.3130   -6.4450 hc        1 W6Y      0.064700
     36 H11        -2.6340    1.0710   -6.0130 hc        1 W6Y      0.064700
     37 H12        -0.4050   -0.3150  -10.8110 hn        1 W6Y      0.325500
     38 H13        -4.4220    0.2760  -10.2110 hn        1 W6Y      0.361500
@<TRIPOS>BOND
     1    1    2 1   
     2    2    3 1   
     3    2    4 1   
     4    4    5 ar  
     5    4   10 ar  
     6    5    6 ar  
     7    5   27 1   
     8    6    7 ar  
     9    6   28 1   
    10    7    8 ar  
    11    7   29 1   
    12    8    9 ar  
    13    8   10 ar  
    14    9   13 ar  
    15    9   30 1   
    16   10   11 ar  
    17   11   12 ar  
    18   11   31 1   
    19   12   13 ar  
    20   12   32 1   
    21   13   14 1   
    22   14   15 1   
    23   14   33 1   
    24   14   34 1   
    25   15   16 1   
    26   15   35 1   
    27   15   36 1   
    28   16   17 1   
    29   16   23 2   
    30   17   18 2   
    31   17   19 1   
    32   19   20 1   
    33   19   37 1   
    34   20   21 2   
    35   20   22 1   
    36   22   23 1   
    37   22   38 1   
    38   23   24 1   
    39   24   25 1   
    40   24   26 1   
@<TRIPOS>SUBSTRUCTURE
     1 W6Y         1 TEMP              0 ****  ****    0 ROOT
