@<TRIPOS>MOLECULE
W6Y
   38    40     1     0     0
SMALL
bcc


@<TRIPOS>ATOM
      1 OAA         0.8490   -0.1270    0.5000 o         1 W6Y     -0.837800
      2 CAQ         1.9900   -0.4010    0.0300 c         1 W6Y      0.906200
      3 OAE         2.9120   -0.9290    0.7200 o         1 W6Y     -0.837800
      4 CAT         2.3130   -0.0640   -1.4200 ca        1 W6Y     -0.089600
      5 CAH         3.5960    0.3610   -1.7050 ca        1 W6Y     -0.147000
      6 CAG         3.9880    0.6790   -3.0230 ca        1 W6Y     -0.144000
      7 CAJ         3.0980    0.5510   -4.0610 ca        1 W6Y     -0.155000
      8 CAY         1.7720    0.1070   -3.8140 ca        1 W6Y     -0.045000
      9 CAL         0.8480   -0.0540   -4.8820 ca        1 W6Y     -0.146000
     10 CAZ         1.3680   -0.1870   -2.4820 ca        1 W6Y     -0.023000
     11 CAK         0.0230   -0.6020   -2.2660 ca        1 W6Y     -0.097000
     12 CAI        -0.8520   -0.7440   -3.3150 ca        1 W6Y     -0.159000
     13 CAS        -0.4410   -0.4810   -4.6490 ca        1 W6Y     -0.073300
     14 CAM        -1.3800   -0.7100   -5.7840 c3        1 W6Y     -0.028100
     15 CAN        -1.7550    0.5770   -6.5090 c3        1 W6Y     -0.001200
     16 CAU        -2.0540    0.3380   -7.9460 cc        1 W6Y     -0.270400
     17 CAX        -0.8910    0.1150   -8.8180 c         1 W6Y      0.711700
     18 OAD         0.3080    0.1370   -8.4770 o         1 W6Y     -0.657500
     19 NAP        -1.1520   -0.1370  -10.1830 n         1 W6Y     -0.595500
     20 CAW        -2.4490   -0.1320  -10.7120 c         1 W6Y      0.789500
     21 OAC        -2.6410   -0.3290  -11.9410 o         1 W6Y     -0.717500
     22 NAO        -3.5130    0.0740   -9.8310 n         1 W6Y     -0.437100
     23 CAV        -3.3180    0.3350   -8.4780 cd        1 W6Y      0.033400
     24 CAR        -4.6320    0.6350   -7.6920 c         1 W6Y      0.919800
     25 OAF        -4.7430    0.1690   -6.5370 o         1 W6Y     -0.792800
     26 OAB        -5.4950    1.3090   -8.3170 o         1 W6Y     -0.792800
     27 H2          4.3260    0.4320   -0.8840 ha        1 W6Y      0.136000
     28 H3          5.0160    1.0220   -3.2080 ha        1 W6Y      0.095000
     29 H4          3.3900    0.7860   -5.0940 ha        1 W6Y      0.109000
     30 H5          1.1780    0.1620   -5.9120 ha        1 W6Y      0.137000
     31 H6         -0.2910   -0.7880   -1.2220 ha        1 W6Y      0.180000
     32 H7         -1.8900   -1.0600   -3.1340 ha        1 W6Y      0.122000
     33 H8         -0.8850   -1.4100   -6.5100 hc        1 W6Y      0.047200
     34 H9         -2.3210   -1.2050   -5.4230 hc        1 W6Y      0.047200
     35 H10        -0.9030    1.3060   -6.4400 hc        1 W6Y      0.064700
     36 H11        -2.6540    1.0300   -6.0090 hc        1 W6Y      0.064700
     37 H12        -0.3990   -0.2960  -10.8110 hn        1 W6Y      0.325500
     38 H13        -4.4270    0.2120  -10.2100 hn        1 W6Y      0.361500
@<TRIPOS>BOND
     1    1    2 1   
     2    2    3 1   
     3    2    4 1   
     4    4    5 ar  
     5    4   10 ar  
     6    5    6 ar  
     7    5   27 1   
     8    6    7 ar  
     9    6   28 1   
    10    7    8 ar  
    11    7   29 1   
    12    8    9 ar  
    13    8   10 ar  
    14    9   13 ar  
    15    9   30 1   
    16   10   11 ar  
    17   11   12 ar  
    18   11   31 1   
    19   12   13 ar  
    20   12   32 1   
    21   13   14 1   
    22   14   15 1   
    23   14   33 1   
    24   14   34 1   
    25   15   16 1   
    26   15   35 1   
    27   15   36 1   
    28   16   17 1   
    29   16   23 2   
    30   17   18 2   
    31   17   19 1   
    32   19   20 1   
    33   19   37 1   
    34   20   21 2   
    35   20   22 1   
    36   22   23 1   
    37   22   38 1   
    38   23   24 1   
    39   24   25 1   
    40   24   26 1   
@<TRIPOS>SUBSTRUCTURE
     1 W6Y         1 TEMP              0 ****  ****    0 ROOT
