@<TRIPOS>MOLECULE
W6Y
   38    40     1     0     0
SMALL
bcc


@<TRIPOS>ATOM
      1 OAA         0.8480   -0.0960    0.5010 o         1 W6Y     -0.837800
      2 CAQ         1.9840   -0.3920    0.0340 c         1 W6Y      0.906200
      3 OAE         2.8970   -0.9280    0.7280 o         1 W6Y     -0.837800
      4 CAT         2.3120   -0.0720   -1.4190 ca        1 W6Y     -0.089600
      5 CAH         3.6010    0.3310   -1.7090 ca        1 W6Y     -0.147000
      6 CAG         3.9980    0.6310   -3.0290 ca        1 W6Y     -0.144000
      7 CAJ         3.1060    0.5090   -4.0660 ca        1 W6Y     -0.155000
      8 CAY         1.7730    0.0880   -3.8140 ca        1 W6Y     -0.045000
      9 CAL         0.8460   -0.0680   -4.8810 ca        1 W6Y     -0.146000
     10 CAZ         1.3650   -0.1890   -2.4800 ca        1 W6Y     -0.023000
     11 CAK         0.0140   -0.5810   -2.2610 ca        1 W6Y     -0.097000
     12 CAI        -0.8640   -0.7180   -3.3080 ca        1 W6Y     -0.159000
     13 CAS        -0.4500   -0.4720   -4.6440 ca        1 W6Y     -0.073300
     14 CAM        -1.3920   -0.6950   -5.7770 c3        1 W6Y     -0.028100
     15 CAN        -1.7470    0.5900   -6.5140 c3        1 W6Y     -0.001200
     16 CAU        -2.0490    0.3450   -7.9480 cc        1 W6Y     -0.270400
     17 CAX        -0.8900    0.0960   -8.8180 c         1 W6Y      0.711700
     18 OAD         0.3100    0.1040   -8.4770 o         1 W6Y     -0.657500
     19 NAP        -1.1540   -0.1630  -10.1810 n         1 W6Y     -0.595500
     20 CAW        -2.4500   -0.1430  -10.7110 c         1 W6Y      0.789500
     21 OAC        -2.6450   -0.3470  -11.9380 o         1 W6Y     -0.717500
     22 NAO        -3.5110    0.0870   -9.8320 n         1 W6Y     -0.437100
     23 CAV        -3.3130    0.3560   -8.4810 cd        1 W6Y      0.033400
     24 CAR        -4.6220    0.6820   -7.6980 c         1 W6Y      0.919800
     25 OAF        -4.7400    0.2270   -6.5390 o         1 W6Y     -0.792800
     26 OAB        -5.4750    1.3630   -8.3290 o         1 W6Y     -0.792800
     27 H2          4.3330    0.3970   -0.8880 ha        1 W6Y      0.136000
     28 H3          5.0310    0.9570   -3.2170 ha        1 W6Y      0.095000
     29 H4          3.4010    0.7310   -5.1010 ha        1 W6Y      0.109000
     30 H5          1.1790    0.1340   -5.9130 ha        1 W6Y      0.137000
     31 H6         -0.3030   -0.7520   -1.2150 ha        1 W6Y      0.180000
     32 H7         -1.9070   -1.0150   -3.1250 ha        1 W6Y      0.122000
     33 H8         -0.9080   -1.4100   -6.4980 hc        1 W6Y      0.047200
     34 H9         -2.3400   -1.1730   -5.4120 hc        1 W6Y      0.047200
     35 H10        -0.8840    1.3070   -6.4500 hc        1 W6Y      0.064700
     36 H11        -2.6390    1.0620   -6.0180 hc        1 W6Y      0.064700
     37 H12        -0.4030   -0.3390  -10.8080 hn        1 W6Y      0.325500
     38 H13        -4.4230    0.2350  -10.2120 hn        1 W6Y      0.361500
@<TRIPOS>BOND
     1    1    2 1   
     2    2    3 1   
     3    2    4 1   
     4    4    5 ar  
     5    4   10 ar  
     6    5    6 ar  
     7    5   27 1   
     8    6    7 ar  
     9    6   28 1   
    10    7    8 ar  
    11    7   29 1   
    12    8    9 ar  
    13    8   10 ar  
    14    9   13 ar  
    15    9   30 1   
    16   10   11 ar  
    17   11   12 ar  
    18   11   31 1   
    19   12   13 ar  
    20   12   32 1   
    21   13   14 1   
    22   14   15 1   
    23   14   33 1   
    24   14   34 1   
    25   15   16 1   
    26   15   35 1   
    27   15   36 1   
    28   16   17 1   
    29   16   23 2   
    30   17   18 2   
    31   17   19 1   
    32   19   20 1   
    33   19   37 1   
    34   20   21 2   
    35   20   22 1   
    36   22   23 1   
    37   22   38 1   
    38   23   24 1   
    39   24   25 1   
    40   24   26 1   
@<TRIPOS>SUBSTRUCTURE
     1 W6Y         1 TEMP              0 ****  ****    0 ROOT
