@<TRIPOS>MOLECULE
W70
   41    43     1     0     0
SMALL
bcc


@<TRIPOS>ATOM
      1 OAJ        -0.1750    1.0130   -0.0920 o         1 W70     -0.793800
      2 CAI         0.9340    0.4510    0.0750 c         1 W70      0.922800
      3 OAK         1.4420    0.1060    1.1720 o         1 W70     -0.793800
      4 C4          1.7970    0.1690   -1.1930 cc        1 W70      0.044400
      5 N3          3.1660    0.2960   -1.0140 n         1 W70     -0.436100
      6 C2          4.0800    0.0150   -2.0360 c         1 W70      0.791500
      7 O2          5.3200    0.1010   -1.8490 o         1 W70     -0.694500
      8 N1          3.5710   -0.3490   -3.2910 n         1 W70     -0.592500
      9 C6          2.1890   -0.4830   -3.5360 c         1 W70      0.716700
     10 O6          1.8490   -0.8360   -4.6840 o         1 W70     -0.668500
     11 C5          1.2870   -0.1980   -2.4150 cd        1 W70     -0.293400
     12 CAL        -0.1680   -0.3350   -2.6710 c3        1 W70      0.010800
     13 CAM        -0.7760    0.9850   -3.1280 c3        1 W70     -0.042100
     14 CAN        -2.2630    0.9400   -3.0960 ca        1 W70     -0.055300
     15 CAS        -3.0140    0.9220   -4.2750 ca        1 W70     -0.121500
     16 CAR        -4.4080    0.9090   -4.2300 ca        1 W70     -0.144500
     17 CAO        -2.9190    0.9340   -1.8540 ca        1 W70     -0.121500
     18 CAP        -4.3080    0.9120   -1.7910 ca        1 W70     -0.144500
     19 CAQ        -5.0430    0.9000   -2.9840 ca        1 W70      0.053100
     20 OAT        -6.4350    0.7480   -2.9700 os        1 W70     -0.256200
     21 CAU        -7.1690    1.8250   -2.4990 ca        1 W70      0.134100
     22 CAW        -6.6190    3.0590   -2.1330 ca        1 W70     -0.176000
     23 CAV        -7.4660    4.0740   -1.6900 ca        1 W70     -0.103500
     24 CAZ        -8.8420    3.8650   -1.6130 ca        1 W70     -0.175000
     25 CAY        -9.3810    2.6300   -1.9800 ca        1 W70     -0.103500
     26 CAX        -8.5570    1.6020   -2.4240 ca        1 W70     -0.176000
     27 H2          3.5130    0.4460   -0.0880 hn        1 W70      0.367500
     28 H3          4.2250   -0.5370   -4.0160 hn        1 W70      0.331500
     29 H4         -0.3400   -1.1200   -3.4540 hc        1 W70      0.058700
     30 H5         -0.6800   -0.6570   -1.7220 hc        1 W70      0.058700
     31 H6         -0.4270    1.7920   -2.4240 hc        1 W70      0.061200
     32 H7         -0.4100    1.2300   -4.1590 hc        1 W70      0.061200
     33 H8         -2.5020    0.9190   -5.2490 ha        1 W70      0.165000
     34 H9         -5.0050    0.8910   -5.1520 ha        1 W70      0.137000
     35 H10        -2.3060    0.9470   -0.9300 ha        1 W70      0.165000
     36 H11        -4.8290    0.9040   -0.8240 ha        1 W70      0.137000
     37 H12        -5.5320    3.2190   -2.1890 ha        1 W70      0.150500
     38 H13        -7.0400    5.0450   -1.3990 ha        1 W70      0.126000
     39 H14        -9.5020    4.6700   -1.2630 ha        1 W70      0.123000
     40 H15       -10.4670    2.4660   -1.9170 ha        1 W70      0.126000
     41 H16        -8.9650    0.6250   -2.7140 ha        1 W70      0.150500
@<TRIPOS>BOND
     1    1    2 1   
     2    2    3 1   
     3    2    4 1   
     4    4    5 1   
     5    4   11 2   
     6    5    6 1   
     7    5   27 1   
     8    6    7 2   
     9    6    8 1   
    10    8    9 1   
    11    8   28 1   
    12    9   10 2   
    13    9   11 1   
    14   11   12 1   
    15   12   13 1   
    16   12   29 1   
    17   12   30 1   
    18   13   14 1   
    19   13   31 1   
    20   13   32 1   
    21   14   15 ar  
    22   14   17 ar  
    23   15   16 ar  
    24   15   33 1   
    25   16   19 ar  
    26   16   34 1   
    27   17   18 ar  
    28   17   35 1   
    29   18   19 ar  
    30   18   36 1   
    31   19   20 1   
    32   20   21 1   
    33   21   22 ar  
    34   21   26 ar  
    35   22   23 ar  
    36   22   37 1   
    37   23   24 ar  
    38   23   38 1   
    39   24   25 ar  
    40   24   39 1   
    41   25   26 ar  
    42   25   40 1   
    43   26   41 1   
@<TRIPOS>SUBSTRUCTURE
     1 W70         1 TEMP              0 ****  ****    0 ROOT
