@<TRIPOS>MOLECULE
W70
   41    43     1     0     0
SMALL
bcc


@<TRIPOS>ATOM
      1 OAJ        -0.1740    1.0070   -0.0910 o         1 W70     -0.793800
      2 CAI         0.9360    0.4450    0.0740 c         1 W70      0.922800
      3 OAK         1.4440    0.0970    1.1700 o         1 W70     -0.793800
      4 C4          1.7980    0.1660   -1.1950 cc        1 W70      0.044400
      5 N3          3.1670    0.2930   -1.0160 ns        1 W70     -0.436100
      6 C2          4.0810    0.0140   -2.0390 c         1 W70      0.791500
      7 O2          5.3200    0.1000   -1.8530 o         1 W70     -0.694500
      8 N1          3.5710   -0.3460   -3.2950 ns        1 W70     -0.592500
      9 C6          2.1890   -0.4800   -3.5400 c         1 W70      0.716700
     10 O6          1.8480   -0.8300   -4.6890 o         1 W70     -0.668500
     11 C5          1.2870   -0.1980   -2.4180 cd        1 W70     -0.293400
     12 CAL        -0.1680   -0.3340   -2.6730 c3        1 W70      0.010800
     13 CAM        -0.7760    0.9870   -3.1270 c3        1 W70     -0.042100
     14 CAN        -2.2630    0.9420   -3.0950 ca        1 W70     -0.055300
     15 CAS        -3.0150    0.9270   -4.2740 ca        1 W70     -0.121500
     16 CAR        -4.4080    0.9120   -4.2280 ca        1 W70     -0.144500
     17 CAO        -2.9190    0.9320   -1.8520 ca        1 W70     -0.121500
     18 CAP        -4.3080    0.9100   -1.7890 ca        1 W70     -0.144500
     19 CAQ        -5.0430    0.9000   -2.9820 ca        1 W70      0.053100
     20 OAT        -6.4350    0.7480   -2.9670 os        1 W70     -0.256200
     21 CAU        -7.1690    1.8250   -2.4970 ca        1 W70      0.134100
     22 CAW        -6.6200    3.0590   -2.1290 ca        1 W70     -0.176000
     23 CAV        -7.4670    4.0730   -1.6870 ca        1 W70     -0.103500
     24 CAZ        -8.8430    3.8650   -1.6120 ca        1 W70     -0.175000
     25 CAY        -9.3820    2.6310   -1.9800 ca        1 W70     -0.103500
     26 CAX        -8.5570    1.6030   -2.4240 ca        1 W70     -0.176000
     27 H2          3.5140    0.4400   -0.0900 hn        1 W70      0.367500
     28 H3          4.2250   -0.5330   -4.0210 hn        1 W70      0.331500
     29 H4         -0.3400   -1.1170   -3.4590 hc        1 W70      0.058700
     30 H5         -0.6790   -0.6590   -1.7250 hc        1 W70      0.058700
     31 H6         -0.4270    1.7910   -2.4210 hc        1 W70      0.061200
     32 H7         -0.4110    1.2340   -4.1570 hc        1 W70      0.061200
     33 H8         -2.5030    0.9260   -5.2480 ha        1 W70      0.165000
     34 H9         -5.0050    0.8970   -5.1500 ha        1 W70      0.137000
     35 H10        -2.3050    0.9430   -0.9280 ha        1 W70      0.165000
     36 H11        -4.8290    0.8990   -0.8220 ha        1 W70      0.137000
     37 H12        -5.5320    3.2180   -2.1840 ha        1 W70      0.150500
     38 H13        -7.0400    5.0440   -1.3950 ha        1 W70      0.126000
     39 H14        -9.5030    4.6700   -1.2610 ha        1 W70      0.123000
     40 H15       -10.4670    2.4660   -1.9190 ha        1 W70      0.126000
     41 H16        -8.9660    0.6260   -2.7150 ha        1 W70      0.150500
@<TRIPOS>BOND
     1    1    2 1   
     2    2    3 1   
     3    2    4 1   
     4    4    5 1   
     5    4   11 2   
     6    5    6 1   
     7    5   27 1   
     8    6    7 2   
     9    6    8 1   
    10    8    9 1   
    11    8   28 1   
    12    9   10 2   
    13    9   11 1   
    14   11   12 1   
    15   12   13 1   
    16   12   29 1   
    17   12   30 1   
    18   13   14 1   
    19   13   31 1   
    20   13   32 1   
    21   14   15 ar  
    22   14   17 ar  
    23   15   16 ar  
    24   15   33 1   
    25   16   19 ar  
    26   16   34 1   
    27   17   18 ar  
    28   17   35 1   
    29   18   19 ar  
    30   18   36 1   
    31   19   20 1   
    32   20   21 1   
    33   21   22 ar  
    34   21   26 ar  
    35   22   23 ar  
    36   22   37 1   
    37   23   24 ar  
    38   23   38 1   
    39   24   25 ar  
    40   24   39 1   
    41   25   26 ar  
    42   25   40 1   
    43   26   41 1   
@<TRIPOS>SUBSTRUCTURE
     1 W70         1 TEMP              0 ****  ****    0 ROOT
