@<TRIPOS>MOLECULE
W70
   41    43     1     0     0
SMALL
bcc


@<TRIPOS>ATOM
      1 OAJ        -0.1730    1.0200   -0.0900 o         1 W70     -0.793800
      2 CAI         0.9370    0.4610    0.0780 c         1 W70      0.922800
      3 OAK         1.4460    0.1190    1.1750 o         1 W70     -0.793800
      4 C4          1.7990    0.1750   -1.1900 cc        1 W70      0.044400
      5 N3          3.1680    0.3050   -1.0120 n         1 W70     -0.436100
      6 C2          4.0820    0.0220   -2.0340 c         1 W70      0.791500
      7 O2          5.3210    0.1110   -1.8480 o         1 W70     -0.694500
      8 N1          3.5720   -0.3460   -3.2880 n         1 W70     -0.592500
      9 C6          2.1900   -0.4820   -3.5320 c         1 W70      0.716700
     10 O6          1.8500   -0.8390   -4.6780 o         1 W70     -0.668500
     11 C5          1.2880   -0.1960   -2.4110 cd        1 W70     -0.293400
     12 CAL        -0.1670   -0.3340   -2.6650 c3        1 W70      0.010800
     13 CAM        -0.7770    0.9830   -3.1260 c3        1 W70     -0.042100
     14 CAN        -2.2640    0.9370   -3.0930 ca        1 W70     -0.055300
     15 CAS        -3.0150    0.9150   -4.2720 ca        1 W70     -0.121500
     16 CAR        -4.4090    0.9000   -4.2260 ca        1 W70     -0.144500
     17 CAO        -2.9180    0.9330   -1.8500 ca        1 W70     -0.121500
     18 CAP        -4.3080    0.9100   -1.7870 ca        1 W70     -0.144500
     19 CAQ        -5.0430    0.8940   -2.9800 ca        1 W70      0.053100
     20 OAT        -6.4350    0.7410   -2.9630 os        1 W70     -0.256200
     21 CAU        -7.1700    1.8200   -2.5010 ca        1 W70      0.134100
     22 CAW        -6.6210    3.0560   -2.1380 ca        1 W70     -0.176500
     23 CAV        -7.4680    4.0730   -1.7030 ca        1 W70     -0.103500
     24 CAZ        -8.8450    3.8650   -1.6290 ca        1 W70     -0.175000
     25 CAY        -9.3830    2.6290   -1.9920 ca        1 W70     -0.103500
     26 CAX        -8.5580    1.5990   -2.4280 ca        1 W70     -0.176500
     27 H2          3.5150    0.4590   -0.0870 hn        1 W70      0.367500
     28 H3          4.2260   -0.5350   -4.0130 hn        1 W70      0.331500
     29 H4         -0.6770   -0.6550   -1.7150 hc        1 W70      0.058700
     30 H5         -0.3380   -1.1220   -3.4460 hc        1 W70      0.058700
     31 H6         -0.4280    1.7920   -2.4240 hc        1 W70      0.061200
     32 H7         -0.4110    1.2260   -4.1570 hc        1 W70      0.061200
     33 H8         -2.5040    0.9100   -5.2460 ha        1 W70      0.165000
     34 H9         -5.0060    0.8790   -5.1470 ha        1 W70      0.137000
     35 H10        -2.3050    0.9490   -0.9270 ha        1 W70      0.165000
     36 H11        -4.8280    0.9030   -0.8190 ha        1 W70      0.137000
     37 H12        -5.5330    3.2150   -2.1920 ha        1 W70      0.150500
     38 H13        -7.0420    5.0450   -1.4150 ha        1 W70      0.126000
     39 H14        -9.5060    4.6720   -1.2840 ha        1 W70      0.123000
     40 H15       -10.4690    2.4650   -1.9310 ha        1 W70      0.126000
     41 H16        -8.9660    0.6200   -2.7160 ha        1 W70      0.150500
@<TRIPOS>BOND
     1    1    2 1   
     2    2    3 1   
     3    2    4 1   
     4    4    5 1   
     5    4   11 2   
     6    5    6 1   
     7    5   27 1   
     8    6    7 2   
     9    6    8 1   
    10    8    9 1   
    11    8   28 1   
    12    9   10 2   
    13    9   11 1   
    14   11   12 1   
    15   12   13 1   
    16   12   29 1   
    17   12   30 1   
    18   13   14 1   
    19   13   31 1   
    20   13   32 1   
    21   14   15 ar  
    22   14   17 ar  
    23   15   16 ar  
    24   15   33 1   
    25   16   19 ar  
    26   16   34 1   
    27   17   18 ar  
    28   17   35 1   
    29   18   19 ar  
    30   18   36 1   
    31   19   20 1   
    32   20   21 1   
    33   21   22 ar  
    34   21   26 ar  
    35   22   23 ar  
    36   22   37 1   
    37   23   24 ar  
    38   23   38 1   
    39   24   25 ar  
    40   24   39 1   
    41   25   26 ar  
    42   25   40 1   
    43   26   41 1   
@<TRIPOS>SUBSTRUCTURE
     1 W70         1 TEMP              0 ****  ****    0 ROOT
