@<TRIPOS>MOLECULE
W71
   51    47     1     0     0
SMALL
bcc


@<TRIPOS>ATOM
      1 O1          3.8330   -2.1570    6.2100 os        1 W71     -0.065000
      2 N2          3.9550   -3.1840    7.1450 n2        1 W71     -0.027000
      3 C3          2.7400   -3.3980    7.6910 c1        1 W71     -0.103000
      4 C31         2.4390   -4.3310    8.8500 c2        1 W71     -0.156000
      5 C4          1.8510   -2.5140    7.1100 c1        1 W71     -0.234000
      6 C5          2.5430   -1.7540    6.1960 c1        1 W71     -0.024000
      7 C1C         1.9570   -0.6320    5.3280 c2        1 W71     -0.102000
      8 C2C         1.9850   -1.0590    3.8410 c3        1 W71     -0.157000
      9 C3C         2.0940    0.2110    2.9360 c3        1 W71     -0.158000
     10 C4C         1.9430   -0.1960    1.4660 c3        1 W71     -0.157000
     11 C5C         1.6540    1.0630    0.6080 c3        1 W71     -0.155000
     12 C6C         1.8650    0.7390   -0.8450 c3        1 W71     -0.196000
     13 C7C         0.7230    1.3690   -1.6880 c3        1 W71     -0.023000
     14 O1B         0.8460    0.9370   -3.0580 os        1 W71     -0.209000
     15 C1B        -0.3350    1.1300   -3.8380 c2        1 W71      0.108000
     16 C2B        -1.3230    0.1630   -3.8440 c2        1 W71     -0.223000
     17 C3B        -2.4110    0.2900   -4.6920 c1        1 W71     -0.045000
     18 C4B        -2.5090    1.3880   -5.5360 c1        1 W71     -0.085000
     19 C5B        -1.5210    2.3520   -5.5290 c1        1 W71     -0.054000
     20 C6B        -0.4330    2.2240   -4.6800 c1        1 W71     -0.173000
     21 C2A        -3.7570    1.6020   -6.3470 c2        1 W71      0.136000
     22 N3A        -4.9990    1.8370   -5.6960 n1        1 W71     -0.225000
     23 C4A        -5.9820    1.9460   -6.4930 c2        1 W71     -0.131000
     24 C5A        -5.3210    1.3040   -7.8360 c3        1 W71     -0.061000
     25 O1A        -3.8700    1.0770   -7.4740 os        1 W71     -0.254000
     26 H311        2.2240   -3.8060    9.6440 ha        1 W71      0.096667
     27 H312        3.2170   -4.8860    9.0290 ha        1 W71      0.096667
     28 H313        1.6760   -4.9030    8.6200 ha        1 W71      0.096667
     29 H4          0.9040   -2.4430    7.3100 DU        1 W71      0.173000
     30 H1C1        2.4880    0.1780    5.4430 ha        1 W71      0.106000
     31 H1C2        1.0310   -0.4580    5.6000 ha        1 W71      0.106000
     32 H2C1        1.1590   -1.5450    3.6250 hc        1 W71      0.093000
     33 H2C2        2.7560   -1.6390    3.6820 hc        1 W71      0.093000
     34 H3C1        2.9670    0.6350    3.0710 hc        1 W71      0.080500
     35 H3C2        1.3880    0.8390    3.1730 hc        1 W71      0.080500
     36 H4C1        1.2020   -0.8290    1.3770 hc        1 W71      0.084500
     37 H4C2        2.7770   -0.6200    1.1550 hc        1 W71      0.084500
     38 H5C1        2.2620    1.7860    0.8740 hc        1 W71      0.080500
     39 H5C2        0.7350    1.3450    0.7470 hc        1 W71      0.080500
     40 H6C1        2.7220    1.1000   -1.1370 hc        1 W71      0.097000
     41 H6C2        1.8610   -0.2260   -0.9650 hc        1 W71      0.097000
     42 H7C1       -0.1490    1.0810   -1.3290 h1        1 W71      0.097500
     43 H7C2        0.7880    2.3530   -1.6460 h1        1 W71      0.097500
     44 H2B        -1.2550   -0.6120   -3.2490 ha        1 W71      0.143000
     45 H3B        -3.1040   -0.3880   -4.6970 ha        1 W71      0.156000
     46 H5B        -1.5900    3.1280   -6.1250 ha        1 W71      0.156000
     47 H6B         0.2600    2.9010   -4.6750 ha        1 W71      0.154000
     48 H4A1       -6.3940    2.8390   -6.4630 ha        1 W71      0.110000
     49 H4A2       -6.7480    1.3710   -6.2480 ha        1 W71      0.110000
     50 H5A1       -5.7520    0.4610   -8.0560 h1        1 W71      0.102000
     51 H5A2       -5.3920    1.9330   -8.5870 h1        1 W71      0.102000
@<TRIPOS>BOND
     1    1    2 1   
     2    1    6 1   
     3    2    3 1   
     4    3    5 1   
     5    4   26 1   
     6    4   27 1   
     7    4   28 1   
     8    5    6 1   
     9    7    8 1   
    10    7   30 1   
    11    7   31 1   
    12    8    9 1   
    13    8   32 1   
    14    8   33 1   
    15    9   10 1   
    16    9   34 1   
    17    9   35 1   
    18   10   11 1   
    19   10   36 1   
    20   10   37 1   
    21   11   12 1   
    22   11   38 1   
    23   11   39 1   
    24   12   13 1   
    25   12   40 1   
    26   12   41 1   
    27   13   14 1   
    28   13   42 1   
    29   13   43 1   
    30   14   15 1   
    31   15   16 1   
    32   15   20 1   
    33   16   17 1   
    34   16   44 1   
    35   17   45 1   
    36   18   19 1   
    37   18   21 1   
    38   19   46 1   
    39   20   47 1   
    40   21   22 1   
    41   21   25 1   
    42   23   24 1   
    43   23   48 1   
    44   23   49 1   
    45   24   25 1   
    46   24   50 1   
    47   24   51 1   
@<TRIPOS>SUBSTRUCTURE
     1 W71         1 TEMP              0 ****  ****    0 ROOT
