@<TRIPOS>MOLECULE
W71
   51    53     1     0     0
SMALL
bcc


@<TRIPOS>ATOM
      1 O1          0.0940    0.6770    0.0590 os        1 W71     -0.122100
      2 N2          1.3930    0.7440   -0.1510 nc        1 W71     -0.362300
      3 C3          2.0440    0.4080    0.9830 cd        1 W71      0.319600
      4 C31         3.5030    0.3530    1.1810 c3        1 W71     -0.132400
      5 C4          1.0540    0.0990    2.0180 cd        1 W71     -0.364600
      6 C5         -0.1640    0.2810    1.3960 cc        1 W71      0.265000
      7 C1C        -1.5710    0.1470    1.7920 c3        1 W71     -0.117700
      8 C2C        -2.2540    1.4980    1.9130 c3        1 W71     -0.078400
      9 C3C        -3.7130    1.3310    2.2790 c3        1 W71     -0.079400
     10 C4C        -4.3970    2.6750    2.4130 c3        1 W71     -0.078400
     11 C5C        -5.8580    2.5110    2.7720 c3        1 W71     -0.078400
     12 C6C        -6.5350    3.8570    2.9120 c3        1 W71     -0.086400
     13 C7C        -8.0000    3.6720    3.2700 c3        1 W71      0.128400
     14 O1B        -8.5400    4.9960    3.3890 os        1 W71     -0.327900
     15 C1B        -9.8760    5.0780    3.7120 ca        1 W71      0.153100
     16 C2B       -10.3750    6.3920    3.8190 ca        1 W71     -0.198000
     17 C3B       -11.7100    6.5880    4.1410 ca        1 W71     -0.049500
     18 C4B       -12.5580    5.4900    4.3580 ca        1 W71     -0.168900
     19 C5B       -12.0540    4.1880    4.2490 ca        1 W71     -0.049500
     20 C6B       -10.7150    3.9770    3.9260 ca        1 W71     -0.198000
     21 C2A       -13.9610    5.7050    4.6960 ce        1 W71      0.640200
     22 N3A       -14.9090    4.8350    4.9370 n2        1 W71     -0.636900
     23 C4A       -16.1380    5.5630    5.2260 c3        1 W71      0.072800
     24 C5A       -15.7670    7.0650    5.1180 c3        1 W71      0.089400
     25 O1A       -14.3600    7.0600    4.7770 os        1 W71     -0.459400
     26 H311        3.7950    1.0580    1.9990 hc        1 W71      0.057367
     27 H312        3.8000   -0.6840    1.4800 hc        1 W71      0.057367
     28 H313        4.0630    0.6310    0.2540 hc        1 W71      0.057367
     29 H4          1.2690   -0.2040    3.0360 ha        1 W71      0.173000
     30 H1C1       -2.1110   -0.4760    1.0260 hc        1 W71      0.066700
     31 H1C2       -1.6200   -0.3960    2.7740 hc        1 W71      0.066700
     32 H2C1       -1.7360    2.1140    2.6940 hc        1 W71      0.053700
     33 H2C2       -2.1640    2.0480    0.9390 hc        1 W71      0.053700
     34 H3C1       -3.7990    0.7660    3.2440 hc        1 W71      0.041200
     35 H3C2       -4.2320    0.7230    1.4910 hc        1 W71      0.041200
     36 H4C1       -3.8810    3.2830    3.2030 hc        1 W71      0.045200
     37 H4C2       -4.3070    3.2410    1.4490 hc        1 W71      0.045200
     38 H5C1       -5.9470    1.9410    3.7350 hc        1 W71      0.041700
     39 H5C2       -6.3750    1.9080    1.9800 hc        1 W71      0.041700
     40 H6C1       -6.4560    4.4340    1.9540 hc        1 W71      0.059200
     41 H6C2       -6.0310    4.4650    3.7080 hc        1 W71      0.059200
     42 H7C1       -8.5470    3.1160    2.4640 h1        1 W71      0.041700
     43 H7C2       -8.1130    3.1330    4.2470 h1        1 W71      0.041700
     44 H2B        -9.7000    7.2420    3.6460 ha        1 W71      0.148000
     45 H3B       -12.1120    7.6110    4.2280 ha        1 W71      0.156000
     46 H5B       -12.7130    3.3220    4.4180 ha        1 W71      0.156000
     47 H6B       -10.3360    2.9490    3.8450 ha        1 W71      0.148000
     48 H4A1      -16.4990    5.3010    6.2550 h1        1 W71      0.070700
     49 H4A2      -16.9290    5.2790    4.4850 h1        1 W71      0.070700
     50 H5A1      -15.8690    7.6140    6.0830 h1        1 W71      0.062700
     51 H5A2      -16.3030    7.5930    4.2940 h1        1 W71      0.062700
@<TRIPOS>BOND
     1    1    2 1   
     2    1    6 1   
     3    2    3 2   
     4    3    4 1   
     5    3    5 1   
     6    4   26 1   
     7    4   27 1   
     8    4   28 1   
     9    5    6 2   
    10    5   29 1   
    11    6    7 1   
    12    7    8 1   
    13    7   30 1   
    14    7   31 1   
    15    8    9 1   
    16    8   32 1   
    17    8   33 1   
    18    9   10 1   
    19    9   34 1   
    20    9   35 1   
    21   10   11 1   
    22   10   36 1   
    23   10   37 1   
    24   11   12 1   
    25   11   38 1   
    26   11   39 1   
    27   12   13 1   
    28   12   40 1   
    29   12   41 1   
    30   13   14 1   
    31   13   42 1   
    32   13   43 1   
    33   14   15 1   
    34   15   16 ar  
    35   15   20 ar  
    36   16   17 ar  
    37   16   44 1   
    38   17   18 ar  
    39   17   45 1   
    40   18   19 ar  
    41   18   21 1   
    42   19   20 ar  
    43   19   46 1   
    44   20   47 1   
    45   21   22 2   
    46   21   25 1   
    47   22   23 1   
    48   23   24 1   
    49   23   48 1   
    50   23   49 1   
    51   24   25 1   
    52   24   50 1   
    53   24   51 1   
@<TRIPOS>SUBSTRUCTURE
     1 W71         1 TEMP              0 ****  ****    0 ROOT
