@<TRIPOS>MOLECULE
W71
   51    53     1     0     0
SMALL
bcc


@<TRIPOS>ATOM
      1 O1         -0.1450    1.1430    8.0070 os        1 W71     -0.122100
      2 N2         -0.6780    1.0460    9.2070 nc        1 W71     -0.362300
      3 C3         -0.5310   -0.2180    9.6580 cd        1 W71      0.319600
      4 C31        -0.9840   -0.7520   10.9540 c3        1 W71     -0.132400
      5 C4          0.1680   -1.0020    8.6360 cd        1 W71     -0.364600
      6 C5          0.3930   -0.1090    7.6100 cc        1 W71      0.265000
      7 C1C         1.0380   -0.1690    6.2920 c3        1 W71     -0.117700
      8 C2C         0.0260   -0.0880    5.1640 c3        1 W71     -0.078400
      9 C3C         0.7190   -0.1080    3.8180 c3        1 W71     -0.079400
     10 C4C        -0.2870   -0.0410    2.6890 c3        1 W71     -0.078400
     11 C5C         0.4040   -0.0530    1.3410 c3        1 W71     -0.078400
     12 C6C        -0.6050    0.0070    0.2160 c3        1 W71     -0.086400
     13 C7C         0.1060   -0.0040   -1.1270 c3        1 W71      0.128400
     14 O1B        -0.9320    0.0450   -2.1160 os        1 W71     -0.327900
     15 C1B        -0.5170    0.0450   -3.4290 ca        1 W71      0.153100
     16 C2B        -1.5610    0.0960   -4.3750 ca        1 W71     -0.198000
     17 C3B        -1.2540    0.1000   -5.7270 ca        1 W71     -0.049500
     18 C4B         0.0840    0.0550   -6.1530 ca        1 W71     -0.168900
     19 C5B         1.1150    0.0050   -5.2060 ca        1 W71     -0.049500
     20 C6B         0.8200    0.0000   -3.8440 ca        1 W71     -0.198000
     21 C2A         0.3990    0.0600   -7.5770 ce        1 W71      0.640200
     22 N3A         1.5600    0.0220   -8.1800 n2        1 W71     -0.636900
     23 C4A         1.3320    0.0490   -9.6200 c3        1 W71      0.072800
     24 C5A        -0.2080    0.1110   -9.7950 c3        1 W71      0.089400
     25 O1A        -0.7200    0.1140   -8.4410 os        1 W71     -0.459400
     26 H311       -0.1040   -1.1420   11.5250 hc        1 W71      0.057367
     27 H312       -1.4940    0.0270   11.5730 hc        1 W71      0.057367
     28 H313       -1.6990   -1.5950   10.7810 hc        1 W71      0.057367
     29 H4          0.4320   -2.0510    8.7070 ha        1 W71      0.173000
     30 H1C1        1.7680    0.6830    6.2010 hc        1 W71      0.066700
     31 H1C2        1.6180   -1.1270    6.2190 hc        1 W71      0.066700
     32 H2C1       -0.6880   -0.9500    5.2350 hc        1 W71      0.053700
     33 H2C2       -0.5750    0.8530    5.2710 hc        1 W71      0.053700
     34 H3C1        1.4250    0.7610    3.7460 hc        1 W71      0.041200
     35 H3C2        1.3310   -1.0430    3.7230 hc        1 W71      0.041200
     36 H4C1       -0.9910   -0.9110    2.7590 hc        1 W71      0.045200
     37 H4C2       -0.9020    0.8930    2.7870 hc        1 W71      0.045200
     38 H5C1        1.1050    0.8200    1.2700 hc        1 W71      0.041700
     39 H5C2        1.0230   -0.9850    1.2450 hc        1 W71      0.041700
     40 H6C1       -1.3050   -0.8660    0.2730 hc        1 W71      0.059200
     41 H6C2       -1.2260    0.9370    0.3000 hc        1 W71      0.059200
     42 H7C1        0.7730    0.8910   -1.2400 h1        1 W71      0.041700
     43 H7C2        0.7060   -0.9420   -1.2600 h1        1 W71      0.041700
     44 H2B        -2.6030    0.1310   -4.0270 ha        1 W71      0.148000
     45 H3B        -2.0610    0.1400   -6.4770 ha        1 W71      0.156000
     46 H5B         2.1670   -0.0300   -5.5320 ha        1 W71      0.156000
     47 H6B         1.6410   -0.0390   -3.1150 ha        1 W71      0.148000
     48 H4A1        1.8350    0.9460  -10.0650 h1        1 W71      0.070700
     49 H4A2        1.7640   -0.8740  -10.0880 h1        1 W71      0.070700
     50 H5A1       -0.5580    1.0520  -10.2810 h1        1 W71      0.062700
     51 H5A2       -0.6290   -0.7880  -10.3040 h1        1 W71      0.062700
@<TRIPOS>BOND
     1    1    2 1   
     2    1    6 1   
     3    2    3 2   
     4    3    4 1   
     5    3    5 1   
     6    4   26 1   
     7    4   27 1   
     8    4   28 1   
     9    5    6 2   
    10    5   29 1   
    11    6    7 1   
    12    7    8 1   
    13    7   30 1   
    14    7   31 1   
    15    8    9 1   
    16    8   32 1   
    17    8   33 1   
    18    9   10 1   
    19    9   34 1   
    20    9   35 1   
    21   10   11 1   
    22   10   36 1   
    23   10   37 1   
    24   11   12 1   
    25   11   38 1   
    26   11   39 1   
    27   12   13 1   
    28   12   40 1   
    29   12   41 1   
    30   13   14 1   
    31   13   42 1   
    32   13   43 1   
    33   14   15 1   
    34   15   16 ar  
    35   15   20 ar  
    36   16   17 ar  
    37   16   44 1   
    38   17   18 ar  
    39   17   45 1   
    40   18   19 ar  
    41   18   21 1   
    42   19   20 ar  
    43   19   46 1   
    44   20   47 1   
    45   21   22 2   
    46   21   25 1   
    47   22   23 1   
    48   23   24 1   
    49   23   48 1   
    50   23   49 1   
    51   24   25 1   
    52   24   50 1   
    53   24   51 1   
@<TRIPOS>SUBSTRUCTURE
     1 W71         1 TEMP              0 ****  ****    0 ROOT
