@<TRIPOS>MOLECULE
W72
   41    41     1     0     0
SMALL
bcc


@<TRIPOS>ATOM
      1 C1         -0.0020    0.3270   -0.0690 c3        1 W72      0.095100
      2 O1         -0.4380    1.6470   -0.3410 oh        1 W72     -0.596800
      3 C2          1.5410    0.2320   -0.0180 c3        1 W72      0.099100
      4 O2          2.0350   -0.6720   -0.9830 oh        1 W72     -0.600800
      5 C3          1.8780   -0.2030    1.4250 c3        1 W72      0.132800
      6 N4          0.6430   -0.5640    2.1120 n3        1 W72     -0.728600
      7 C5         -0.5030   -0.0410    1.3520 c3        1 W72      0.136500
      8 C6         -1.6480   -1.0650    1.2660 c3        1 W72      0.144400
      9 O6         -1.2800   -2.2590    0.6090 oh        1 W72     -0.615800
     10 C7          0.6050   -0.2080    3.5190 c3        1 W72      0.147800
     11 C8          1.6670   -0.9290    4.3770 c3        1 W72      0.149100
     12 O8          1.3790   -2.3110    4.4380 oh        1 W72     -0.600800
     13 C9          1.7000   -0.2670    5.7680 c3        1 W72      0.117100
     14 O9          0.3900   -0.3710    6.3070 oh        1 W72     -0.626800
     15 C10         2.7500   -0.9220    6.6810 c3        1 W72      0.100100
     16 O10         2.1590   -2.1210    7.1670 oh        1 W72     -0.644800
     17 C11         3.1360    0.0070    7.8440 c3        1 W72     -0.030900
     18 O11         2.0030    0.1910    8.6780 oh        1 W72     -0.635800
     19 C12         4.3000   -0.6540    8.6360 c         1 W72      0.894600
     20 O12         5.4760   -0.2800    8.4130 o         1 W72     -0.822800
     21 O13         3.9400   -1.5560    9.4510 o         1 W72     -0.822800
     22 H1         -0.4150   -0.3850   -0.8360 h1        1 W72      0.066700
     23 HO1        -0.1240    1.8600   -1.2280 ho        1 W72      0.401000
     24 H2          2.0230    1.2120   -0.2750 h1        1 W72      0.081700
     25 HO2         1.7100   -1.5520   -0.7480 ho        1 W72      0.411000
     26 H31         2.4320    0.6280    1.9440 h1        1 W72      0.055200
     27 H32         2.5430   -1.1100    1.4180 h1        1 W72      0.055200
     28 H5         -0.9300    0.8920    1.8300 h1        1 W72      0.063700
     29 H61        -2.4740   -0.6340    0.6370 h1        1 W72      0.046700
     30 H62        -2.0320   -1.2910    2.2960 h1        1 W72      0.046700
     31 HO6        -0.5860   -2.6750    1.1380 ho        1 W72      0.422000
     32 H71        -0.4070   -0.5000    3.9190 h1        1 W72      0.045700
     33 H72         0.7330    0.9040    3.6710 h1        1 W72      0.045700
     34 H8          2.6850   -0.8490    3.9030 h1        1 W72      0.055700
     35 HO8         0.9620   -2.4840    5.2950 ho        1 W72      0.430000
     36 H9          1.9460    0.8260    5.6530 h1        1 W72      0.044700
     37 HO9         0.4850   -0.5010    7.2630 ho        1 W72      0.441000
     38 H10         3.6690   -1.1780    6.0860 h1        1 W72      0.057700
     39 HO10        2.6370   -2.3640    7.9800 ho        1 W72      0.452000
     40 H11         3.4200    1.0210    7.4680 h1        1 W72      0.064700
     41 HO11        2.0580   -0.4880    9.3700 ho        1 W72      0.425000
@<TRIPOS>BOND
     1    1    2 1   
     2    1    3 1   
     3    1    7 1   
     4    1   22 1   
     5    2   23 1   
     6    3    4 1   
     7    3    5 1   
     8    3   24 1   
     9    4   25 1   
    10    5    6 1   
    11    5   26 1   
    12    5   27 1   
    13    6    7 1   
    14    6   10 1   
    15    7    8 1   
    16    7   28 1   
    17    8    9 1   
    18    8   29 1   
    19    8   30 1   
    20    9   31 1   
    21   10   11 1   
    22   10   32 1   
    23   10   33 1   
    24   11   12 1   
    25   11   13 1   
    26   11   34 1   
    27   12   35 1   
    28   13   14 1   
    29   13   15 1   
    30   13   36 1   
    31   14   37 1   
    32   15   16 1   
    33   15   17 1   
    34   15   38 1   
    35   16   39 1   
    36   17   18 1   
    37   17   19 1   
    38   17   40 1   
    39   18   41 1   
    40   19   20 1   
    41   19   21 1   
@<TRIPOS>SUBSTRUCTURE
     1 W72         1 TEMP              0 ****  ****    0 ROOT
