@<TRIPOS>MOLECULE
W72
   41    41     1     0     0
SMALL
bcc


@<TRIPOS>ATOM
      1 C1          0.0060    0.3190   -0.0730 c3        1 W72      0.095100
      2 O1         -0.4320    1.6370   -0.3490 oh        1 W72     -0.596800
      3 C2          1.5490    0.2270   -0.0180 c3        1 W72      0.099100
      4 O2          2.0470   -0.6770   -0.9800 oh        1 W72     -0.600800
      5 C3          1.8840   -0.2040    1.4260 c3        1 W72      0.132800
      6 N4          0.6470   -0.5670    2.1110 n3        1 W72     -0.728600
      7 C5         -0.4980   -0.0480    1.3480 c3        1 W72      0.136500
      8 C6         -1.6410   -1.0740    1.2600 c3        1 W72      0.144400
      9 O6         -1.2680   -2.2680    0.6070 oh        1 W72     -0.615800
     10 C7          0.6060   -0.2090    3.5170 c3        1 W72      0.147800
     11 C8          1.6670   -0.9260    4.3790 c3        1 W72      0.149100
     12 O8          1.3830   -2.3090    4.4400 oh        1 W72     -0.600800
     13 C9          1.6940   -0.2630    5.7690 c3        1 W72      0.117100
     14 O9          0.3840   -0.3720    6.3050 oh        1 W72     -0.626800
     15 C10         2.7440   -0.9140    6.6850 c3        1 W72      0.100100
     16 O10         2.1560   -2.1160    7.1700 oh        1 W72     -0.644800
     17 C11         3.1230    0.0160    7.8490 c3        1 W72     -0.030900
     18 O11         1.9880    0.1970    8.6810 oh        1 W72     -0.635800
     19 C12         4.2880   -0.6400    8.6440 c         1 W72      0.894600
     20 O12         5.4630   -0.2620    8.4250 o         1 W72     -0.822800
     21 O13         3.9290   -1.5440    9.4580 o         1 W72     -0.822800
     22 H1         -0.4040   -0.3950   -0.8390 h1        1 W72      0.066700
     23 HO1        -0.1170    1.8500   -1.2350 ho        1 W72      0.401000
     24 H2          2.0290    1.2090   -0.2760 h1        1 W72      0.081700
     25 HO2         1.7240   -1.5570   -0.7440 ho        1 W72      0.411000
     26 H31         2.4340    0.6300    1.9460 h1        1 W72      0.055200
     27 H32         2.5510   -1.1090    1.4230 h1        1 W72      0.055200
     28 H5         -0.9280    0.8850    1.8230 h1        1 W72      0.063700
     29 H61        -2.0270   -1.2990    2.2900 h1        1 W72      0.046700
     30 H62        -2.4650   -0.6460    0.6290 h1        1 W72      0.046700
     31 HO6        -0.5750   -2.6820    1.1380 ho        1 W72      0.422000
     32 H71        -0.4070   -0.5030    3.9150 h1        1 W72      0.045700
     33 H72         0.7300    0.9030    3.6690 h1        1 W72      0.045700
     34 H8          2.6870   -0.8430    3.9080 h1        1 W72      0.055700
     35 HO8         0.9650   -2.4830    5.2960 ho        1 W72      0.430000
     36 H9          1.9370    0.8300    5.6540 h1        1 W72      0.044700
     37 HO9         0.4770   -0.5010    7.2610 ho        1 W72      0.441000
     38 H10         3.6660   -1.1680    6.0930 h1        1 W72      0.057700
     39 HO10        2.6320   -2.3560    7.9850 ho        1 W72      0.452000
     40 H11         3.4050    1.0320    7.4730 h1        1 W72      0.064700
     41 HO11        2.0440   -0.4820    9.3730 ho        1 W72      0.425000
@<TRIPOS>BOND
     1    1    2 1   
     2    1    3 1   
     3    1    7 1   
     4    1   22 1   
     5    2   23 1   
     6    3    4 1   
     7    3    5 1   
     8    3   24 1   
     9    4   25 1   
    10    5    6 1   
    11    5   26 1   
    12    5   27 1   
    13    6    7 1   
    14    6   10 1   
    15    7    8 1   
    16    7   28 1   
    17    8    9 1   
    18    8   29 1   
    19    8   30 1   
    20    9   31 1   
    21   10   11 1   
    22   10   32 1   
    23   10   33 1   
    24   11   12 1   
    25   11   13 1   
    26   11   34 1   
    27   12   35 1   
    28   13   14 1   
    29   13   15 1   
    30   13   36 1   
    31   14   37 1   
    32   15   16 1   
    33   15   17 1   
    34   15   38 1   
    35   16   39 1   
    36   17   18 1   
    37   17   19 1   
    38   17   40 1   
    39   18   41 1   
    40   19   20 1   
    41   19   21 1   
@<TRIPOS>SUBSTRUCTURE
     1 W72         1 TEMP              0 ****  ****    0 ROOT
