@<TRIPOS>MOLECULE
W72
   41    41     1     0     0
SMALL
bcc


@<TRIPOS>ATOM
      1 C1         -4.6060   -0.2640   -0.6750 c3        1 W72      0.095100
      2 O1         -5.1080   -0.0520   -1.9820 oh        1 W72     -0.596800
      3 C2         -3.9630   -1.6630   -0.5280 c3        1 W72      0.099100
      4 O2         -4.6050   -2.4240    0.4720 oh        1 W72     -0.600800
      5 C3         -2.4760   -1.4010   -0.2060 c3        1 W72      0.132800
      6 N4         -2.2910    0.0240    0.0510 n3        1 W72     -0.728600
      7 C5         -3.4630    0.7600   -0.4480 c3        1 W72      0.136500
      8 C6         -3.9140    1.8530    0.5360 c3        1 W72      0.144400
      9 O6         -4.3020    1.3440    1.7950 oh        1 W72     -0.615800
     10 C7         -1.0320    0.5670   -0.4250 c3        1 W72      0.147800
     11 C8          0.2110   -0.0410    0.2600 c3        1 W72      0.149100
     12 O8          0.2460    0.3400    1.6210 oh        1 W72     -0.600800
     13 C9          1.4640    0.4110   -0.5150 c3        1 W72      0.117100
     14 O9          1.4670    1.8310   -0.5050 oh        1 W72     -0.626800
     15 C10         2.7480   -0.1700    0.1000 c3        1 W72      0.100100
     16 O10         3.0470    0.6390    1.2310 oh        1 W72     -0.644800
     17 C11         3.9090   -0.1470   -0.9090 c3        1 W72     -0.030900
     18 O11         4.2340    1.2020   -1.2050 oh        1 W72     -0.635800
     19 C12         5.1260   -0.8790   -0.2750 c         1 W72      0.894600
     20 O12         5.3470   -2.0740   -0.5850 o         1 W72     -0.822800
     21 O13         5.7980   -0.1790    0.5420 o         1 W72     -0.822800
     22 H1         -5.4240   -0.1250    0.0830 h1        1 W72      0.066700
     23 HO1        -5.8200   -0.6910   -2.1080 ho        1 W72      0.401000
     24 H2         -4.0790   -2.2700   -1.4650 h1        1 W72      0.081700
     25 HO2        -4.4570   -1.9770    1.3150 ho        1 W72      0.411000
     26 H31        -2.1700   -1.9570    0.7220 h1        1 W72      0.055200
     27 H32        -1.8390   -1.7700   -1.0570 h1        1 W72      0.055200
     28 H5         -3.2460    1.2730   -1.4330 h1        1 W72      0.063700
     29 H61        -4.8370    2.3490    0.1310 h1        1 W72      0.046700
     30 H62        -3.0960    2.6120    0.6600 h1        1 W72      0.046700
     31 HO6        -3.5220    0.9310    2.1890 ho        1 W72      0.422000
     32 H71        -0.9130    0.4330   -1.5400 h1        1 W72      0.045700
     33 H72        -1.0310    1.6730   -0.2050 h1        1 W72      0.045700
     34 H8          0.1590   -1.1660    0.2580 h1        1 W72      0.055700
     35 HO8         0.8880    1.0600    1.7050 ho        1 W72      0.430000
     36 H9          1.3820    0.0670   -1.5840 h1        1 W72      0.044700
     37 HO9         2.3930    2.1130   -0.4520 ho        1 W72      0.441000
     38 H10         2.5680   -1.2260    0.4390 h1        1 W72      0.057700
     39 HO10        3.9950    0.5220    1.4210 ho        1 W72      0.452000
     40 H11         3.6070   -0.6190   -1.8770 h1        1 W72      0.064700
     41 HO11        4.9360    1.4580   -0.5840 ho        1 W72      0.425000
@<TRIPOS>BOND
     1    1    2 1   
     2    1    3 1   
     3    1    7 1   
     4    1   22 1   
     5    2   23 1   
     6    3    4 1   
     7    3    5 1   
     8    3   24 1   
     9    4   25 1   
    10    5    6 1   
    11    5   26 1   
    12    5   27 1   
    13    6    7 1   
    14    6   10 1   
    15    7    8 1   
    16    7   28 1   
    17    8    9 1   
    18    8   29 1   
    19    8   30 1   
    20    9   31 1   
    21   10   11 1   
    22   10   32 1   
    23   10   33 1   
    24   11   12 1   
    25   11   13 1   
    26   11   34 1   
    27   12   35 1   
    28   13   14 1   
    29   13   15 1   
    30   13   36 1   
    31   14   37 1   
    32   15   16 1   
    33   15   17 1   
    34   15   38 1   
    35   16   39 1   
    36   17   18 1   
    37   17   19 1   
    38   17   40 1   
    39   18   41 1   
    40   19   20 1   
    41   19   21 1   
@<TRIPOS>SUBSTRUCTURE
     1 W72         1 TEMP              0 ****  ****    0 ROOT
