@<TRIPOS>MOLECULE
W72
   41    41     1     0     0
SMALL
bcc


@<TRIPOS>ATOM
      1 C1          0.0250    0.3460   -0.0750 c3        1 W72      0.095100
      2 O1         -0.3890    1.6720   -0.3500 oh        1 W72     -0.596800
      3 C2          1.5670    0.2270   -0.0190 c3        1 W72      0.099100
      4 O2          2.0490   -0.6860   -0.9810 oh        1 W72     -0.600800
      5 C3          1.8920   -0.2110    1.4250 c3        1 W72      0.132800
      6 N4          0.6490   -0.5530    2.1090 n3        1 W72     -0.728600
      7 C5         -0.4860   -0.0120    1.3450 c3        1 W72      0.136500
      8 C6         -1.6470   -1.0170    1.2560 c3        1 W72      0.144400
      9 O6         -1.2960   -2.2180    0.6020 oh        1 W72     -0.615800
     10 C7          0.6130   -0.1950    3.5150 c3        1 W72      0.147800
     11 C8          1.6600   -0.9330    4.3770 c3        1 W72      0.149100
     12 O8          1.3500   -2.3100    4.4370 oh        1 W72     -0.600800
     13 C9          1.6990   -0.2710    5.7680 c3        1 W72      0.117100
     14 O9          0.3860   -0.3550    6.3030 oh        1 W72     -0.626800
     15 C10         2.7350   -0.9430    6.6840 c3        1 W72      0.100100
     16 O10         2.1240   -2.1330    7.1690 oh        1 W72     -0.644800
     17 C11         3.1320   -0.0210    7.8490 c3        1 W72     -0.030900
     18 O11         2.0000    0.1820    8.6800 oh        1 W72     -0.635800
     19 C12         4.2830   -0.6990    8.6450 c         1 W72      0.894600
     20 O12         5.4650   -0.3440    8.4260 o         1 W72     -0.822800
     21 O13         3.9060   -1.5960    9.4580 o         1 W72     -0.822800
     22 H1         -0.3970   -0.3590   -0.8420 h1        1 W72      0.066700
     23 HO1        -0.0690    1.8800   -1.2360 ho        1 W72      0.401000
     24 H2          2.0640    1.2000   -0.2750 h1        1 W72      0.081700
     25 HO2         1.7090   -1.5590   -0.7470 ho        1 W72      0.411000
     26 H31         2.4570    0.6110    1.9460 h1        1 W72      0.055200
     27 H32         2.5430   -1.1290    1.4210 h1        1 W72      0.055200
     28 H5         -0.8990    0.9280    1.8210 h1        1 W72      0.063700
     29 H61        -2.4640   -0.5740    0.6250 h1        1 W72      0.046700
     30 H62        -2.0380   -1.2360    2.2860 h1        1 W72      0.046700
     31 HO6        -0.6110   -2.6440    1.1340 ho        1 W72      0.422000
     32 H71         0.7580    0.9150    3.6680 h1        1 W72      0.045700
     33 H72        -0.4050   -0.4710    3.9130 h1        1 W72      0.045700
     34 H8          2.6810   -0.8690    3.9070 h1        1 W72      0.055700
     35 HO8         0.9270   -2.4760    5.2930 ho        1 W72      0.430000
     36 H9          1.9630    0.8170    5.6540 h1        1 W72      0.044700
     37 HO9         0.4760   -0.4860    7.2590 ho        1 W72      0.441000
     38 H10         3.6520   -1.2140    6.0930 h1        1 W72      0.057700
     39 HO10        2.5950   -2.3820    7.9830 ho        1 W72      0.452000
     40 H11         3.4330    0.9900    7.4740 h1        1 W72      0.064700
     41 HO11        2.0420   -0.4980    9.3710 ho        1 W72      0.425000
@<TRIPOS>BOND
     1    1    2 1   
     2    1    3 1   
     3    1    7 1   
     4    1   22 1   
     5    2   23 1   
     6    3    4 1   
     7    3    5 1   
     8    3   24 1   
     9    4   25 1   
    10    5    6 1   
    11    5   26 1   
    12    5   27 1   
    13    6    7 1   
    14    6   10 1   
    15    7    8 1   
    16    7   28 1   
    17    8    9 1   
    18    8   29 1   
    19    8   30 1   
    20    9   31 1   
    21   10   11 1   
    22   10   32 1   
    23   10   33 1   
    24   11   12 1   
    25   11   13 1   
    26   11   34 1   
    27   12   35 1   
    28   13   14 1   
    29   13   15 1   
    30   13   36 1   
    31   14   37 1   
    32   15   16 1   
    33   15   17 1   
    34   15   38 1   
    35   16   39 1   
    36   17   18 1   
    37   17   19 1   
    38   17   40 1   
    39   18   41 1   
    40   19   20 1   
    41   19   21 1   
@<TRIPOS>SUBSTRUCTURE
     1 W72         1 TEMP              0 ****  ****    0 ROOT
