@<TRIPOS>MOLECULE
W73
   42    45     1     0     0
SMALL
bcc


@<TRIPOS>ATOM
      1 OAJ        -0.0190   -0.6730   -0.3760 o         1 W73     -0.788800
      2 CAI         1.0610   -0.0700   -0.1580 c         1 W73      0.920800
      3 OAK         1.4170    0.4800    0.9110 o         1 W73     -0.788800
      4 C4          2.0430    0.0270   -1.3680 cc        1 W73      0.048400
      5 N3          1.4410    0.2080   -2.6040 n         1 W73     -0.435100
      6 C2          2.1830    0.2770   -3.7890 c         1 W73      0.790500
      7 O2          1.6230    0.4020   -4.9070 o         1 W73     -0.694500
      8 N1          3.5810    0.2230   -3.6940 n         1 W73     -0.590500
      9 C6          4.2480    0.0600   -2.4630 c         1 W73      0.718700
     10 O6          5.4970    0.0320   -2.4910 o         1 W73     -0.680500
     11 C5          3.4100   -0.0560   -1.2660 cd        1 W73     -0.298400
     12 CAL         4.1140   -0.2600    0.0240 c3        1 W73      0.009800
     13 CAM         4.5030    1.0730    0.6480 c3        1 W73     -0.051100
     14 CAN         5.3980    0.9000    1.8270 ca        1 W73     -0.035300
     15 CAS         6.8130    0.6710    1.6510 ca        1 W73     -0.027000
     16 CAU         7.3720    0.5240    0.3590 ca        1 W73     -0.107000
     17 CAT         8.7270    0.3220    0.1930 ca        1 W73     -0.139000
     18 CAW         9.5710    0.2570    1.3140 ca        1 W73     -0.138000
     19 CAV         9.0450    0.3810    2.5840 ca        1 W73     -0.133000
     20 CAR         7.6590    0.5830    2.7860 ca        1 W73     -0.027000
     21 CAQ         7.0950    0.6890    4.1120 ca        1 W73     -0.030000
     22 CBA         7.8790    0.6070    5.2860 ca        1 W73     -0.119000
     23 CAZ         7.3020    0.6990    6.5370 ca        1 W73     -0.147000
     24 CAY         5.9130    0.8770    6.6680 ca        1 W73     -0.139000
     25 CAX         5.1250    0.9640    5.5400 ca        1 W73     -0.117000
     26 CAP         5.6990    0.8750    4.2500 ca        1 W73     -0.021000
     27 CAO         4.8750    0.9830    3.0850 ca        1 W73     -0.134000
     28 H2          4.1030    0.2950   -4.5380 hn        1 W73      0.331500
     29 H4          5.0320   -0.8840   -0.1490 hc        1 W73      0.059200
     30 H5          3.4390   -0.8070    0.7380 hc        1 W73      0.059200
     31 H6          3.5510    1.5900    0.9590 hc        1 W73      0.068200
     32 H7          5.0070    1.7200   -0.1180 hc        1 W73      0.068200
     33 H8          6.7120    0.5520   -0.5290 ha        1 W73      0.178000
     34 H9          9.1490    0.2070   -0.8160 ha        1 W73      0.130000
     35 H10        10.6500    0.1000    1.1740 ha        1 W73      0.118000
     36 H11         9.7210    0.3180    3.4480 ha        1 W73      0.119000
     37 H12         8.9670    0.4660    5.2120 ha        1 W73      0.123000
     38 H13         7.9260    0.6320    7.4400 ha        1 W73      0.118000
     39 H14         5.4660    0.9450    7.6690 ha        1 W73      0.122000
     40 H15         4.0360    1.1010    5.6240 ha        1 W73      0.136000
     41 H16         3.7910    1.1330    3.2260 ha        1 W73      0.157000
     42 H17         0.4450    0.1470   -2.6630 hn        1 W73      0.367500
@<TRIPOS>BOND
     1    1    2 1   
     2    2    3 1   
     3    2    4 1   
     4    4    5 1   
     5    4   11 2   
     6    5    6 1   
     7    5   42 1   
     8    6    7 2   
     9    6    8 1   
    10    8    9 1   
    11    8   28 1   
    12    9   10 2   
    13    9   11 1   
    14   11   12 1   
    15   12   13 1   
    16   12   29 1   
    17   12   30 1   
    18   13   14 1   
    19   13   31 1   
    20   13   32 1   
    21   14   15 ar  
    22   14   27 ar  
    23   15   16 ar  
    24   15   20 ar  
    25   16   17 ar  
    26   16   33 1   
    27   17   18 ar  
    28   17   34 1   
    29   18   19 ar  
    30   18   35 1   
    31   19   20 ar  
    32   19   36 1   
    33   20   21 ar  
    34   21   22 ar  
    35   21   26 ar  
    36   22   23 ar  
    37   22   37 1   
    38   23   24 ar  
    39   23   38 1   
    40   24   25 ar  
    41   24   39 1   
    42   25   26 ar  
    43   25   40 1   
    44   26   27 ar  
    45   27   41 1   
@<TRIPOS>SUBSTRUCTURE
     1 W73         1 TEMP              0 ****  ****    0 ROOT
