@<TRIPOS>MOLECULE
W74
   34    35     1     0     0
SMALL
bcc


@<TRIPOS>ATOM
      1 OAJ         0.1740    0.5910   -0.0210 o         1 W74     -0.793800
      2 CAI         1.3120    0.0640    0.0620 c         1 W74      0.922800
      3 OAK         1.8490   -0.3980    1.0980 o         1 W74     -0.793800
      4 C4          2.1150   -0.0400   -1.2720 cc        1 W74      0.045400
      5 N3          1.3480   -0.2690   -2.4040 n         1 W74     -0.435100
      6 C2          1.9110   -0.3260   -3.6850 c         1 W74      0.791500
      7 O2          1.1990   -0.5000   -4.7060 o         1 W74     -0.693500
      8 N1          3.3030   -0.2020   -3.7970 n         1 W74     -0.592500
      9 C6          4.1350    0.0200   -2.6800 c         1 W74      0.717700
     10 O6          5.3580    0.1380   -2.8980 o         1 W74     -0.668500
     11 C5          3.4780    0.0950   -1.3710 cd        1 W74     -0.295400
     12 CAL         4.3500    0.3260   -0.1930 c3        1 W74      0.011800
     13 CAM         4.8030   -0.9890    0.4280 c3        1 W74     -0.045100
     14 CAN         5.4140   -0.7750    1.7680 ca        1 W74     -0.041300
     15 CAO         6.7920   -0.9180    1.9660 ca        1 W74     -0.124500
     16 CAP         7.3500   -0.7330    3.2290 ca        1 W74     -0.127000
     17 CAQ         6.5070   -0.3930    4.2920 ca        1 W74      0.044100
     18 OAT         7.0970   -0.0670    5.5190 os        1 W74     -0.367900
     19 CAU         7.0050   -1.0100    6.5470 c3        1 W74      0.813700
     20 FAW         7.7170   -0.4840    7.5770 f         1 W74     -0.226633
     21 FAX         5.7270   -1.2080    6.9610 f         1 W74     -0.226633
     22 FAV         7.5460   -2.2110    6.2170 f         1 W74     -0.226633
     23 CAR         5.1250   -0.2450    4.1170 ca        1 W74     -0.127000
     24 CAS         4.5840   -0.4390    2.8500 ca        1 W74     -0.124500
     25 H2          3.6970   -0.2540   -4.7080 hn        1 W74      0.331500
     26 H4          3.7770    0.9100    0.5800 hc        1 W74      0.058700
     27 H5          5.2480    0.9250   -0.5020 hc        1 W74      0.058700
     28 H6          3.8960   -1.6470    0.5490 hc        1 W74      0.064200
     29 H7          5.5240   -1.5010   -0.2600 hc        1 W74      0.064200
     30 H8          7.4420   -1.1760    1.1170 ha        1 W74      0.168500
     31 H9          8.4310   -0.8390    3.3950 ha        1 W74      0.140500
     32 H10         4.4860    0.0150    4.9730 ha        1 W74      0.140500
     33 H11         3.4950   -0.3300    2.6710 ha        1 W74      0.168500
     34 H12         0.3520   -0.2440   -2.3180 hn        1 W74      0.367500
@<TRIPOS>BOND
     1    1    2 1   
     2    2    3 1   
     3    2    4 1   
     4    4    5 1   
     5    4   11 2   
     6    5    6 1   
     7    5   34 1   
     8    6    7 2   
     9    6    8 1   
    10    8    9 1   
    11    8   25 1   
    12    9   10 2   
    13    9   11 1   
    14   11   12 1   
    15   12   13 1   
    16   12   26 1   
    17   12   27 1   
    18   13   14 1   
    19   13   28 1   
    20   13   29 1   
    21   14   15 ar  
    22   14   24 ar  
    23   15   16 ar  
    24   15   30 1   
    25   16   17 ar  
    26   16   31 1   
    27   17   18 1   
    28   17   23 ar  
    29   18   19 1   
    30   19   20 1   
    31   19   21 1   
    32   19   22 1   
    33   23   24 ar  
    34   23   32 1   
    35   24   33 1   
@<TRIPOS>SUBSTRUCTURE
     1 W74         1 TEMP              0 ****  ****    0 ROOT
