@<TRIPOS>MOLECULE
W74
   34    35     1     0     0
SMALL
bcc


@<TRIPOS>ATOM
      1 OAJ         0.1830    0.6170   -0.0320 o         1 W74     -0.793800
      2 CAI         1.3180    0.0840    0.0540 c         1 W74      0.922800
      3 OAK         1.8490   -0.3830    1.0900 o         1 W74     -0.793800
      4 C4          2.1230   -0.0220   -1.2780 cc        1 W74      0.045400
      5 N3          1.3580   -0.2450   -2.4120 n         1 W74     -0.435100
      6 C2          1.9250   -0.3020   -3.6920 c         1 W74      0.791500
      7 O2          1.2160   -0.4700   -4.7150 o         1 W74     -0.693500
      8 N1          3.3180   -0.1850   -3.8000 n         1 W74     -0.592500
      9 C6          4.1480    0.0300   -2.6800 c         1 W74      0.717700
     10 O6          5.3720    0.1420   -2.8950 o         1 W74     -0.668500
     11 C5          3.4880    0.1060   -1.3720 cd        1 W74     -0.295400
     12 CAL         4.3580    0.3300   -0.1920 c3        1 W74      0.011800
     13 CAM         4.8010   -0.9900    0.4280 c3        1 W74     -0.045100
     14 CAN         5.4100   -0.7820    1.7690 ca        1 W74     -0.041300
     15 CAO         6.7860   -0.9320    1.9710 ca        1 W74     -0.124500
     16 CAP         7.3420   -0.7530    3.2370 ca        1 W74     -0.127000
     17 CAQ         6.4970   -0.4110    4.2980 ca        1 W74      0.045100
     18 OAT         7.0860   -0.0920    5.5280 os        1 W74     -0.367900
     19 CAU         6.9860   -1.0360    6.5520 c3        1 W74      0.813700
     20 FAW         7.6990   -0.5170    7.5860 f         1 W74     -0.226633
     21 FAX         5.7060   -1.2270    6.9640 f         1 W74     -0.226633
     22 FAV         7.5210   -2.2400    6.2210 f         1 W74     -0.226633
     23 CAR         5.1170   -0.2560    4.1190 ca        1 W74     -0.127000
     24 CAS         4.5790   -0.4430    2.8500 ca        1 W74     -0.124500
     25 H2          3.7150   -0.2370   -4.7100 hn        1 W74      0.331500
     26 H4          3.7860    0.9150    0.5800 hc        1 W74      0.058700
     27 H5          5.2590    0.9240   -0.4970 hc        1 W74      0.058700
     28 H6          5.5220   -1.5040   -0.2590 hc        1 W74      0.064200
     29 H7          3.8900   -1.6420    0.5450 hc        1 W74      0.064200
     30 H8          7.4380   -1.1920    1.1230 ha        1 W74      0.168500
     31 H9          8.4220   -0.8650    3.4050 ha        1 W74      0.140500
     32 H10         4.4770    0.0050    4.9750 ha        1 W74      0.140500
     33 H11         3.4910   -0.3280    2.6690 ha        1 W74      0.168500
     34 H12         0.3630   -0.2150   -2.3290 hn        1 W74      0.367500
@<TRIPOS>BOND
     1    1    2 1   
     2    2    3 1   
     3    2    4 1   
     4    4    5 1   
     5    4   11 2   
     6    5    6 1   
     7    5   34 1   
     8    6    7 2   
     9    6    8 1   
    10    8    9 1   
    11    8   25 1   
    12    9   10 2   
    13    9   11 1   
    14   11   12 1   
    15   12   13 1   
    16   12   26 1   
    17   12   27 1   
    18   13   14 1   
    19   13   28 1   
    20   13   29 1   
    21   14   15 ar  
    22   14   24 ar  
    23   15   16 ar  
    24   15   30 1   
    25   16   17 ar  
    26   16   31 1   
    27   17   18 1   
    28   17   23 ar  
    29   18   19 1   
    30   19   20 1   
    31   19   21 1   
    32   19   22 1   
    33   23   24 ar  
    34   23   32 1   
    35   24   33 1   
@<TRIPOS>SUBSTRUCTURE
     1 W74         1 TEMP              0 ****  ****    0 ROOT
