@<TRIPOS>MOLECULE
W74
   34    35     1     0     0
SMALL
bcc


@<TRIPOS>ATOM
      1 OAJ         0.1980    0.6860   -0.0250 o         1 W74     -0.793800
      2 CAI         1.3240    0.1330    0.0610 c         1 W74      0.922800
      3 OAK         1.8510   -0.3340    1.1000 o         1 W74     -0.793800
      4 C4          2.1220   -0.0010   -1.2720 cc        1 W74      0.045400
      5 N3          1.3480   -0.2210   -2.4020 ns        1 W74     -0.435100
      6 C2          1.9080   -0.3010   -3.6830 c         1 W74      0.791500
      7 O2          1.1920   -0.4660   -4.7020 o         1 W74     -0.693500
      8 N1          3.3030   -0.2120   -3.7970 ns        1 W74     -0.592500
      9 C6          4.1410   -0.0010   -2.6830 c         1 W74      0.717700
     10 O6          5.3670    0.0860   -2.9030 o         1 W74     -0.668500
     11 C5          3.4880    0.1000   -1.3740 cd        1 W74     -0.295400
     12 CAL         4.3670    0.3190   -0.1990 c3        1 W74      0.011800
     13 CAM         4.7880   -1.0020    0.4320 c3        1 W74     -0.045100
     14 CAN         5.4060   -0.7920    1.7690 ca        1 W74     -0.041300
     15 CAO         6.7800   -0.9660    1.9670 ca        1 W74     -0.124500
     16 CAP         7.3440   -0.7850    3.2290 ca        1 W74     -0.127000
     17 CAQ         6.5110   -0.4160    4.2890 ca        1 W74      0.045100
     18 OAT         7.1100   -0.0950    5.5140 os        1 W74     -0.367900
     19 CAU         6.9950   -1.0260    6.5490 c3        1 W74      0.813700
     20 FAW         7.7220   -0.5100    7.5740 f         1 W74     -0.226633
     21 FAX         5.7140   -1.1880    6.9670 f         1 W74     -0.226633
     22 FAV         7.5060   -2.2430    6.2290 f         1 W74     -0.226633
     23 CAR         5.1320   -0.2360    4.1150 ca        1 W74     -0.127000
     24 CAS         4.5860   -0.4260    2.8500 ca        1 W74     -0.124500
     25 H2          3.6950   -0.2800   -4.7090 hn        1 W74      0.331500
     26 H4          3.8090    0.9230    0.5700 hc        1 W74      0.058700
     27 H5          5.2780    0.8940   -0.5130 hc        1 W74      0.058700
     28 H6          3.8650   -1.6360    0.5590 hc        1 W74      0.064200
     29 H7          5.4960   -1.5360   -0.2520 hc        1 W74      0.064200
     30 H8          7.4230   -1.2470    1.1200 ha        1 W74      0.168500
     31 H9          8.4220   -0.9160    3.3940 ha        1 W74      0.140500
     32 H10         4.5010    0.0460    4.9700 ha        1 W74      0.140500
     33 H11         3.5000   -0.2930    2.6710 ha        1 W74      0.168500
     34 H12         0.3540   -0.1710   -2.3150 hn        1 W74      0.367500
@<TRIPOS>BOND
     1    1    2 1   
     2    2    3 1   
     3    2    4 1   
     4    4    5 1   
     5    4   11 2   
     6    5    6 1   
     7    5   34 1   
     8    6    7 2   
     9    6    8 1   
    10    8    9 1   
    11    8   25 1   
    12    9   10 2   
    13    9   11 1   
    14   11   12 1   
    15   12   13 1   
    16   12   26 1   
    17   12   27 1   
    18   13   14 1   
    19   13   28 1   
    20   13   29 1   
    21   14   15 ar  
    22   14   24 ar  
    23   15   16 ar  
    24   15   30 1   
    25   16   17 ar  
    26   16   31 1   
    27   17   18 1   
    28   17   23 ar  
    29   18   19 1   
    30   19   20 1   
    31   19   21 1   
    32   19   22 1   
    33   23   24 ar  
    34   23   32 1   
    35   24   33 1   
@<TRIPOS>SUBSTRUCTURE
     1 W74         1 TEMP              0 ****  ****    0 ROOT
