@<TRIPOS>MOLECULE
W75
   38    39     1     0     0
SMALL
bcc


@<TRIPOS>ATOM
      1 OAJ         0.1010   -0.0380    0.1490 o         1 W75     -0.791300
      2 CAI         1.3080   -0.3930    0.1630 c         1 W75      0.920800
      3 OAK         1.9270   -0.9070    1.1240 o         1 W75     -0.791300
      4 C4          2.0910   -0.1880   -1.1710 cc        1 W75      0.043400
      5 N3          1.3390   -0.3470   -2.3250 n         1 W75     -0.436100
      6 C2          1.8760   -0.1340   -3.6000 c         1 W75      0.790500
      7 O2          1.1730   -0.2490   -4.6360 o         1 W75     -0.697500
      8 N1          3.2360    0.1940   -3.6930 n         1 W75     -0.592500
      9 C6          4.0540    0.3580   -2.5560 c         1 W75      0.716700
     10 O6          5.2430    0.6780   -2.7570 o         1 W75     -0.668500
     11 C5          3.4230    0.1430   -1.2490 cd        1 W75     -0.292400
     12 CAL         4.2830    0.3080   -0.0520 c3        1 W75      0.009800
     13 CAM         4.9100   -1.0150    0.3660 c3        1 W75     -0.044100
     14 CAN         5.6000   -0.8980    1.6810 ca        1 W75     -0.001300
     15 CAS         6.9960   -0.8950    1.7560 ca        1 W75     -0.179000
     16 CAO         4.8290   -0.8020    2.8450 ca        1 W75     -0.179000
     17 CAP         5.4740   -0.7030    4.0860 ca        1 W75      0.135600
     18 OAU         4.6250   -0.6180    5.1780 os        1 W75     -0.325900
     19 CAW         5.2450   -0.4690    6.4460 c3        1 W75      0.118700
     20 CAQ         6.8720   -0.7000    4.1900 ca        1 W75     -0.289000
     21 CAR         7.6170   -0.7970    3.0090 ca        1 W75      0.135600
     22 OAT         9.0040   -0.8140    2.9720 os        1 W75     -0.325900
     23 CAV         9.6640   -0.6460    4.2160 c3        1 W75      0.118700
     24 H2          3.6140    0.3330   -4.6020 hn        1 W75      0.330500
     25 H4          3.6590    0.6930    0.8020 hc        1 W75      0.059700
     26 H5          5.0910    1.0560   -0.2710 hc        1 W75      0.059700
     27 H6          5.6270   -1.3580   -0.4240 hc        1 W75      0.064700
     28 H7          4.0850   -1.7770    0.4580 hc        1 W75      0.064700
     29 H8          7.6100   -0.9650    0.8480 ha        1 W75      0.174500
     30 H9          3.7240   -0.8050    2.7760 ha        1 W75      0.174500
     31 H10         5.8610    0.4620    6.4830 h1        1 W75      0.033700
     32 H11         5.8740   -1.3600    6.6880 h1        1 W75      0.033700
     33 H12         4.3800   -0.3960    7.1540 h1        1 W75      0.033700
     34 H13         7.3660   -0.6240    5.1650 ha        1 W75      0.127000
     35 H14         9.3860    0.3280    4.6890 h1        1 W75      0.033700
     36 H15         9.4300   -1.4920    4.9070 h1        1 W75      0.033700
     37 H16        10.7500   -0.6530    3.9430 h1        1 W75      0.033700
     38 H17         0.3510   -0.4710   -2.2350 hn        1 W75      0.367500
@<TRIPOS>BOND
     1    1    2 1   
     2    2    3 1   
     3    2    4 1   
     4    4    5 1   
     5    4   11 2   
     6    5    6 1   
     7    5   38 1   
     8    6    7 2   
     9    6    8 1   
    10    8    9 1   
    11    8   24 1   
    12    9   10 2   
    13    9   11 1   
    14   11   12 1   
    15   12   13 1   
    16   12   25 1   
    17   12   26 1   
    18   13   14 1   
    19   13   27 1   
    20   13   28 1   
    21   14   15 ar  
    22   14   16 ar  
    23   15   21 ar  
    24   15   29 1   
    25   16   17 ar  
    26   16   30 1   
    27   17   18 1   
    28   17   20 ar  
    29   18   19 1   
    30   19   31 1   
    31   19   32 1   
    32   19   33 1   
    33   20   21 ar  
    34   20   34 1   
    35   21   22 1   
    36   22   23 1   
    37   23   35 1   
    38   23   36 1   
    39   23   37 1   
@<TRIPOS>SUBSTRUCTURE
     1 W75         1 TEMP              0 ****  ****    0 ROOT
