@<TRIPOS>MOLECULE
W75
   38    39     1     0     0
SMALL
bcc


@<TRIPOS>ATOM
      1 OAJ         0.1010   -0.0350    0.1530 o         1 W75     -0.791300
      2 CAI         1.3070   -0.3910    0.1660 c         1 W75      0.920800
      3 OAK         1.9270   -0.9050    1.1270 o         1 W75     -0.791300
      4 C4          2.0900   -0.1870   -1.1690 cc        1 W75      0.043400
      5 N3          1.3360   -0.3460   -2.3220 ns        1 W75     -0.436100
      6 C2          1.8720   -0.1350   -3.5980 c         1 W75      0.790500
      7 O2          1.1680   -0.2490   -4.6330 o         1 W75     -0.697500
      8 N1          3.2320    0.1920   -3.6920 ns        1 W75     -0.592500
      9 C6          4.0510    0.3560   -2.5560 c         1 W75      0.716700
     10 O6          5.2410    0.6750   -2.7590 o         1 W75     -0.668500
     11 C5          3.4210    0.1420   -1.2480 cd        1 W75     -0.292400
     12 CAL         4.2830    0.3070   -0.0520 c3        1 W75      0.009800
     13 CAM         4.9090   -1.0160    0.3660 c3        1 W75     -0.044100
     14 CAN         5.6000   -0.8990    1.6810 ca        1 W75     -0.001300
     15 CAS         6.9960   -0.8970    1.7540 ca        1 W75     -0.179000
     16 CAO         4.8290   -0.8010    2.8450 ca        1 W75     -0.179000
     17 CAP         5.4760   -0.7020    4.0860 ca        1 W75      0.135600
     18 OAU         4.6280   -0.6160    5.1780 os        1 W75     -0.325900
     19 CAW         5.2480   -0.4640    6.4450 c3        1 W75      0.118700
     20 CAQ         6.8740   -0.7000    4.1890 ca        1 W75     -0.289000
     21 CAR         7.6170   -0.7990    3.0080 ca        1 W75      0.135600
     22 OAT         9.0050   -0.8170    2.9700 os        1 W75     -0.325900
     23 CAV         9.6660   -0.6480    4.2130 c3        1 W75      0.118700
     24 H2          3.6100    0.3310   -4.6020 hn        1 W75      0.330500
     25 H4          3.6600    0.6930    0.8020 hc        1 W75      0.059700
     26 H5          5.0920    1.0540   -0.2720 hc        1 W75      0.059700
     27 H6          4.0840   -1.7770    0.4590 hc        1 W75      0.064700
     28 H7          5.6260   -1.3600   -0.4240 hc        1 W75      0.064700
     29 H8          7.6090   -0.9680    0.8460 ha        1 W75      0.174500
     30 H9          3.7250   -0.8040    2.7760 ha        1 W75      0.174500
     31 H10         5.8640    0.4670    6.4800 h1        1 W75      0.033700
     32 H11         4.3840   -0.3890    7.1530 h1        1 W75      0.033700
     33 H12         5.8770   -1.3550    6.6890 h1        1 W75      0.033700
     34 H13         7.3680   -0.6250    5.1630 ha        1 W75      0.127000
     35 H14         9.4310   -1.4940    4.9050 h1        1 W75      0.033700
     36 H15         9.3890    0.3260    4.6850 h1        1 W75      0.033700
     37 H16        10.7520   -0.6560    3.9390 h1        1 W75      0.033700
     38 H17         0.3480   -0.4690   -2.2310 hn        1 W75      0.367500
@<TRIPOS>BOND
     1    1    2 1   
     2    2    3 1   
     3    2    4 1   
     4    4    5 1   
     5    4   11 2   
     6    5    6 1   
     7    5   38 1   
     8    6    7 2   
     9    6    8 1   
    10    8    9 1   
    11    8   24 1   
    12    9   10 2   
    13    9   11 1   
    14   11   12 1   
    15   12   13 1   
    16   12   25 1   
    17   12   26 1   
    18   13   14 1   
    19   13   27 1   
    20   13   28 1   
    21   14   15 ar  
    22   14   16 ar  
    23   15   21 ar  
    24   15   29 1   
    25   16   17 ar  
    26   16   30 1   
    27   17   18 1   
    28   17   20 ar  
    29   18   19 1   
    30   19   31 1   
    31   19   32 1   
    32   19   33 1   
    33   20   21 ar  
    34   20   34 1   
    35   21   22 1   
    36   22   23 1   
    37   23   35 1   
    38   23   36 1   
    39   23   37 1   
@<TRIPOS>SUBSTRUCTURE
     1 W75         1 TEMP              0 ****  ****    0 ROOT
