@<TRIPOS>MOLECULE
W75
   38    39     1     0     0
SMALL
bcc


@<TRIPOS>ATOM
      1 OAJ         0.1000   -0.0410    0.1540 o         1 W75     -0.791300
      2 CAI         1.3070   -0.3960    0.1670 c         1 W75      0.920800
      3 OAK         1.9280   -0.9090    1.1270 o         1 W75     -0.791300
      4 C4          2.0890   -0.1890   -1.1680 cc        1 W75      0.043400
      5 N3          1.3350   -0.3480   -2.3210 n         1 W75     -0.436100
      6 C2          1.8710   -0.1350   -3.5970 c         1 W75      0.790500
      7 O2          1.1670   -0.2490   -4.6320 o         1 W75     -0.697500
      8 N1          3.2300    0.1940   -3.6920 n         1 W75     -0.592500
      9 C6          4.0490    0.3590   -2.5550 c         1 W75      0.716700
     10 O6          5.2390    0.6800   -2.7580 o         1 W75     -0.668500
     11 C5          3.4200    0.1430   -1.2480 cd        1 W75     -0.292400
     12 CAL         4.2820    0.3080   -0.0510 c3        1 W75      0.009800
     13 CAM         4.9100   -1.0150    0.3660 c3        1 W75     -0.044100
     14 CAN         5.6000   -0.8980    1.6800 ca        1 W75     -0.001300
     15 CAS         6.9970   -0.8950    1.7540 ca        1 W75     -0.179000
     16 CAO         4.8300   -0.8020    2.8450 ca        1 W75     -0.179000
     17 CAP         5.4770   -0.7030    4.0850 ca        1 W75      0.135600
     18 OAU         4.6290   -0.6190    5.1780 os        1 W75     -0.325900
     19 CAW         5.2490   -0.4680    6.4450 c3        1 W75      0.118700
     20 CAQ         6.8750   -0.7000    4.1880 ca        1 W75     -0.289000
     21 CAR         7.6180   -0.7970    3.0070 ca        1 W75      0.135600
     22 OAT         9.0050   -0.8130    2.9680 os        1 W75     -0.325900
     23 CAV         9.6670   -0.6450    4.2120 c3        1 W75      0.118700
     24 H2          3.6070    0.3350   -4.6010 hn        1 W75      0.330500
     25 H4          3.6580    0.6920    0.8030 hc        1 W75      0.059700
     26 H5          5.0890    1.0560   -0.2710 hc        1 W75      0.059700
     27 H6          4.0850   -1.7770    0.4580 hc        1 W75      0.064700
     28 H7          5.6270   -1.3570   -0.4250 hc        1 W75      0.064700
     29 H8          7.6100   -0.9640    0.8450 ha        1 W75      0.174500
     30 H9          3.7260   -0.8060    2.7760 ha        1 W75      0.174500
     31 H10         5.8650    0.4640    6.4810 h1        1 W75      0.033700
     32 H11         4.3850   -0.3940    7.1530 h1        1 W75      0.033700
     33 H12         5.8790   -1.3580    6.6880 h1        1 W75      0.033700
     34 H13         7.3690   -0.6240    5.1630 ha        1 W75      0.127000
     35 H14         9.4340   -1.4920    4.9030 h1        1 W75      0.033700
     36 H15         9.3890    0.3290    4.6850 h1        1 W75      0.033700
     37 H16        10.7520   -0.6510    3.9380 h1        1 W75      0.033700
     38 H17         0.3470   -0.4730   -2.2300 hn        1 W75      0.367500
@<TRIPOS>BOND
     1    1    2 1   
     2    2    3 1   
     3    2    4 1   
     4    4    5 1   
     5    4   11 2   
     6    5    6 1   
     7    5   38 1   
     8    6    7 2   
     9    6    8 1   
    10    8    9 1   
    11    8   24 1   
    12    9   10 2   
    13    9   11 1   
    14   11   12 1   
    15   12   13 1   
    16   12   25 1   
    17   12   26 1   
    18   13   14 1   
    19   13   27 1   
    20   13   28 1   
    21   14   15 ar  
    22   14   16 ar  
    23   15   21 ar  
    24   15   29 1   
    25   16   17 ar  
    26   16   30 1   
    27   17   18 1   
    28   17   20 ar  
    29   18   19 1   
    30   19   31 1   
    31   19   32 1   
    32   19   33 1   
    33   20   21 ar  
    34   20   34 1   
    35   21   22 1   
    36   22   23 1   
    37   23   35 1   
    38   23   36 1   
    39   23   37 1   
@<TRIPOS>SUBSTRUCTURE
     1 W75         1 TEMP              0 ****  ****    0 ROOT
