@<TRIPOS>MOLECULE
W76
   34    35     1     0     0
SMALL
bcc


@<TRIPOS>ATOM
      1 OAJ         0.1230    0.1410    0.1470 o         1 W76     -0.790800
      2 CAI         1.3090   -0.2770    0.1670 c         1 W76      0.920800
      3 OAK         1.8990   -0.8160    1.1330 o         1 W76     -0.790800
      4 C4          2.1060   -0.1220   -1.1670 cc        1 W76      0.042400
      5 N3          1.3470   -0.2460   -2.3220 n         1 W76     -0.435100
      6 C2          1.8970   -0.0710   -3.5970 c         1 W76      0.790500
      7 O2          1.1910   -0.1520   -4.6330 o         1 W76     -0.697500
      8 N1          3.2740    0.1800   -3.6890 n         1 W76     -0.592500
      9 C6          4.0980    0.3050   -2.5510 c         1 W76      0.716700
     10 O6          5.3040    0.5550   -2.7520 o         1 W76     -0.669500
     11 C5          3.4530    0.1340   -1.2450 cd        1 W76     -0.292400
     12 CAL         4.3190    0.2580   -0.0460 c3        1 W76      0.009800
     13 CAM         4.8700   -1.0950    0.3810 c3        1 W76     -0.043100
     14 CAN         5.5810   -1.0040    1.6860 ca        1 W76     -0.029300
     15 CAS         4.8360   -0.8780    2.8610 ca        1 W76     -0.139000
     16 CAO         6.9810   -1.0540    1.7480 ca        1 W76     -0.167000
     17 CAP         7.6320   -0.9790    2.9750 ca        1 W76     -0.114000
     18 CAQ         6.9050   -0.8540    4.1600 ca        1 W76     -0.223000
     19 CAR         5.5080   -0.8030    4.0930 ca        1 W76      0.108100
     20 OAT         4.6820   -0.6890    5.2000 os        1 W76     -0.321900
     21 CAU         5.3350   -0.5380    6.4510 c3        1 W76      0.117700
     22 H2          3.6600    0.2930   -4.5980 hn        1 W76      0.330500
     23 H4          3.7160    0.6820    0.8040 hc        1 W76      0.058700
     24 H5          5.1680    0.9580   -0.2690 hc        1 W76      0.058700
     25 H6          5.5580   -1.4890   -0.4120 hc        1 W76      0.062700
     26 H7          4.0020   -1.8050    0.4870 hc        1 W76      0.062700
     27 H8          3.7310   -0.8360    2.8120 ha        1 W76      0.198000
     28 H9          7.5630   -1.1480    0.8200 ha        1 W76      0.129000
     29 H10         8.7300   -1.0170    3.0180 ha        1 W76      0.114000
     30 H11         7.4320   -0.7960    5.1200 ha        1 W76      0.119000
     31 H12         5.9420   -1.4440    6.6940 h1        1 W76      0.033367
     32 H13         5.9820    0.3730    6.4580 h1        1 W76      0.033367
     33 H14         4.4910   -0.4260    7.1780 h1        1 W76      0.033367
     34 H15         0.3530   -0.3150   -2.2320 hn        1 W76      0.367500
@<TRIPOS>BOND
     1    1    2 1   
     2    2    3 1   
     3    2    4 1   
     4    4    5 1   
     5    4   11 2   
     6    5    6 1   
     7    5   34 1   
     8    6    7 2   
     9    6    8 1   
    10    8    9 1   
    11    8   22 1   
    12    9   10 2   
    13    9   11 1   
    14   11   12 1   
    15   12   13 1   
    16   12   23 1   
    17   12   24 1   
    18   13   14 1   
    19   13   25 1   
    20   13   26 1   
    21   14   15 ar  
    22   14   16 ar  
    23   15   19 ar  
    24   15   27 1   
    25   16   17 ar  
    26   16   28 1   
    27   17   18 ar  
    28   17   29 1   
    29   18   19 ar  
    30   18   30 1   
    31   19   20 1   
    32   20   21 1   
    33   21   31 1   
    34   21   32 1   
    35   21   33 1   
@<TRIPOS>SUBSTRUCTURE
     1 W76         1 TEMP              0 ****  ****    0 ROOT
