@<TRIPOS>MOLECULE
W76
   34    35     1     0     0
SMALL
bcc


@<TRIPOS>ATOM
      1 OAJ         0.1210    0.1240    0.1480 o         1 W76     -0.790800
      2 CAI         1.3090   -0.2890    0.1670 c         1 W76      0.920800
      3 OAK         1.9010   -0.8270    1.1320 o         1 W76     -0.790800
      4 C4          2.1040   -0.1290   -1.1670 cc        1 W76      0.042400
      5 N3          1.3460   -0.2540   -2.3210 n         1 W76     -0.435100
      6 C2          1.8960   -0.0740   -3.5960 c         1 W76      0.790500
      7 O2          1.1900   -0.1570   -4.6330 o         1 W76     -0.697500
      8 N1          3.2710    0.1830   -3.6880 n         1 W76     -0.592500
      9 C6          4.0940    0.3090   -2.5500 c         1 W76      0.716700
     10 O6          5.3000    0.5650   -2.7500 o         1 W76     -0.669500
     11 C5          3.4510    0.1340   -1.2440 cd        1 W76     -0.292400
     12 CAL         4.3160    0.2590   -0.0450 c3        1 W76      0.009800
     13 CAM         4.8730   -1.0930    0.3800 c3        1 W76     -0.043100
     14 CAN         5.5830   -1.0010    1.6850 ca        1 W76     -0.029300
     15 CAS         4.8370   -0.8790    2.8600 ca        1 W76     -0.139000
     16 CAO         6.9840   -1.0440    1.7470 ca        1 W76     -0.167000
     17 CAP         7.6340   -0.9680    2.9740 ca        1 W76     -0.114000
     18 CAQ         6.9070   -0.8480    4.1590 ca        1 W76     -0.223000
     19 CAR         5.5100   -0.8040    4.0920 ca        1 W76      0.108100
     20 OAT         4.6830   -0.6950    5.2000 os        1 W76     -0.321900
     21 CAU         5.3350   -0.5420    6.4500 c3        1 W76      0.117700
     22 H2          3.6570    0.2990   -4.5970 hn        1 W76      0.330500
     23 H4          3.7120    0.6790    0.8060 hc        1 W76      0.058700
     24 H5          5.1620    0.9630   -0.2660 hc        1 W76      0.058700
     25 H6          4.0080   -1.8060    0.4850 hc        1 W76      0.062700
     26 H7          5.5620   -1.4820   -0.4140 hc        1 W76      0.062700
     27 H8          3.7330   -0.8420    2.8120 ha        1 W76      0.198000
     28 H9          7.5660   -1.1340    0.8190 ha        1 W76      0.129000
     29 H10         8.7320   -1.0020    3.0170 ha        1 W76      0.114000
     30 H11         7.4340   -0.7900    5.1190 ha        1 W76      0.119000
     31 H12         5.9770    0.3730    6.4580 h1        1 W76      0.033367
     32 H13         5.9460   -1.4450    6.6930 h1        1 W76      0.033367
     33 H14         4.4900   -0.4340    7.1770 h1        1 W76      0.033367
     34 H15         0.3530   -0.3270   -2.2320 hn        1 W76      0.367500
@<TRIPOS>BOND
     1    1    2 1   
     2    2    3 1   
     3    2    4 1   
     4    4    5 1   
     5    4   11 2   
     6    5    6 1   
     7    5   34 1   
     8    6    7 2   
     9    6    8 1   
    10    8    9 1   
    11    8   22 1   
    12    9   10 2   
    13    9   11 1   
    14   11   12 1   
    15   12   13 1   
    16   12   23 1   
    17   12   24 1   
    18   13   14 1   
    19   13   25 1   
    20   13   26 1   
    21   14   15 ar  
    22   14   16 ar  
    23   15   19 ar  
    24   15   27 1   
    25   16   17 ar  
    26   16   28 1   
    27   17   18 ar  
    28   17   29 1   
    29   18   19 ar  
    30   18   30 1   
    31   19   20 1   
    32   20   21 1   
    33   21   31 1   
    34   21   32 1   
    35   21   33 1   
@<TRIPOS>SUBSTRUCTURE
     1 W76         1 TEMP              0 ****  ****    0 ROOT
