@<TRIPOS>MOLECULE
W76
   34    35     1     0     0
SMALL
bcc


@<TRIPOS>ATOM
      1 OAJ         0.1180    0.1080    0.1510 o         1 W76     -0.790800
      2 CAI         1.3080   -0.3010    0.1690 c         1 W76      0.920800
      3 OAK         1.9020   -0.8360    1.1340 o         1 W76     -0.790800
      4 C4          2.1020   -0.1380   -1.1650 cc        1 W76      0.042400
      5 N3          1.3430   -0.2680   -2.3190 ns        1 W76     -0.435100
      6 C2          1.8910   -0.0870   -3.5950 c         1 W76      0.790500
      7 O2          1.1850   -0.1730   -4.6300 o         1 W76     -0.697500
      8 N1          3.2650    0.1750   -3.6880 ns        1 W76     -0.592500
      9 C6          4.0890    0.3060   -2.5500 c         1 W76      0.716700
     10 O6          5.2930    0.5660   -2.7520 o         1 W76     -0.669500
     11 C5          3.4470    0.1290   -1.2430 cd        1 W76     -0.292400
     12 CAL         4.3130    0.2590   -0.0460 c3        1 W76      0.009800
     13 CAM         4.8750   -1.0910    0.3800 c3        1 W76     -0.043100
     14 CAN         5.5860   -0.9960    1.6840 ca        1 W76     -0.029300
     15 CAS         4.8400   -0.8760    2.8600 ca        1 W76     -0.139000
     16 CAO         6.9870   -1.0340    1.7460 ca        1 W76     -0.167000
     17 CAP         7.6370   -0.9550    2.9720 ca        1 W76     -0.114000
     18 CAQ         6.9100   -0.8370    4.1570 ca        1 W76     -0.223000
     19 CAR         5.5130   -0.7970    4.0910 ca        1 W76      0.108100
     20 OAT         4.6870   -0.6900    5.2000 os        1 W76     -0.321900
     21 CAU         5.3390   -0.5350    6.4500 c3        1 W76      0.117700
     22 H2          3.6500    0.2920   -4.5970 hn        1 W76      0.330500
     23 H4          3.7070    0.6770    0.8050 hc        1 W76      0.058700
     24 H5          5.1560    0.9650   -0.2680 hc        1 W76      0.058700
     25 H6          5.5650   -1.4780   -0.4140 hc        1 W76      0.062700
     26 H7          4.0130   -1.8080    0.4860 hc        1 W76      0.062700
     27 H8          3.7360   -0.8430    2.8120 ha        1 W76      0.198000
     28 H9          7.5680   -1.1220    0.8170 ha        1 W76      0.129000
     29 H10         8.7360   -0.9840    3.0140 ha        1 W76      0.114000
     30 H11         7.4380   -0.7760    5.1170 ha        1 W76      0.119000
     31 H12         5.9540   -1.4360    6.6920 h1        1 W76      0.033367
     32 H13         5.9790    0.3810    6.4570 h1        1 W76      0.033367
     33 H14         4.4950   -0.4300    7.1770 h1        1 W76      0.033367
     34 H15         0.3500   -0.3440   -2.2290 hn        1 W76      0.367500
@<TRIPOS>BOND
     1    1    2 1   
     2    2    3 1   
     3    2    4 1   
     4    4    5 1   
     5    4   11 2   
     6    5    6 1   
     7    5   34 1   
     8    6    7 2   
     9    6    8 1   
    10    8    9 1   
    11    8   22 1   
    12    9   10 2   
    13    9   11 1   
    14   11   12 1   
    15   12   13 1   
    16   12   23 1   
    17   12   24 1   
    18   13   14 1   
    19   13   25 1   
    20   13   26 1   
    21   14   15 ar  
    22   14   16 ar  
    23   15   19 ar  
    24   15   27 1   
    25   16   17 ar  
    26   16   28 1   
    27   17   18 ar  
    28   17   29 1   
    29   18   19 ar  
    30   18   30 1   
    31   19   20 1   
    32   20   21 1   
    33   21   31 1   
    34   21   32 1   
    35   21   33 1   
@<TRIPOS>SUBSTRUCTURE
     1 W76         1 TEMP              0 ****  ****    0 ROOT
