@<TRIPOS>MOLECULE
W7A
   40    42     1     0     0
SMALL
bcc


@<TRIPOS>ATOM
      1 OAJ         0.2810    0.6650    0.2190 o         1 W7A     -0.793300
      2 CAI         1.4020    0.0960    0.2220 c         1 W7A      0.921800
      3 OAK         1.9780   -0.4160    1.2100 o         1 W7A     -0.793300
      4 C4          2.1220    0.0060   -1.1600 cc        1 W7A      0.044400
      5 N3          1.2810   -0.1600   -2.2500 n         1 W7A     -0.436100
      6 C2          1.7640   -0.1930   -3.5640 c         1 W7A      0.791500
      7 O2          0.9880   -0.3090   -4.5450 o         1 W7A     -0.695500
      8 N1          3.1510   -0.1140   -3.7560 n         1 W7A     -0.592500
      9 C6          4.0550    0.0430   -2.6850 c         1 W7A      0.716700
     10 O6          5.2660    0.1300   -2.9750 o         1 W7A     -0.668500
     11 C5          3.4810    0.0960   -1.3360 cd        1 W7A     -0.292400
     12 CAL         4.4310    0.2550   -0.2070 c3        1 W7A      0.009800
     13 CAM         4.8860   -1.0960    0.3290 c3        1 W7A     -0.042100
     14 CAN         5.5940   -0.9540    1.6300 ca        1 W7A     -0.047300
     15 CAS         6.9740   -1.1550    1.7360 ca        1 W7A     -0.132500
     16 CAR         7.6130   -1.0320    2.9680 ca        1 W7A     -0.124000
     17 CAO         4.8590   -0.6250    2.7790 ca        1 W7A     -0.132500
     18 CAP         5.4970   -0.5040    4.0080 ca        1 W7A     -0.124000
     19 CAQ         6.8820   -0.7070    4.1180 cp        1 W7A     -0.075000
     20 CAT         7.5500   -0.5820    5.4110 cp        1 W7A     -0.008000
     21 CAU         8.8180    0.0120    5.5050 ca        1 W7A     -0.126000
     22 CAY         9.4530    0.1280    6.7390 ca        1 W7A     -0.134500
     23 CAX         8.8340   -0.3460    7.8950 ca        1 W7A     -0.145000
     24 CAW         7.5740   -0.9380    7.8110 ca        1 W7A     -0.134500
     25 CAV         6.9350   -1.0560    6.5800 ca        1 W7A     -0.126000
     26 H2          3.4880   -0.1490   -4.6910 hn        1 W7A      0.330500
     27 H4          3.9230    0.8190    0.6240 hc        1 W7A      0.058700
     28 H5          5.3230    0.8450   -0.5480 hc        1 W7A      0.058700
     29 H6          3.9720   -1.7350    0.4860 hc        1 W7A      0.060200
     30 H7          5.5450   -1.5980   -0.4270 hc        1 W7A      0.060200
     31 H8          7.5590   -1.4110    0.8400 ha        1 W7A      0.160500
     32 H9          8.6970   -1.1990    3.0390 ha        1 W7A      0.122500
     33 H10         3.7670   -0.4650    2.6820 ha        1 W7A      0.160500
     34 H11         4.9120   -0.2390    4.9020 ha        1 W7A      0.122500
     35 H12         9.3060    0.3950    4.5960 ha        1 W7A      0.137000
     36 H13        10.4450    0.5990    6.8010 ha        1 W7A      0.122500
     37 H14         9.3360   -0.2530    8.8680 ha        1 W7A      0.120000
     38 H15         7.0820   -1.3130    8.7200 ha        1 W7A      0.122500
     39 H16         5.9420   -1.5260    6.5160 ha        1 W7A      0.137000
     40 H17         0.2940   -0.1010   -2.1030 hn        1 W7A      0.366500
@<TRIPOS>BOND
     1    1    2 1   
     2    2    3 1   
     3    2    4 1   
     4    4    5 1   
     5    4   11 2   
     6    5    6 1   
     7    5   40 1   
     8    6    7 2   
     9    6    8 1   
    10    8    9 1   
    11    8   26 1   
    12    9   10 2   
    13    9   11 1   
    14   11   12 1   
    15   12   13 1   
    16   12   27 1   
    17   12   28 1   
    18   13   14 1   
    19   13   29 1   
    20   13   30 1   
    21   14   15 ar  
    22   14   17 ar  
    23   15   16 ar  
    24   15   31 1   
    25   16   19 ar  
    26   16   32 1   
    27   17   18 ar  
    28   17   33 1   
    29   18   19 ar  
    30   18   34 1   
    31   19   20 1   
    32   20   21 ar  
    33   20   25 ar  
    34   21   22 ar  
    35   21   35 1   
    36   22   23 ar  
    37   22   36 1   
    38   23   24 ar  
    39   23   37 1   
    40   24   25 ar  
    41   24   38 1   
    42   25   39 1   
@<TRIPOS>SUBSTRUCTURE
     1 W7A         1 TEMP              0 ****  ****    0 ROOT
