@<TRIPOS>MOLECULE
W7A
   40    42     1     0     0
SMALL
bcc


@<TRIPOS>ATOM
      1 OAJ         0.2750    0.6470    0.2230 o         1 W7A     -0.793300
      2 CAI         1.3990    0.0840    0.2230 c         1 W7A      0.921800
      3 OAK         1.9780   -0.4290    1.2100 o         1 W7A     -0.793300
      4 C4          2.1200    0.0030   -1.1580 cc        1 W7A      0.044400
      5 N3          1.2800   -0.1630   -2.2490 n         1 W7A     -0.436100
      6 C2          1.7630   -0.1880   -3.5630 c         1 W7A      0.791500
      7 O2          0.9870   -0.3040   -4.5450 o         1 W7A     -0.695500
      8 N1          3.1500   -0.1020   -3.7550 n         1 W7A     -0.592500
      9 C6          4.0530    0.0560   -2.6830 c         1 W7A      0.716700
     10 O6          5.2630    0.1490   -2.9730 o         1 W7A     -0.668500
     11 C5          3.4790    0.1000   -1.3340 cd        1 W7A     -0.292400
     12 CAL         4.4270    0.2590   -0.2050 c3        1 W7A      0.009800
     13 CAM         4.8890   -1.0920    0.3270 c3        1 W7A     -0.042100
     14 CAN         5.5960   -0.9520    1.6280 ca        1 W7A     -0.047300
     15 CAS         6.9770   -1.1470    1.7330 ca        1 W7A     -0.132500
     16 CAR         7.6160   -1.0250    2.9650 ca        1 W7A     -0.124000
     17 CAO         4.8600   -0.6300    2.7780 ca        1 W7A     -0.132500
     18 CAP         5.4970   -0.5110    4.0080 ca        1 W7A     -0.124000
     19 CAQ         6.8830   -0.7080    4.1170 cp        1 W7A     -0.075000
     20 CAT         7.5510   -0.5850    5.4100 cp        1 W7A     -0.008000
     21 CAU         8.8160    0.0150    5.5060 ca        1 W7A     -0.126000
     22 CAY         9.4510    0.1290    6.7410 ca        1 W7A     -0.134500
     23 CAX         8.8350   -0.3520    7.8950 ca        1 W7A     -0.145000
     24 CAW         7.5770   -0.9490    7.8090 ca        1 W7A     -0.134500
     25 CAV         6.9380   -1.0650    6.5770 ca        1 W7A     -0.126000
     26 H2          3.4870   -0.1310   -4.6900 hn        1 W7A      0.330500
     27 H4          3.9170    0.8170    0.6280 hc        1 W7A      0.058700
     28 H5          5.3160    0.8540   -0.5430 hc        1 W7A      0.058700
     29 H6          5.5500   -1.5880   -0.4310 hc        1 W7A      0.060200
     30 H7          3.9780   -1.7350    0.4810 hc        1 W7A      0.060200
     31 H8          7.5630   -1.3970    0.8360 ha        1 W7A      0.160500
     32 H9          8.7010   -1.1880    3.0360 ha        1 W7A      0.122500
     33 H10         3.7670   -0.4750    2.6820 ha        1 W7A      0.160500
     34 H11         4.9120   -0.2510    4.9020 ha        1 W7A      0.122500
     35 H12         9.3030    0.4030    4.5990 ha        1 W7A      0.137000
     36 H13        10.4410    0.6040    6.8040 ha        1 W7A      0.122500
     37 H14         9.3370   -0.2610    8.8680 ha        1 W7A      0.120000
     38 H15         7.0870   -1.3300    8.7170 ha        1 W7A      0.122500
     39 H16         5.9470   -1.5400    6.5130 ha        1 W7A      0.137000
     40 H17         0.2920   -0.1100   -2.1030 hn        1 W7A      0.366500
@<TRIPOS>BOND
     1    1    2 1   
     2    2    3 1   
     3    2    4 1   
     4    4    5 1   
     5    4   11 2   
     6    5    6 1   
     7    5   40 1   
     8    6    7 2   
     9    6    8 1   
    10    8    9 1   
    11    8   26 1   
    12    9   10 2   
    13    9   11 1   
    14   11   12 1   
    15   12   13 1   
    16   12   27 1   
    17   12   28 1   
    18   13   14 1   
    19   13   29 1   
    20   13   30 1   
    21   14   15 ar  
    22   14   17 ar  
    23   15   16 ar  
    24   15   31 1   
    25   16   19 ar  
    26   16   32 1   
    27   17   18 ar  
    28   17   33 1   
    29   18   19 ar  
    30   18   34 1   
    31   19   20 1   
    32   20   21 ar  
    33   20   25 ar  
    34   21   22 ar  
    35   21   35 1   
    36   22   23 ar  
    37   22   36 1   
    38   23   24 ar  
    39   23   37 1   
    40   24   25 ar  
    41   24   38 1   
    42   25   39 1   
@<TRIPOS>SUBSTRUCTURE
     1 W7A         1 TEMP              0 ****  ****    0 ROOT
