@<TRIPOS>MOLECULE
W7A
   40    42     1     0     0
SMALL
bcc


@<TRIPOS>ATOM
      1 OAJ         0.2790    0.6560    0.2170 o         1 W7A     -0.793300
      2 CAI         1.4020    0.0900    0.2190 c         1 W7A      0.921800
      3 OAK         1.9790   -0.4230    1.2070 o         1 W7A     -0.793300
      4 C4          2.1230    0.0050   -1.1610 cc        1 W7A      0.044400
      5 N3          1.2840   -0.1600   -2.2530 ns        1 W7A     -0.436100
      6 C2          1.7680   -0.1890   -3.5670 c         1 W7A      0.791500
      7 O2          0.9930   -0.3040   -4.5480 o         1 W7A     -0.695500
      8 N1          3.1550   -0.1050   -3.7570 ns        1 W7A     -0.592500
      9 C6          4.0580    0.0520   -2.6850 c         1 W7A      0.716700
     10 O6          5.2690    0.1420   -2.9740 o         1 W7A     -0.668500
     11 C5          3.4830    0.0990   -1.3370 cd        1 W7A     -0.292400
     12 CAL         4.4310    0.2580   -0.2060 c3        1 W7A      0.009800
     13 CAM         4.8890   -1.0930    0.3270 c3        1 W7A     -0.042100
     14 CAN         5.5960   -0.9530    1.6290 ca        1 W7A     -0.047300
     15 CAS         6.9760   -1.1510    1.7360 ca        1 W7A     -0.132500
     16 CAR         7.6130   -1.0290    2.9680 ca        1 W7A     -0.124000
     17 CAO         4.8590   -0.6280    2.7780 ca        1 W7A     -0.132500
     18 CAP         5.4950   -0.5090    4.0080 ca        1 W7A     -0.124000
     19 CAQ         6.8810   -0.7080    4.1180 cp        1 W7A     -0.075000
     20 CAT         7.5480   -0.5850    5.4120 cp        1 W7A     -0.008000
     21 CAU         8.8140    0.0120    5.5090 ca        1 W7A     -0.126000
     22 CAY         9.4480    0.1270    6.7440 ca        1 W7A     -0.134500
     23 CAX         8.8290   -0.3510    7.8980 ca        1 W7A     -0.145000
     24 CAW         7.5710   -0.9460    7.8120 ca        1 W7A     -0.134500
     25 CAV         6.9330   -1.0620    6.5790 ca        1 W7A     -0.126000
     26 H2          3.4930   -0.1370   -4.6920 hn        1 W7A      0.330500
     27 H4          3.9210    0.8190    0.6250 hc        1 W7A      0.058700
     28 H5          5.3220    0.8500   -0.5450 hc        1 W7A      0.058700
     29 H6          3.9760   -1.7340    0.4820 hc        1 W7A      0.060200
     30 H7          5.5490   -1.5920   -0.4300 hc        1 W7A      0.060200
     31 H8          7.5620   -1.4040    0.8400 ha        1 W7A      0.160500
     32 H9          8.6980   -1.1930    3.0400 ha        1 W7A      0.122500
     33 H10         3.7660   -0.4710    2.6810 ha        1 W7A      0.160500
     34 H11         4.9100   -0.2470    4.9020 ha        1 W7A      0.122500
     35 H12         9.3020    0.3980    4.6010 ha        1 W7A      0.137000
     36 H13        10.4390    0.6000    6.8070 ha        1 W7A      0.122500
     37 H14         9.3310   -0.2590    8.8710 ha        1 W7A      0.120000
     38 H15         7.0790   -1.3240    8.7200 ha        1 W7A      0.122500
     39 H16         5.9410   -1.5360    6.5150 ha        1 W7A      0.137000
     40 H17         0.2970   -0.1040   -2.1070 hn        1 W7A      0.366500
@<TRIPOS>BOND
     1    1    2 1   
     2    2    3 1   
     3    2    4 1   
     4    4    5 1   
     5    4   11 2   
     6    5    6 1   
     7    5   40 1   
     8    6    7 2   
     9    6    8 1   
    10    8    9 1   
    11    8   26 1   
    12    9   10 2   
    13    9   11 1   
    14   11   12 1   
    15   12   13 1   
    16   12   27 1   
    17   12   28 1   
    18   13   14 1   
    19   13   29 1   
    20   13   30 1   
    21   14   15 ar  
    22   14   17 ar  
    23   15   16 ar  
    24   15   31 1   
    25   16   19 ar  
    26   16   32 1   
    27   17   18 ar  
    28   17   33 1   
    29   18   19 ar  
    30   18   34 1   
    31   19   20 1   
    32   20   21 ar  
    33   20   25 ar  
    34   21   22 ar  
    35   21   35 1   
    36   22   23 ar  
    37   22   36 1   
    38   23   24 ar  
    39   23   37 1   
    40   24   25 ar  
    41   24   38 1   
    42   25   39 1   
@<TRIPOS>SUBSTRUCTURE
     1 W7A         1 TEMP              0 ****  ****    0 ROOT
