@<TRIPOS>MOLECULE
W7B
   36    38     1     0     0
SMALL
bcc


@<TRIPOS>ATOM
      1 OAJ        -0.1120    0.1430   -0.4160 o         1 W7B     -0.793800
      2 CAI         1.0150   -0.3950   -0.2770 c         1 W7B      0.922800
      3 OAK         1.3920   -1.1090    0.6830 o         1 W7B     -0.793800
      4 C4          2.0250   -0.1740   -1.4420 cc        1 W7B      0.047400
      5 N3          1.4770   -0.2490   -2.7140 ns        1 W7B     -0.436100
      6 C2          2.2410   -0.0220   -3.8660 c         1 W7B      0.791500
      7 O2          1.7250   -0.0580   -5.0110 o         1 W7B     -0.695500
      8 N1          3.6110    0.2280   -3.7070 ns        1 W7B     -0.592500
      9 C6          4.2240    0.3060   -2.4380 c         1 W7B      0.716700
     10 O6          5.4460    0.5560   -2.4160 o         1 W7B     -0.667500
     11 C5          3.3610    0.0890   -1.2710 cd        1 W7B     -0.293400
     12 CAL         4.0060    0.1810    0.0630 c3        1 W7B      0.011800
     13 CAM         4.5560   -1.1670    0.5070 c3        1 W7B     -0.051100
     14 CAN         5.4070   -1.0480    1.7250 ca        1 W7B     -0.029300
     15 CAS         4.8300   -0.9950    3.0330 ca        1 W7B     -0.037000
     16 CAU         3.4210   -1.0170    3.2450 ca        1 W7B     -0.098000
     17 CAT         2.9050   -0.9700    4.5170 ca        1 W7B     -0.149000
     18 CAW         3.7610   -0.8970    5.6410 ca        1 W7B     -0.128000
     19 CAV         5.1220   -0.8690    5.4680 ca        1 W7B     -0.146000
     20 CAR         5.6860   -0.9140    4.1630 ca        1 W7B     -0.037000
     21 CAQ         7.0950   -0.8760    3.9780 ca        1 W7B     -0.145000
     22 CAP         7.6270   -0.9150    2.7140 ca        1 W7B     -0.126000
     23 CAO         6.7800   -1.0030    1.5870 ca        1 W7B     -0.152000
     24 H2          4.1500    0.3750   -4.5290 hn        1 W7B      0.331500
     25 H4          4.8410    0.9310    0.0170 hc        1 W7B      0.057200
     26 H5          3.2520    0.5320    0.8190 hc        1 W7B      0.057200
     27 H6          5.1650   -1.6040   -0.3300 hc        1 W7B      0.066700
     28 H7          3.6900   -1.8610    0.6950 hc        1 W7B      0.066700
     29 H8          2.7400   -1.0650    2.3710 ha        1 W7B      0.205000
     30 H9          1.8150   -0.9850    4.6710 ha        1 W7B      0.134000
     31 H10         3.3220   -0.8610    6.6480 ha        1 W7B      0.115000
     32 H11         5.8000   -0.8090    6.3310 ha        1 W7B      0.115000
     33 H12         7.7430   -0.8110    4.8640 ha        1 W7B      0.116000
     34 H13         8.7150   -0.8800    2.5610 ha        1 W7B      0.116000
     35 H14         7.2320   -1.0290    0.5830 ha        1 W7B      0.135000
     36 H15         0.4850   -0.3170   -2.8040 hn        1 W7B      0.365500
@<TRIPOS>BOND
     1    1    2 1   
     2    2    3 1   
     3    2    4 1   
     4    4    5 1   
     5    4   11 2   
     6    5    6 1   
     7    5   36 1   
     8    6    7 2   
     9    6    8 1   
    10    8    9 1   
    11    8   24 1   
    12    9   10 2   
    13    9   11 1   
    14   11   12 1   
    15   12   13 1   
    16   12   25 1   
    17   12   26 1   
    18   13   14 1   
    19   13   27 1   
    20   13   28 1   
    21   14   15 ar  
    22   14   23 ar  
    23   15   16 ar  
    24   15   20 ar  
    25   16   17 ar  
    26   16   29 1   
    27   17   18 ar  
    28   17   30 1   
    29   18   19 ar  
    30   18   31 1   
    31   19   20 ar  
    32   19   32 1   
    33   20   21 ar  
    34   21   22 ar  
    35   21   33 1   
    36   22   23 ar  
    37   22   34 1   
    38   23   35 1   
@<TRIPOS>SUBSTRUCTURE
     1 W7B         1 TEMP              0 ****  ****    0 ROOT
