@<TRIPOS>MOLECULE
W7B
   36    38     1     0     0
SMALL
bcc


@<TRIPOS>ATOM
      1 OAJ        -0.1130    0.1470   -0.4120 o         1 W7B     -0.793800
      2 CAI         1.0140   -0.3910   -0.2750 c         1 W7B      0.922800
      3 OAK         1.3920   -1.1080    0.6820 o         1 W7B     -0.793800
      4 C4          2.0240   -0.1660   -1.4400 cc        1 W7B      0.047400
      5 N3          1.4760   -0.2370   -2.7120 n         1 W7B     -0.436100
      6 C2          2.2390   -0.0070   -3.8640 c         1 W7B      0.791500
      7 O2          1.7220   -0.0400   -5.0080 o         1 W7B     -0.695500
      8 N1          3.6090    0.2430   -3.7040 n         1 W7B     -0.592500
      9 C6          4.2220    0.3180   -2.4360 c         1 W7B      0.716700
     10 O6          5.4450    0.5680   -2.4130 o         1 W7B     -0.667500
     11 C5          3.3610    0.0970   -1.2690 cd        1 W7B     -0.293400
     12 CAL         4.0050    0.1840    0.0650 c3        1 W7B      0.011800
     13 CAM         4.5560   -1.1650    0.5050 c3        1 W7B     -0.051100
     14 CAN         5.4070   -1.0500    1.7230 ca        1 W7B     -0.029300
     15 CAS         4.8300   -1.0020    3.0310 ca        1 W7B     -0.037000
     16 CAU         3.4220   -1.0260    3.2440 ca        1 W7B     -0.098000
     17 CAT         2.9060   -0.9830    4.5160 ca        1 W7B     -0.149000
     18 CAW         3.7630   -0.9140    5.6390 ca        1 W7B     -0.128000
     19 CAV         5.1240   -0.8840    5.4660 ca        1 W7B     -0.146000
     20 CAR         5.6880   -0.9250    4.1610 ca        1 W7B     -0.037000
     21 CAQ         7.0960   -0.8840    3.9760 ca        1 W7B     -0.145000
     22 CAP         7.6280   -0.9190    2.7110 ca        1 W7B     -0.126000
     23 CAO         6.7810   -1.0030    1.5840 ca        1 W7B     -0.152000
     24 H2          4.1480    0.3930   -4.5260 hn        1 W7B      0.331500
     25 H4          4.8400    0.9340    0.0220 hc        1 W7B      0.057700
     26 H5          3.2510    0.5320    0.8230 hc        1 W7B      0.057700
     27 H6          5.1650   -1.5990   -0.3340 hc        1 W7B      0.066700
     28 H7          3.6900   -1.8590    0.6910 hc        1 W7B      0.066700
     29 H8          2.7410   -1.0700    2.3690 ha        1 W7B      0.205000
     30 H9          1.8170   -1.0000    4.6700 ha        1 W7B      0.134000
     31 H10         3.3250   -0.8810    6.6470 ha        1 W7B      0.115000
     32 H11         5.8020   -0.8270    6.3290 ha        1 W7B      0.115000
     33 H12         7.7440   -0.8230    4.8620 ha        1 W7B      0.116000
     34 H13         8.7160   -0.8820    2.5580 ha        1 W7B      0.116000
     35 H14         7.2320   -1.0260    0.5800 ha        1 W7B      0.135000
     36 H15         0.4830   -0.3050   -2.8020 hn        1 W7B      0.365500
@<TRIPOS>BOND
     1    1    2 1   
     2    2    3 1   
     3    2    4 1   
     4    4    5 1   
     5    4   11 2   
     6    5    6 1   
     7    5   36 1   
     8    6    7 2   
     9    6    8 1   
    10    8    9 1   
    11    8   24 1   
    12    9   10 2   
    13    9   11 1   
    14   11   12 1   
    15   12   13 1   
    16   12   25 1   
    17   12   26 1   
    18   13   14 1   
    19   13   27 1   
    20   13   28 1   
    21   14   15 ar  
    22   14   23 ar  
    23   15   16 ar  
    24   15   20 ar  
    25   16   17 ar  
    26   16   29 1   
    27   17   18 ar  
    28   17   30 1   
    29   18   19 ar  
    30   18   31 1   
    31   19   20 ar  
    32   19   32 1   
    33   20   21 ar  
    34   21   22 ar  
    35   21   33 1   
    36   22   23 ar  
    37   22   34 1   
    38   23   35 1   
@<TRIPOS>SUBSTRUCTURE
     1 W7B         1 TEMP              0 ****  ****    0 ROOT
