@<TRIPOS>MOLECULE
W7B
   36    38     1     0     0
SMALL
bcc


@<TRIPOS>ATOM
      1 OAJ        -0.1120    0.1530   -0.4110 o         1 W7B     -0.793800
      2 CAI         1.0140   -0.3870   -0.2730 c         1 W7B      0.922800
      3 OAK         1.3910   -1.1030    0.6860 o         1 W7B     -0.793800
      4 C4          2.0230   -0.1680   -1.4400 cc        1 W7B      0.047400
      5 N3          1.4740   -0.2420   -2.7110 n         1 W7B     -0.436100
      6 C2          2.2370   -0.0160   -3.8640 c         1 W7B      0.791500
      7 O2          1.7200   -0.0510   -5.0080 o         1 W7B     -0.695500
      8 N1          3.6080    0.2310   -3.7060 n         1 W7B     -0.592500
      9 C6          4.2220    0.3070   -2.4380 c         1 W7B      0.716700
     10 O6          5.4450    0.5550   -2.4170 o         1 W7B     -0.667500
     11 C5          3.3610    0.0920   -1.2700 cd        1 W7B     -0.293400
     12 CAL         4.0060    0.1820    0.0630 c3        1 W7B      0.011800
     13 CAM         4.5540   -1.1680    0.5060 c3        1 W7B     -0.051100
     14 CAN         5.4060   -1.0520    1.7240 ca        1 W7B     -0.029300
     15 CAS         4.8310   -0.9980    3.0320 ca        1 W7B     -0.037000
     16 CAU         3.4230   -1.0160    3.2460 ca        1 W7B     -0.098000
     17 CAT         2.9080   -0.9680    4.5190 ca        1 W7B     -0.149000
     18 CAW         3.7650   -0.8970    5.6410 ca        1 W7B     -0.128000
     19 CAV         5.1260   -0.8730    5.4660 ca        1 W7B     -0.146000
     20 CAR         5.6890   -0.9190    4.1610 ca        1 W7B     -0.037000
     21 CAQ         7.0970   -0.8840    3.9740 ca        1 W7B     -0.145000
     22 CAP         7.6280   -0.9250    2.7100 ca        1 W7B     -0.126000
     23 CAO         6.7800   -1.0100    1.5830 ca        1 W7B     -0.152000
     24 H2          4.1460    0.3770   -4.5290 hn        1 W7B      0.331500
     25 H4          4.8430    0.9290    0.0170 hc        1 W7B      0.057200
     26 H5          3.2540    0.5340    0.8200 hc        1 W7B      0.057200
     27 H6          5.1610   -1.6060   -0.3320 hc        1 W7B      0.066700
     28 H7          3.6860   -1.8590    0.6950 hc        1 W7B      0.066700
     29 H8          2.7400   -1.0620    2.3720 ha        1 W7B      0.205000
     30 H9          1.8190   -0.9810    4.6730 ha        1 W7B      0.134000
     31 H10         3.3280   -0.8610    6.6490 ha        1 W7B      0.115000
     32 H11         5.8060   -0.8150    6.3290 ha        1 W7B      0.115000
     33 H12         7.7460   -0.8220    4.8590 ha        1 W7B      0.116000
     34 H13         8.7160   -0.8920    2.5560 ha        1 W7B      0.116000
     35 H14         7.2300   -1.0370    0.5800 ha        1 W7B      0.135000
     36 H15         0.4810   -0.3070   -2.8000 hn        1 W7B      0.365500
@<TRIPOS>BOND
     1    1    2 1   
     2    2    3 1   
     3    2    4 1   
     4    4    5 1   
     5    4   11 2   
     6    5    6 1   
     7    5   36 1   
     8    6    7 2   
     9    6    8 1   
    10    8    9 1   
    11    8   24 1   
    12    9   10 2   
    13    9   11 1   
    14   11   12 1   
    15   12   13 1   
    16   12   25 1   
    17   12   26 1   
    18   13   14 1   
    19   13   27 1   
    20   13   28 1   
    21   14   15 ar  
    22   14   23 ar  
    23   15   16 ar  
    24   15   20 ar  
    25   16   17 ar  
    26   16   29 1   
    27   17   18 ar  
    28   17   30 1   
    29   18   19 ar  
    30   18   31 1   
    31   19   20 ar  
    32   19   32 1   
    33   20   21 ar  
    34   21   22 ar  
    35   21   33 1   
    36   22   23 ar  
    37   22   34 1   
    38   23   35 1   
@<TRIPOS>SUBSTRUCTURE
     1 W7B         1 TEMP              0 ****  ****    0 ROOT
