@<TRIPOS>MOLECULE
W7C
   40    42     1     0     0
SMALL
bcc


@<TRIPOS>ATOM
      1 OAB        -0.1190    0.8320    0.0240 o         1 W7C     -0.793300
      2 CAQ         1.0200    0.3160    0.1160 c         1 W7C      0.921800
      3 OAE         1.5850   -0.0720    1.1700 o         1 W7C     -0.793300
      4 CAT         1.8450    0.1530   -1.1990 cc        1 W7C      0.044400
      5 NAN         3.2130    0.3300   -1.0590 n         1 W7C     -0.436100
      6 CAV         4.0990    0.1550   -2.1290 c         1 W7C      0.791500
      7 OAC         5.3400    0.2850   -1.9800 o         1 W7C     -0.695500
      8 NAO         3.5580   -0.1510   -3.3860 n         1 W7C     -0.592500
      9 CAW         2.1750   -0.3310   -3.5910 c         1 W7C      0.716700
     10 OAD         1.8080   -0.6260   -4.7470 o         1 W7C     -0.668500
     11 CAU         1.3040   -0.1580   -2.4230 cd        1 W7C     -0.293400
     12 CAM        -0.1520   -0.3420   -2.6370 c3        1 W7C      0.009800
     13 CAL        -0.8300    0.9740   -2.9980 c3        1 W7C     -0.044100
     14 CAR        -2.3120    0.8540   -2.9460 ca        1 W7C     -0.034300
     15 CAK        -3.0830    0.8520   -4.0890 ca        1 W7C     -0.152000
     16 CAH        -2.9380    0.7540   -1.6730 ca        1 W7C     -0.118000
     17 CAJ        -4.3030    0.6580   -1.5750 ca        1 W7C     -0.116000
     18 CAY        -5.1130    0.6560   -2.7410 ca        1 W7C     -0.057000
     19 CAX        -4.4970    0.7540   -4.0140 ca        1 W7C     -0.014000
     20 CAI        -5.3030    0.7500   -5.1880 ca        1 W7C     -0.148000
     21 CAF        -6.6680    0.6550   -5.0980 ca        1 W7C     -0.112000
     22 CAG        -7.3060    0.5580   -3.8400 ca        1 W7C     -0.236000
     23 CAS        -6.5430    0.5590   -2.6900 ca        1 W7C      0.140100
     24 OAP        -7.0640    0.4710   -1.4100 os        1 W7C     -0.324900
     25 CAA        -8.4770    0.3500   -1.3180 c3        1 W7C      0.116700
     26 H2          3.5870    0.4370   -0.1380 hn        1 W7C      0.366500
     27 H3          4.1920   -0.2630   -4.1440 hn        1 W7C      0.330500
     28 H4         -0.3190   -1.0890   -3.4580 hc        1 W7C      0.058700
     29 H5         -0.6170   -0.7380   -1.6920 hc        1 W7C      0.058700
     30 H6         -0.5070    1.7500   -2.2490 hc        1 W7C      0.061700
     31 H7         -0.4940    1.3010   -4.0170 hc        1 W7C      0.061700
     32 H8         -2.6120    0.9250   -5.0810 ha        1 W7C      0.130000
     33 H9         -2.2870    0.7570   -0.7750 ha        1 W7C      0.195000
     34 H10        -4.7960    0.5810   -0.5940 ha        1 W7C      0.142000
     35 H11        -4.8050    0.8250   -6.1650 ha        1 W7C      0.127000
     36 H12        -7.2910    0.6510   -6.0040 ha        1 W7C      0.117000
     37 H13        -8.4000    0.4830   -3.8070 ha        1 W7C      0.124000
     38 H14        -8.6630    0.2830   -0.2160 h1        1 W7C      0.037700
     39 H15        -8.9800    1.2500   -1.7480 h1        1 W7C      0.037700
     40 H16        -8.8300   -0.5760   -1.8330 h1        1 W7C      0.037700
@<TRIPOS>BOND
     1    1    2 1   
     2    2    3 1   
     3    2    4 1   
     4    4    5 1   
     5    4   11 2   
     6    5    6 1   
     7    5   26 1   
     8    6    7 2   
     9    6    8 1   
    10    8    9 1   
    11    8   27 1   
    12    9   10 2   
    13    9   11 1   
    14   11   12 1   
    15   12   13 1   
    16   12   28 1   
    17   12   29 1   
    18   13   14 1   
    19   13   30 1   
    20   13   31 1   
    21   14   15 ar  
    22   14   16 ar  
    23   15   19 ar  
    24   15   32 1   
    25   16   17 ar  
    26   16   33 1   
    27   17   18 ar  
    28   17   34 1   
    29   18   19 ar  
    30   18   23 ar  
    31   19   20 ar  
    32   20   21 ar  
    33   20   35 1   
    34   21   22 ar  
    35   21   36 1   
    36   22   23 ar  
    37   22   37 1   
    38   23   24 1   
    39   24   25 1   
    40   25   38 1   
    41   25   39 1   
    42   25   40 1   
@<TRIPOS>SUBSTRUCTURE
     1 W7C         1 TEMP              0 ****  ****    0 ROOT
