@<TRIPOS>MOLECULE
W7C
   40    42     1     0     0
SMALL
bcc


@<TRIPOS>ATOM
      1 OAB        -0.1200    0.8300    0.0250 o         1 W7C     -0.793300
      2 CAQ         1.0200    0.3150    0.1150 c         1 W7C      0.921800
      3 OAE         1.5860   -0.0740    1.1680 o         1 W7C     -0.793300
      4 CAT         1.8450    0.1550   -1.2000 cc        1 W7C      0.044400
      5 NAN         3.2130    0.3340   -1.0600 n         1 W7C     -0.436100
      6 CAV         4.0990    0.1620   -2.1300 c         1 W7C      0.791500
      7 OAC         5.3400    0.2930   -1.9810 o         1 W7C     -0.695500
      8 NAO         3.5590   -0.1420   -3.3880 n         1 W7C     -0.592500
      9 CAW         2.1760   -0.3230   -3.5930 c         1 W7C      0.716700
     10 OAD         1.8090   -0.6170   -4.7490 o         1 W7C     -0.668500
     11 CAU         1.3050   -0.1540   -2.4240 cd        1 W7C     -0.293400
     12 CAM        -0.1510   -0.3390   -2.6390 c3        1 W7C      0.009800
     13 CAL        -0.8300    0.9760   -2.9980 c3        1 W7C     -0.044100
     14 CAR        -2.3130    0.8540   -2.9460 ca        1 W7C     -0.034300
     15 CAK        -3.0840    0.8530   -4.0890 ca        1 W7C     -0.152000
     16 CAH        -2.9380    0.7510   -1.6720 ca        1 W7C     -0.118000
     17 CAJ        -4.3030    0.6540   -1.5750 ca        1 W7C     -0.116000
     18 CAY        -5.1140    0.6530   -2.7410 ca        1 W7C     -0.057000
     19 CAX        -4.4980    0.7530   -4.0140 ca        1 W7C     -0.014000
     20 CAI        -5.3040    0.7510   -5.1870 ca        1 W7C     -0.148000
     21 CAF        -6.6680    0.6540   -5.0970 ca        1 W7C     -0.112000
     22 CAG        -7.3070    0.5540   -3.8390 ca        1 W7C     -0.236000
     23 CAS        -6.5430    0.5540   -2.6890 ca        1 W7C      0.140100
     24 OAP        -7.0640    0.4640   -1.4090 os        1 W7C     -0.324900
     25 CAA        -8.4760    0.3410   -1.3170 c3        1 W7C      0.116700
     26 H2          3.5870    0.4390   -0.1390 hn        1 W7C      0.366500
     27 H3          4.1930   -0.2520   -4.1460 hn        1 W7C      0.330500
     28 H4         -0.6150   -0.7370   -1.6940 hc        1 W7C      0.058700
     29 H5         -0.3170   -1.0850   -3.4610 hc        1 W7C      0.058700
     30 H6         -0.4960    1.3050   -4.0160 hc        1 W7C      0.061700
     31 H7         -0.5080    1.7510   -2.2470 hc        1 W7C      0.061700
     32 H8         -2.6130    0.9280   -5.0810 ha        1 W7C      0.130000
     33 H9         -2.2880    0.7540   -0.7740 ha        1 W7C      0.195000
     34 H10        -4.7960    0.5740   -0.5930 ha        1 W7C      0.142000
     35 H11        -4.8060    0.8270   -6.1650 ha        1 W7C      0.127000
     36 H12        -7.2920    0.6510   -6.0030 ha        1 W7C      0.117000
     37 H13        -8.4010    0.4780   -3.8060 ha        1 W7C      0.124000
     38 H14        -8.6620    0.2730   -0.2150 h1        1 W7C      0.037700
     39 H15        -8.9810    1.2420   -1.7460 h1        1 W7C      0.037700
     40 H16        -8.8300   -0.5840   -1.8330 h1        1 W7C      0.037700
@<TRIPOS>BOND
     1    1    2 1   
     2    2    3 1   
     3    2    4 1   
     4    4    5 1   
     5    4   11 2   
     6    5    6 1   
     7    5   26 1   
     8    6    7 2   
     9    6    8 1   
    10    8    9 1   
    11    8   27 1   
    12    9   10 2   
    13    9   11 1   
    14   11   12 1   
    15   12   13 1   
    16   12   28 1   
    17   12   29 1   
    18   13   14 1   
    19   13   30 1   
    20   13   31 1   
    21   14   15 ar  
    22   14   16 ar  
    23   15   19 ar  
    24   15   32 1   
    25   16   17 ar  
    26   16   33 1   
    27   17   18 ar  
    28   17   34 1   
    29   18   19 ar  
    30   18   23 ar  
    31   19   20 ar  
    32   20   21 ar  
    33   20   35 1   
    34   21   22 ar  
    35   21   36 1   
    36   22   23 ar  
    37   22   37 1   
    38   23   24 1   
    39   24   25 1   
    40   25   38 1   
    41   25   39 1   
    42   25   40 1   
@<TRIPOS>SUBSTRUCTURE
     1 W7C         1 TEMP              0 ****  ****    0 ROOT
