@<TRIPOS>MOLECULE
W7C
   40    42     1     0     0
SMALL
bcc


@<TRIPOS>ATOM
      1 OAB        -0.1220    0.8290    0.0270 o         1 W7C     -0.793300
      2 CAQ         1.0170    0.3130    0.1180 c         1 W7C      0.921800
      3 OAE         1.5820   -0.0760    1.1720 o         1 W7C     -0.793300
      4 CAT         1.8440    0.1540   -1.1960 cc        1 W7C      0.044400
      5 NAN         3.2120    0.3320   -1.0540 ns        1 W7C     -0.436100
      6 CAV         4.0990    0.1610   -2.1240 c         1 W7C      0.791500
      7 OAC         5.3400    0.2920   -1.9740 o         1 W7C     -0.695500
      8 NAO         3.5600   -0.1430   -3.3830 ns        1 W7C     -0.592500
      9 CAW         2.1770   -0.3240   -3.5890 c         1 W7C      0.716700
     10 OAD         1.8110   -0.6170   -4.7460 o         1 W7C     -0.668500
     11 CAU         1.3050   -0.1540   -2.4210 cd        1 W7C     -0.293400
     12 CAM        -0.1510   -0.3400   -2.6370 c3        1 W7C      0.009800
     13 CAL        -0.8300    0.9760   -2.9970 c3        1 W7C     -0.044100
     14 CAR        -2.3120    0.8540   -2.9460 ca        1 W7C     -0.034300
     15 CAK        -3.0820    0.8540   -4.0890 ca        1 W7C     -0.152000
     16 CAH        -2.9380    0.7510   -1.6730 ca        1 W7C     -0.118000
     17 CAJ        -4.3040    0.6530   -1.5760 ca        1 W7C     -0.116000
     18 CAY        -5.1140    0.6530   -2.7430 ca        1 W7C     -0.057000
     19 CAX        -4.4970    0.7540   -4.0160 ca        1 W7C     -0.014000
     20 CAI        -5.3020    0.7530   -5.1900 ca        1 W7C     -0.148000
     21 CAF        -6.6660    0.6560   -5.1010 ca        1 W7C     -0.112000
     22 CAG        -7.3060    0.5560   -3.8430 ca        1 W7C     -0.236000
     23 CAS        -6.5430    0.5550   -2.6930 ca        1 W7C      0.140100
     24 OAP        -7.0650    0.4630   -1.4140 os        1 W7C     -0.324900
     25 CAA        -8.4770    0.3410   -1.3230 c3        1 W7C      0.116700
     26 H2          3.5850    0.4380   -0.1330 hn        1 W7C      0.366500
     27 H3          4.1940   -0.2520   -4.1400 hn        1 W7C      0.330500
     28 H4         -0.6160   -0.7380   -1.6930 hc        1 W7C      0.058700
     29 H5         -0.3170   -1.0850   -3.4600 hc        1 W7C      0.058700
     30 H6         -0.4940    1.3050   -4.0140 hc        1 W7C      0.061700
     31 H7         -0.5080    1.7510   -2.2450 hc        1 W7C      0.061700
     32 H8         -2.6110    0.9290   -5.0810 ha        1 W7C      0.130000
     33 H9         -2.2890    0.7530   -0.7740 ha        1 W7C      0.195000
     34 H10        -4.7980    0.5730   -0.5960 ha        1 W7C      0.142000
     35 H11        -4.8020    0.8300   -6.1670 ha        1 W7C      0.127000
     36 H12        -7.2890    0.6540   -6.0070 ha        1 W7C      0.117000
     37 H13        -8.4000    0.4800   -3.8110 ha        1 W7C      0.124000
     38 H14        -8.6650    0.2720   -0.2210 h1        1 W7C      0.037700
     39 H15        -8.9820    1.2410   -1.7520 h1        1 W7C      0.037700
     40 H16        -8.8300   -0.5850   -1.8400 h1        1 W7C      0.037700
@<TRIPOS>BOND
     1    1    2 1   
     2    2    3 1   
     3    2    4 1   
     4    4    5 1   
     5    4   11 2   
     6    5    6 1   
     7    5   26 1   
     8    6    7 2   
     9    6    8 1   
    10    8    9 1   
    11    8   27 1   
    12    9   10 2   
    13    9   11 1   
    14   11   12 1   
    15   12   13 1   
    16   12   28 1   
    17   12   29 1   
    18   13   14 1   
    19   13   30 1   
    20   13   31 1   
    21   14   15 ar  
    22   14   16 ar  
    23   15   19 ar  
    24   15   32 1   
    25   16   17 ar  
    26   16   33 1   
    27   17   18 ar  
    28   17   34 1   
    29   18   19 ar  
    30   18   23 ar  
    31   19   20 ar  
    32   20   21 ar  
    33   20   35 1   
    34   21   22 ar  
    35   21   36 1   
    36   22   23 ar  
    37   22   37 1   
    38   23   24 1   
    39   24   25 1   
    40   25   38 1   
    41   25   39 1   
    42   25   40 1   
@<TRIPOS>SUBSTRUCTURE
     1 W7C         1 TEMP              0 ****  ****    0 ROOT
