@<TRIPOS>MOLECULE
W7D
   40    42     1     0     0
SMALL
bcc


@<TRIPOS>ATOM
      1 O          -0.0650    0.8750    0.0280 o         1 W7D     -0.794300
      2 C           1.0770    0.3660    0.1280 c         1 W7D      0.921800
      3 OXT         1.6430   -0.0030    1.1880 o         1 W7D     -0.794300
      4 CA          1.9050    0.1880   -1.1820 cc        1 W7D      0.044400
      5 N           3.2700    0.3940   -1.0460 ns        1 W7D     -0.436100
      6 CAR         4.1600    0.2090   -2.1100 c         1 W7D      0.791500
      7 OAC         5.3990    0.3650   -1.9640 o         1 W7D     -0.696500
      8 ND2         3.6270   -0.1380   -3.3600 ns        1 W7D     -0.592500
      9 CG          2.2470   -0.3500   -3.5610 c         1 W7D      0.716700
     10 OD1         1.8880   -0.6840   -4.7080 o         1 W7D     -0.666500
     11 CB          1.3720   -0.1620   -2.3990 cd        1 W7D     -0.291400
     12 CAM        -0.0810   -0.3770   -2.6090 c3        1 W7D      0.009800
     13 CAL        -0.7790    0.9120   -3.0230 c3        1 W7D     -0.040100
     14 CAT        -2.2590    0.7810   -2.9390 ca        1 W7D     -0.058300
     15 CAK        -3.0540    0.7380   -4.0650 ca        1 W7D     -0.117000
     16 CAW        -4.4640    0.6310   -3.9510 ca        1 W7D     -0.051000
     17 CAH        -2.8580    0.7170   -1.6500 ca        1 W7D     -0.095000
     18 CAJ        -4.2210    0.6110   -1.5210 ca        1 W7D     -0.151000
     19 CAV        -5.0600    0.5650   -2.6660 ca        1 W7D     -0.021000
     20 CAI        -6.4740    0.4560   -2.5500 ca        1 W7D     -0.147000
     21 CAF        -7.2660    0.4120   -3.6680 ca        1 W7D     -0.113000
     22 CAG        -6.6960    0.4770   -4.9620 ca        1 W7D     -0.235000
     23 CAU        -5.3270    0.5850   -5.0960 ca        1 W7D      0.139100
     24 OAP        -4.6690    0.6610   -6.3110 os        1 W7D     -0.322900
     25 CAA        -5.4840    0.5650   -7.4710 c3        1 W7D      0.115700
     26 H2          3.6420    0.5280   -0.1280 hn        1 W7D      0.366500
     27 H3          4.2640   -0.2580   -4.1140 hn        1 W7D      0.330500
     28 H4         -0.5410   -0.7450   -1.6510 hc        1 W7D      0.058200
     29 H5         -0.2330   -1.1570   -3.4020 hc        1 W7D      0.058200
     30 H6         -0.4530    1.7280   -2.3200 hc        1 W7D      0.060700
     31 H7         -0.4650    1.1920   -4.0630 hc        1 W7D      0.060700
     32 H8         -2.6100    0.7840   -5.0720 ha        1 W7D      0.145000
     33 H9         -2.1900    0.7550   -0.7660 ha        1 W7D      0.196000
     34 H10        -4.6860    0.5600   -0.5250 ha        1 W7D      0.127000
     35 H11        -6.9140    0.4050   -1.5440 ha        1 W7D      0.125000
     36 H12        -8.3580    0.3270   -3.5800 ha        1 W7D      0.117000
     37 H13        -7.3610    0.4400   -5.8340 ha        1 W7D      0.124000
     38 H14        -6.2040    1.4180   -7.5200 h1        1 W7D      0.038033
     39 H15        -6.0320   -0.4080   -7.4920 h1        1 W7D      0.038033
     40 H16        -4.7480    0.6210   -8.3130 h1        1 W7D      0.038033
@<TRIPOS>BOND
     1    1    2 1   
     2    2    3 1   
     3    2    4 1   
     4    4    5 1   
     5    4   11 2   
     6    5    6 1   
     7    5   26 1   
     8    6    7 2   
     9    6    8 1   
    10    8    9 1   
    11    8   27 1   
    12    9   10 2   
    13    9   11 1   
    14   11   12 1   
    15   12   13 1   
    16   12   28 1   
    17   12   29 1   
    18   13   14 1   
    19   13   30 1   
    20   13   31 1   
    21   14   15 ar  
    22   14   17 ar  
    23   15   16 ar  
    24   15   32 1   
    25   16   19 ar  
    26   16   23 ar  
    27   17   18 ar  
    28   17   33 1   
    29   18   19 ar  
    30   18   34 1   
    31   19   20 ar  
    32   20   21 ar  
    33   20   35 1   
    34   21   22 ar  
    35   21   36 1   
    36   22   23 ar  
    37   22   37 1   
    38   23   24 1   
    39   24   25 1   
    40   25   38 1   
    41   25   39 1   
    42   25   40 1   
@<TRIPOS>SUBSTRUCTURE
     1 W7D         1 TEMP              0 ****  ****    0 ROOT
