@<TRIPOS>MOLECULE
W7D
   40    42     1     0     0
SMALL
bcc


@<TRIPOS>ATOM
      1 O          -0.0640    0.8790    0.0260 o         1 W7D     -0.794300
      2 C           1.0790    0.3720    0.1270 c         1 W7D      0.921800
      3 OXT         1.6460    0.0060    1.1880 o         1 W7D     -0.794300
      4 CA          1.9060    0.1930   -1.1830 cc        1 W7D      0.044400
      5 N           3.2710    0.4000   -1.0480 n         1 W7D     -0.436100
      6 CAR         4.1610    0.2150   -2.1130 c         1 W7D      0.791500
      7 OAC         5.3990    0.3720   -1.9670 o         1 W7D     -0.696500
      8 ND2         3.6270   -0.1350   -3.3620 n         1 W7D     -0.592500
      9 CG          2.2480   -0.3480   -3.5620 c         1 W7D      0.716700
     10 OD1         1.8880   -0.6850   -4.7080 o         1 W7D     -0.666500
     11 CB          1.3730   -0.1600   -2.3990 cd        1 W7D     -0.291400
     12 CAM        -0.0800   -0.3760   -2.6090 c3        1 W7D      0.009800
     13 CAL        -0.7790    0.9120   -3.0250 c3        1 W7D     -0.040100
     14 CAT        -2.2590    0.7800   -2.9400 ca        1 W7D     -0.058300
     15 CAK        -3.0540    0.7360   -4.0650 ca        1 W7D     -0.117000
     16 CAW        -4.4650    0.6280   -3.9500 ca        1 W7D     -0.051000
     17 CAH        -2.8570    0.7180   -1.6500 ca        1 W7D     -0.095000
     18 CAJ        -4.2200    0.6120   -1.5200 ca        1 W7D     -0.151000
     19 CAV        -5.0600    0.5650   -2.6650 ca        1 W7D     -0.021000
     20 CAI        -6.4740    0.4550   -2.5480 ca        1 W7D     -0.147000
     21 CAF        -7.2660    0.4100   -3.6660 ca        1 W7D     -0.113000
     22 CAG        -6.6970    0.4730   -4.9600 ca        1 W7D     -0.235000
     23 CAU        -5.3280    0.5800   -5.0950 ca        1 W7D      0.139100
     24 OAP        -4.6700    0.6550   -6.3110 os        1 W7D     -0.322900
     25 CAA        -5.4860    0.5570   -7.4700 c3        1 W7D      0.115700
     26 H2          3.6430    0.5360   -0.1300 hn        1 W7D      0.366500
     27 H3          4.2640   -0.2550   -4.1160 hn        1 W7D      0.330500
     28 H4         -0.2320   -1.1580   -3.4000 hc        1 W7D      0.058700
     29 H5         -0.5400   -0.7420   -1.6500 hc        1 W7D      0.058700
     30 H6         -0.4530    1.7300   -2.3230 hc        1 W7D      0.060700
     31 H7         -0.4660    1.1900   -4.0650 hc        1 W7D      0.060700
     32 H8         -2.6110    0.7800   -5.0720 ha        1 W7D      0.145000
     33 H9         -2.1890    0.7570   -0.7670 ha        1 W7D      0.196000
     34 H10        -4.6840    0.5620   -0.5250 ha        1 W7D      0.127000
     35 H11        -6.9140    0.4060   -1.5410 ha        1 W7D      0.125000
     36 H12        -8.3590    0.3250   -3.5780 ha        1 W7D      0.117000
     37 H13        -7.3620    0.4350   -5.8320 ha        1 W7D      0.124000
     38 H14        -4.7510    0.6120   -8.3120 h1        1 W7D      0.038033
     39 H15        -6.0350   -0.4160   -7.4890 h1        1 W7D      0.038033
     40 H16        -6.2060    1.4100   -7.5200 h1        1 W7D      0.038033
@<TRIPOS>BOND
     1    1    2 1   
     2    2    3 1   
     3    2    4 1   
     4    4    5 1   
     5    4   11 2   
     6    5    6 1   
     7    5   26 1   
     8    6    7 2   
     9    6    8 1   
    10    8    9 1   
    11    8   27 1   
    12    9   10 2   
    13    9   11 1   
    14   11   12 1   
    15   12   13 1   
    16   12   28 1   
    17   12   29 1   
    18   13   14 1   
    19   13   30 1   
    20   13   31 1   
    21   14   15 ar  
    22   14   17 ar  
    23   15   16 ar  
    24   15   32 1   
    25   16   19 ar  
    26   16   23 ar  
    27   17   18 ar  
    28   17   33 1   
    29   18   19 ar  
    30   18   34 1   
    31   19   20 ar  
    32   20   21 ar  
    33   20   35 1   
    34   21   22 ar  
    35   21   36 1   
    36   22   23 ar  
    37   22   37 1   
    38   23   24 1   
    39   24   25 1   
    40   25   38 1   
    41   25   39 1   
    42   25   40 1   
@<TRIPOS>SUBSTRUCTURE
     1 W7D         1 TEMP              0 ****  ****    0 ROOT
