@<TRIPOS>MOLECULE
W7E
   62    64     1     0     0
SMALL
bcc


@<TRIPOS>ATOM
      1 C28         0.0000    0.0000    0.0000 ca        1 W7E     -0.172000
      2 C24         0.0050   -0.0060    2.4020 ca        1 W7E     -0.172000
      3 C27         1.3810    0.0000    0.0000 ca        1 W7E     -0.019000
      4 C25         1.3870   -0.0010    2.3960 ca        1 W7E     -0.019000
      5 C5        -12.6640   -6.6810   -3.0030 ca        1 W7E     -0.024000
      6 C6        -11.3690   -6.4920   -2.6280 ca        1 W7E     -0.120000
      7 C8        -12.0750   -5.2580   -0.6910 ca        1 W7E     -0.040000
      8 C26         2.0740    0.0000    1.1960 ca        1 W7E     -0.114300
      9 C4        -13.7170   -6.1580   -2.2260 ca        1 W7E      0.072400
     10 C23        -0.6920   -0.0000    1.2030 ca        1 W7E      0.118100
     11 C7        -11.0590   -5.7800   -1.4710 ca        1 W7E     -0.112400
     12 C9        -13.4030   -5.4450   -1.0640 ca        1 W7E     -0.013100
     13 C2        -15.8110   -5.6720   -1.5630 cc        1 W7E      0.381200
     14 C12        -9.3410   -4.4470   -0.5040 c         1 W7E      0.557100
     15 C31         5.5940    1.4430    1.3130 c         1 W7E      0.968100
     16 C34         3.6890    2.1160   -0.0940 c         1 W7E      0.968100
     17 C17        -5.9310   -1.4530    1.3620 c         1 W7E     -0.403900
     18 C1        -17.3160   -5.6680   -1.6410 c3        1 W7E      0.013600
     19 C21        -2.6980    0.0050    2.4790 c3        1 W7E      0.188400
     20 C29         3.5810   -0.0010    1.1930 c3        1 W7E      0.031900
     21 C14        -7.8860   -4.2050   -0.1970 c3        1 W7E     -0.113400
     22 C20        -4.2150    0.0120    2.2820 c3        1 W7E     -0.016200
     23 C15        -7.7270   -2.8370    0.4700 c3        1 W7E     -0.004200
     24 C30         4.0910    1.4420    1.1920 c3        1 W7E     -0.128700
     25 N3        -15.0480   -6.2340   -2.4220 nd        1 W7E     -0.455100
     26 N11        -9.7230   -5.5960   -1.0980 ns        1 W7E     -0.010100
     27 N19        -4.6300   -1.2360    1.6370 ny        1 W7E      0.373200
     28 N16        -6.3120   -2.6010    0.7690 ny        1 W7E      0.376200
     29 O13       -10.1700   -3.6090   -0.2170 o         1 W7E     -0.614100
     30 O32         6.2640    2.6060    1.3340 o         1 W7E     -0.626800
     31 O35         2.3910    2.2310   -0.4160 o         1 W7E     -0.626800
     32 O18        -6.7610   -0.6130    1.6500 o         1 W7E     -0.709100
     33 O33         6.1940    0.3990    1.3920 o         1 W7E     -0.626800
     34 O36         4.5370    2.5530   -0.8370 o         1 W7E     -0.626800
     35 O22        -2.0510    0.0050    1.2050 os        1 W7E     -0.334900
     36 S10       -14.9120   -4.9260   -0.3190 ss        1 W7E     -0.178100
     37 H25         1.9320   -0.0030    3.3320 ha        1 W7E      0.117500
     38 H24        -0.5330    0.0330    3.3410 ha        1 W7E      0.108500
     39 H27         1.9220    0.0000   -0.9390 ha        1 W7E      0.117500
     40 H28        -0.5420   -0.0490   -0.9370 ha        1 W7E      0.108500
     41 H291        3.9400   -0.5110    0.3070 hc        1 W7E      0.040700
     42 H292        3.9440   -0.5120    2.0760 hc        1 W7E      0.040700
     43 H11        -9.0490   -6.3140   -1.2760 hn        1 W7E      0.166500
     44 H11C      -17.7210   -5.1680   -0.7700 hc        1 W7E      0.021367
     45 H12C      -17.6300   -5.1450   -2.5360 hc        1 W7E      0.021367
     46 H13C      -17.6790   -6.6880   -1.6730 hc        1 W7E      0.021367
     47 H141       -7.3150   -4.2260   -1.1180 hc        1 W7E      0.034200
     48 H142       -7.5240   -4.9770    0.4700 hc        1 W7E      0.034200
     49 H30         3.6620    1.9770    2.0300 hc        1 W7E      0.054700
     50 H16        -5.8170   -2.6580   -0.0990 hn        1 W7E      0.128300
     51 H19        -4.1350   -1.2930    0.7690 hn        1 W7E      0.144800
     52 H151       -8.0880   -2.0650   -0.1980 hx        1 W7E      0.098700
     53 H152       -8.2980   -2.8160    1.3900 hx        1 W7E      0.098700
     54 H201       -4.4940    0.8510    1.6570 hx        1 W7E      0.089700
     55 H202       -4.7040    0.1000    3.2450 hx        1 W7E      0.089700
     56 H211       -2.4020    0.8860    3.0350 h1        1 W7E      0.024700
     57 H212       -2.4090   -0.8830    3.0300 h1        1 W7E      0.024700
     58 H5        -12.8870   -7.2360   -3.9050 ha        1 W7E      0.118000
     59 H6        -10.5710   -6.9000   -3.2360 ha        1 W7E      0.108000
     60 H192       -4.3290   -1.9840    2.2300 hn        1 W7E      0.144800
     61 H162       -6.0090   -3.3490    1.3620 hn        1 W7E      0.128300
     62 H8        -11.8380   -4.7040    0.2090 ha        1 W7E      0.150000
@<TRIPOS>BOND
     1    1    3 ar  
     2    1   10 ar  
     3    1   40 1   
     4    2    4 ar  
     5    2   10 ar  
     6    2   38 1   
     7    3    8 ar  
     8    3   39 1   
     9    4    8 ar  
    10    4   37 1   
    11    5    6 ar  
    12    5    9 ar  
    13    5   58 1   
    14    6   11 ar  
    15    6   59 1   
    16    7   11 ar  
    17    7   12 ar  
    18    7   62 1   
    19    8   20 1   
    20    9   12 ar  
    21    9   25 1   
    22   10   35 1   
    23   11   26 1   
    24   12   36 1   
    25   13   18 1   
    26   13   25 2   
    27   13   36 1   
    28   14   21 1   
    29   14   26 1   
    30   14   29 2   
    31   15   24 1   
    32   15   30 1   
    33   15   33 1   
    34   16   24 1   
    35   16   31 1   
    36   16   34 1   
    37   17   27 1   
    38   17   28 1   
    39   17   32 2   
    40   18   44 1   
    41   18   45 1   
    42   18   46 1   
    43   19   22 1   
    44   19   35 1   
    45   19   56 1   
    46   19   57 1   
    47   20   24 1   
    48   20   41 1   
    49   20   42 1   
    50   21   23 1   
    51   21   47 1   
    52   21   48 1   
    53   22   27 1   
    54   22   54 1   
    55   22   55 1   
    56   23   28 1   
    57   23   52 1   
    58   23   53 1   
    59   24   49 1   
    60   26   43 1   
    61   27   51 1   
    62   27   60 1   
    63   28   50 1   
    64   28   61 1   
@<TRIPOS>SUBSTRUCTURE
     1 W7E         1 TEMP              0 ****  ****    0 ROOT
