@<TRIPOS>MOLECULE
W7E
   63    64     1     0     0
SMALL
bcc


@<TRIPOS>ATOM
      1 C28        -0.2310   -0.9700    0.1510 ca        1 W7E     -0.169000
      2 C24        -0.5530   -0.0600    2.3940 ca        1 W7E     -0.169000
      3 C27         1.1290   -0.7050    0.2490 ca        1 W7E     -0.087500
      4 C25         0.8160    0.2040    2.4700 ca        1 W7E     -0.087500
      5 C5        -11.0770   -6.5000   -1.0670 ca        1 W7E     -0.049000
      6 C6        -10.1680   -5.4830   -0.8530 ca        1 W7E     -0.123000
      7 C8        -11.9020   -4.0730    0.1680 ca        1 W7E     -0.044000
      8 C26         1.6630   -0.1170    1.4060 ca        1 W7E     -0.095000
      9 C4        -12.4210   -6.3260   -0.6710 ca        1 W7E     -0.010000
     10 C23        -1.0670   -0.6460    1.2350 ca        1 W7E      0.062000
     11 C7        -10.5800   -4.2720   -0.2400 ca        1 W7E     -0.136000
     12 C9        -12.8270   -5.0930   -0.0450 ca        1 W7E     -0.349000
     13 C2        -14.5770   -6.7700   -0.3370 c2        1 W7E     -0.179000
     14 C12        -9.7870   -2.0380   -0.9320 c2        1 W7E      0.280000
     15 C31         5.6740    2.2050    4.6570 c1        1 W7E      0.421000
     16 C34         5.0470    0.7110   -0.1060 cu        1 W7E      0.290000
     17 C17        -6.3710   -2.3260    0.5360 c1        1 W7E      0.010000
     18 C1        -15.8770   -7.4730   -0.3200 c3        1 W7E     -0.180000
     19 C21        -3.3140   -0.4540    2.0170 c3        1 W7E     -0.048000
     20 C29         3.1270    0.1300    1.5080 c3        1 W7E     -0.125000
     21 C14        -9.3320   -2.1920   -2.3480 c3        1 W7E     -0.241000
     22 C20        -4.7170   -0.7300    1.4680 c3        1 W7E     -0.115000
     23 C15        -7.9020   -2.7530   -2.4630 c3        1 W7E     -0.078000
     24 C30         3.6610    0.8590    0.3130 cx        1 W7E     -0.036000
     25 N3        -13.4440   -7.2630   -0.8250 n2        1 W7E     -0.095000
     26 N11        -9.5900   -3.2210   -0.0080 n4        1 W7E     -0.052000
     27 N19        -4.9710   -2.1560    1.1770 n4        1 W7E     -0.125000
     28 N16        -7.2640   -2.5930   -3.7300 n3        1 W7E     -0.340000
     29 O13       -10.3070   -1.0580   -0.4190 o         1 W7E     -0.193000
     30 O32         4.7390    1.7880    4.0460 o         1 W7E     -0.210500
     31 O35         6.2460    0.8110   -0.1810 o         1 W7E     -0.210000
     32 O18        -7.1480   -2.9970    1.2100 o         1 W7E     -0.448000
     33 O33         6.6010    2.6210    5.2700 o         1 W7E     -0.210500
     34 O36         4.1110    0.0060   -0.8220 os        1 W7E     -0.273000
     35 O22        -2.4020   -0.9830    1.0540 os        1 W7E     -0.243000
     36 S10       -14.4670   -5.1650    0.3240 ss        1 W7E      0.499000
     37 H25         1.2270    0.6660    3.3810 ha        1 W7E      0.154000
     38 H24        -1.2010    0.1950    3.2440 ha        1 W7E      0.144000
     39 H27         1.8010   -0.9530   -0.5900 ha        1 W7E      0.154000
     40 H28        -0.6570   -1.4280   -0.7520 ha        1 W7E      0.144000
     41 H291        3.3640    0.7440    2.4220 hc        1 W7E      0.124500
     42 H292        3.6530   -0.8590    1.6200 hc        1 W7E      0.124500
     43 H11        -9.6540   -2.9010    0.9720 hn        1 W7E      0.277000
     44 H11C      -16.6630   -6.8260    0.1430 hc        1 W7E      0.120667
     45 H12C      -15.7980   -8.4240    0.2690 hc        1 W7E      0.120667
     46 H13C      -16.1920   -7.7370   -1.3630 hc        1 W7E      0.120667
     47 H141       -9.3940   -1.1720   -2.8210 hc        1 W7E      0.149000
     48 H142      -10.0570   -2.8630   -2.8840 hc        1 W7E      0.149000
     49 H30         3.0710    1.7390   -0.0150 h1        1 W7E      0.157000
     50 H16        -7.7720   -3.0190   -4.4780 hn        1 W7E      0.169000
     51 H19        -4.8180   -2.7050    2.0250 hn        1 W7E      0.203500
     52 H151       -7.9450   -3.8610   -2.2460 h1        1 W7E      0.109500
     53 H152       -7.2500   -2.2650   -1.6760 h1        1 W7E      0.109500
     54 H201       -4.8650   -0.1540    0.5100 hx        1 W7E      0.135500
     55 H202       -5.4710   -0.3780    2.2250 hx        1 W7E      0.135500
     56 H211       -3.1740    0.6530    2.1300 h1        1 W7E      0.104500
     57 H212       -3.1490   -0.9610    3.0040 h1        1 W7E      0.104500
     58 H5        -10.7630   -7.4470   -1.5400 ha        1 W7E      0.183000
     59 H6         -9.1170   -5.6280   -1.1560 ha        1 W7E      0.155000
     60 H112       -8.6310   -3.5940   -0.1370 hn        1 W7E      0.277000
     61 H192       -4.2940   -2.4650    0.4760 hn        1 W7E      0.203500
     62 H162       -7.0600   -1.6390   -3.9420 hn        1 W7E      0.169000
     63 H8        -12.2210   -3.1340    0.6510 ha        1 W7E      0.164000
@<TRIPOS>BOND
     1    1    3 1   
     2    1   10 1   
     3    1   40 1   
     4    2    4 1   
     5    2   10 1   
     6    2   38 1   
     7    3    8 1   
     8    3   39 1   
     9    4    8 1   
    10    4   37 1   
    11    5    6 1   
    12    5    9 1   
    13    5   58 1   
    14    6   11 1   
    15    6   59 1   
    16    7   11 1   
    17    7   12 1   
    18    7   63 1   
    19    8   20 1   
    20    9   12 1   
    21    9   25 1   
    22   10   35 1   
    23   11   26 1   
    24   12   36 1   
    25   13   18 1   
    26   13   25 1   
    27   13   36 1   
    28   14   21 1   
    29   14   26 1   
    30   14   29 1   
    31   15   30 1   
    32   15   33 1   
    33   16   24 1   
    34   16   31 1   
    35   16   34 1   
    36   17   27 1   
    37   17   32 1   
    38   18   44 1   
    39   18   45 1   
    40   18   46 1   
    41   19   22 1   
    42   19   35 1   
    43   19   56 1   
    44   19   57 1   
    45   20   24 1   
    46   20   41 1   
    47   20   42 1   
    48   21   23 1   
    49   21   47 1   
    50   21   48 1   
    51   22   27 1   
    52   22   54 1   
    53   22   55 1   
    54   23   28 1   
    55   23   52 1   
    56   23   53 1   
    57   24   34 1   
    58   24   49 1   
    59   26   43 1   
    60   26   60 1   
    61   27   51 1   
    62   27   61 1   
    63   28   50 1   
    64   28   62 1   
@<TRIPOS>SUBSTRUCTURE
     1 W7E         1 TEMP              0 ****  ****    0 ROOT
