@<TRIPOS>MOLECULE
W7E
   60    62     1     0     0
SMALL
bcc


@<TRIPOS>ATOM
      1 C28        -4.0850    1.8500   -2.1220 ca        1 W7E     -0.149000
      2 C24        -1.9440    2.5120   -1.1630 ca        1 W7E     -0.149000
      3 C27        -4.6410    1.8320   -0.8470 ca        1 W7E     -0.114000
      4 C25        -2.5150    2.4820    0.1060 ca        1 W7E     -0.114000
      5 C5          5.0640    0.1390   -0.8440 ca        1 W7E     -0.057000
      6 C6          3.8090   -0.3360   -0.5330 ca        1 W7E     -0.179000
      7 C8          4.4520   -0.6890    1.8020 ca        1 W7E     -0.159000
      8 C26        -3.8410    2.0650    0.2830 ca        1 W7E     -0.030300
      9 C4          6.0520    0.2110    0.1600 ca        1 W7E      0.019400
     10 C23        -2.7200    2.1300   -2.2630 ca        1 W7E      0.038100
     11 C7          3.4690   -0.7580    0.7940 ca        1 W7E      0.127600
     12 C9          5.7180   -0.2150    1.4870 ca        1 W7E     -0.029100
     13 C2          8.0100    0.5930    1.1500 cc        1 W7E      0.329200
     14 C12         1.6930   -1.9200    2.1140 c         1 W7E      0.678100
     15 C31        -3.4850   -0.5800    1.2670 c         1 W7E      0.931100
     16 C34        -5.1400   -0.0580    3.2020 c         1 W7E      0.931100
     17 C17        -0.5180   -1.6670   -1.1760 c         1 W7E      0.751100
     18 C1          9.4160    0.9870    1.3770 c3        1 W7E     -0.103400
     19 C21        -1.8750    0.6370   -3.8570 c3        1 W7E      0.124400
     20 C29        -4.3550    1.7370    1.6410 c3        1 W7E     -0.021100
     21 C14         0.2500   -2.3660    2.0530 c3        1 W7E     -0.213400
     22 C20        -0.8510   -0.0220   -2.9240 c3        1 W7E      0.072000
     23 C15        -0.1160   -3.1140    0.7630 c3        1 W7E      0.105000
     24 C30        -4.6650    0.2470    1.7650 c3        1 W7E     -0.245700
     25 N3          7.3680    0.6660   -0.0030 nd        1 W7E     -0.519100
     26 N11         2.1700   -1.1960    1.0200 n         1 W7E     -0.465100
     27 N19        -1.4180   -0.9200   -1.9530 n         1 W7E     -0.545900
     28 N16        -1.0170   -2.4420   -0.1290 n         1 W7E     -0.536900
     29 O13         2.4160   -2.1740    3.1000 o         1 W7E     -0.636100
     30 O32        -2.3840   -0.6810    1.8910 o         1 W7E     -0.881550
     31 O35        -4.9730    0.8180    4.1050 o         1 W7E     -0.881550
     32 O18         0.7100   -1.7150   -1.5150 o         1 W7E     -0.773100
     33 O33        -3.5820   -1.1530    0.1220 o         1 W7E     -0.881550
     34 O36        -5.7690   -1.1360    3.4120 o         1 W7E     -0.881550
     35 O22        -2.1110    2.0090   -3.5140 os        1 W7E     -0.368900
     36 S10         7.0760   -0.0250    2.4880 ss        1 W7E     -0.105100
     37 H25        -1.8980    2.7080    0.9900 ha        1 W7E      0.136500
     38 H24        -0.8880    2.7780   -1.3020 ha        1 W7E      0.118500
     39 H27        -5.6940    1.5450   -0.7080 ha        1 W7E      0.136500
     40 H28        -4.6860    1.5910   -3.0040 ha        1 W7E      0.118500
     41 H8          4.2210   -1.0110    2.8310 ha        1 W7E      0.181000
     42 H291       -3.6040    2.0030    2.4320 hc        1 W7E      0.053700
     43 H292       -5.2890    2.3200    1.8540 hc        1 W7E      0.053700
     44 H11         1.5420   -1.1120    0.2370 hn        1 W7E      0.365500
     45 H11C        9.5630    2.0710    1.1420 hc        1 W7E      0.046700
     46 H12C        9.6950    0.8120    2.4460 hc        1 W7E      0.046700
     47 H13C       10.1030    0.3900    0.7260 hc        1 W7E      0.046700
     48 H141        0.0810   -3.0450    2.9300 hc        1 W7E      0.126200
     49 H142       -0.4310   -1.4720    2.2050 hc        1 W7E      0.126200
     50 H30        -5.5320    0.0020    1.0890 hc        1 W7E      0.035700
     51 H16        -1.9040   -2.1390    0.2890 hn        1 W7E      0.401500
     52 H19        -2.2980   -0.6700   -1.5260 hn        1 W7E      0.368500
     53 H151        0.8150   -3.4130    0.2040 h1        1 W7E      0.045200
     54 H152       -0.6500   -4.0610    1.0740 h1        1 W7E      0.045200
     55 H201       -0.1210   -0.6120   -3.5520 h1        1 W7E      0.040700
     56 H202       -0.2630    0.8000   -2.4160 h1        1 W7E      0.040700
     57 H211       -1.4470    0.7060   -4.8920 h1        1 W7E      0.045700
     58 H212       -2.8500    0.0850   -3.8830 h1        1 W7E      0.045700
     59 H5          5.3020    0.4590   -1.8690 ha        1 W7E      0.137000
     60 H6          3.0410   -0.4060   -1.3260 ha        1 W7E      0.169000
@<TRIPOS>BOND
     1    1    3 ar  
     2    1   10 ar  
     3    1   40 1   
     4    2    4 ar  
     5    2   10 ar  
     6    2   38 1   
     7    3    8 ar  
     8    3   39 1   
     9    4    8 ar  
    10    4   37 1   
    11    5    6 ar  
    12    5    9 ar  
    13    5   59 1   
    14    6   11 ar  
    15    6   60 1   
    16    7   11 ar  
    17    7   12 ar  
    18    7   41 1   
    19    8   20 1   
    20    9   12 ar  
    21    9   25 1   
    22   10   35 1   
    23   11   26 1   
    24   12   36 1   
    25   13   18 1   
    26   13   25 2   
    27   13   36 1   
    28   14   21 1   
    29   14   26 1   
    30   14   29 2   
    31   15   24 1   
    32   15   30 1   
    33   15   33 1   
    34   16   24 1   
    35   16   31 1   
    36   16   34 1   
    37   17   27 1   
    38   17   28 1   
    39   17   32 2   
    40   18   45 1   
    41   18   46 1   
    42   18   47 1   
    43   19   22 1   
    44   19   35 1   
    45   19   57 1   
    46   19   58 1   
    47   20   24 1   
    48   20   42 1   
    49   20   43 1   
    50   21   23 1   
    51   21   48 1   
    52   21   49 1   
    53   22   27 1   
    54   22   55 1   
    55   22   56 1   
    56   23   28 1   
    57   23   53 1   
    58   23   54 1   
    59   24   50 1   
    60   26   44 1   
    61   27   52 1   
    62   28   51 1   
@<TRIPOS>SUBSTRUCTURE
     1 W7E         1 TEMP              0 ****  ****    0 ROOT
