@<TRIPOS>MOLECULE
W7F
   40    42     1     0     0
SMALL
bcc


@<TRIPOS>ATOM
      1 OAB         0.2550    0.9550    0.5880 o         1 W7F     -0.798800
      2 CAQ         1.2440    0.1930    0.4520 c         1 W7F      0.922800
      3 OAE         1.8290   -0.4350    1.3690 o         1 W7F     -0.798800
      4 CAT         1.8360    0.0310   -0.9760 cc        1 W7F      0.049400
      5 NAN         3.2210    0.0710   -1.0410 ns        1 W7F     -0.437100
      6 CAV         3.9140   -0.1130   -2.2450 c         1 W7F      0.792500
      7 OAC         5.1690   -0.1120   -2.2840 o         1 W7F     -0.693500
      8 NAO         3.1620   -0.2800   -3.4160 ns        1 W7F     -0.592500
      9 CAW         1.7520   -0.3170   -3.4110 c         1 W7F      0.716700
     10 OAD         1.1860   -0.4890   -4.5100 o         1 W7F     -0.665500
     11 CAU         1.0880   -0.1510   -2.1120 cd        1 W7F     -0.289400
     12 CAM        -0.3950   -0.2070   -2.1120 c3        1 W7F      0.008800
     13 CAL        -0.9990    1.1310   -2.5170 c3        1 W7F     -0.044100
     14 CAS        -2.4770    1.0520   -2.6920 ca        1 W7F     -0.046300
     15 CAY        -3.3600    1.1120   -1.5670 ca        1 W7F      0.002000
     16 CAK        -2.8740    1.2050   -0.2350 ca        1 W7F     -0.199000
     17 CAR        -3.7610    1.2640    0.8210 ca        1 W7F      0.121100
     18 OAP        -3.3980    1.3560    2.1480 os        1 W7F     -0.352900
     19 CAA        -1.9940    1.3270    2.4170 c3        1 W7F      0.109700
     20 CAH        -5.1710    1.2370    0.6030 ca        1 W7F     -0.145000
     21 CAJ        -5.6470    1.1430   -0.6780 ca        1 W7F     -0.117000
     22 CAX        -4.7620    1.0740   -1.7890 ca        1 W7F     -0.069000
     23 CAI        -5.2630    0.9620   -3.1140 ca        1 W7F     -0.130000
     24 CAF        -4.3990    0.8910   -4.1760 ca        1 W7F     -0.141000
     25 CAG        -3.0030    0.9370   -3.9630 ca        1 W7F     -0.140000
     26 H2          3.6590   -0.3950   -4.2690 hn        1 W7F      0.331500
     27 H4         -0.7320   -1.0000   -2.8330 hc        1 W7F      0.059200
     28 H5         -0.7610   -0.4800   -1.0850 hc        1 W7F      0.059200
     29 H6         -0.5250    1.4600   -3.4810 hc        1 W7F      0.060700
     30 H7         -0.7400    1.8950   -1.7340 hc        1 W7F      0.060700
     31 H8         -1.7810    1.2150   -0.0600 ha        1 W7F      0.208000
     32 H9         -1.9470    1.3720    3.5330 h1        1 W7F      0.058700
     33 H10        -1.5280    0.3880    2.0290 h1        1 W7F      0.058700
     34 H11        -1.4870    2.2090    1.9560 h1        1 W7F      0.058700
     35 H12        -5.8410    1.2890    1.4710 ha        1 W7F      0.134000
     36 H13        -6.7310    1.1160   -0.8680 ha        1 W7F      0.118000
     37 H14        -6.3510    0.9320   -3.2660 ha        1 W7F      0.115000
     38 H15        -4.7770    0.7980   -5.2040 ha        1 W7F      0.116000
     39 H16        -2.3300    0.8770   -4.8320 ha        1 W7F      0.134000
     40 H17         3.7410    0.0770   -0.1880 hn        1 W7F      0.364500
@<TRIPOS>BOND
     1    1    2 1   
     2    2    3 1   
     3    2    4 1   
     4    4    5 1   
     5    4   11 2   
     6    5    6 1   
     7    5   40 1   
     8    6    7 2   
     9    6    8 1   
    10    8    9 1   
    11    8   26 1   
    12    9   10 2   
    13    9   11 1   
    14   11   12 1   
    15   12   13 1   
    16   12   27 1   
    17   12   28 1   
    18   13   14 1   
    19   13   29 1   
    20   13   30 1   
    21   14   15 ar  
    22   14   25 ar  
    23   15   16 ar  
    24   15   22 ar  
    25   16   17 ar  
    26   16   31 1   
    27   17   18 1   
    28   17   20 ar  
    29   18   19 1   
    30   19   32 1   
    31   19   33 1   
    32   19   34 1   
    33   20   21 ar  
    34   20   35 1   
    35   21   22 ar  
    36   21   36 1   
    37   22   23 ar  
    38   23   24 ar  
    39   23   37 1   
    40   24   25 ar  
    41   24   38 1   
    42   25   39 1   
@<TRIPOS>SUBSTRUCTURE
     1 W7F         1 TEMP              0 ****  ****    0 ROOT
