@<TRIPOS>MOLECULE
W7F
   40    42     1     0     0
SMALL
bcc


@<TRIPOS>ATOM
      1 OAB         0.2560    0.9500    0.5870 o         1 W7F     -0.798800
      2 CAQ         1.2420    0.1820    0.4530 c         1 W7F      0.922800
      3 OAE         1.8230   -0.4470    1.3720 o         1 W7F     -0.798800
      4 CAT         1.8330    0.0150   -0.9750 cc        1 W7F      0.049400
      5 NAN         3.2180    0.0470   -1.0400 n         1 W7F     -0.437100
      6 CAV         3.9100   -0.1430   -2.2440 c         1 W7F      0.792500
      7 OAC         5.1650   -0.1490   -2.2820 o         1 W7F     -0.693500
      8 NAO         3.1560   -0.3080   -3.4150 n         1 W7F     -0.592500
      9 CAW         1.7470   -0.3370   -3.4090 c         1 W7F      0.716700
     10 OAD         1.1800   -0.5080   -4.5080 o         1 W7F     -0.665500
     11 CAU         1.0840   -0.1660   -2.1110 cd        1 W7F     -0.289400
     12 CAM        -0.4000   -0.2130   -2.1100 c3        1 W7F      0.008800
     13 CAL        -0.9960    1.1270   -2.5180 c3        1 W7F     -0.044100
     14 CAS        -2.4750    1.0550   -2.6930 ca        1 W7F     -0.046300
     15 CAY        -3.3570    1.1230   -1.5680 ca        1 W7F      0.002000
     16 CAK        -2.8710    1.2170   -0.2360 ca        1 W7F     -0.199000
     17 CAR        -3.7580    1.2830    0.8200 ca        1 W7F      0.121100
     18 OAP        -3.3940    1.3760    2.1470 os        1 W7F     -0.352900
     19 CAA        -1.9900    1.3390    2.4150 c3        1 W7F      0.109700
     20 CAH        -5.1670    1.2630    0.6020 ca        1 W7F     -0.145000
     21 CAJ        -5.6450    1.1680   -0.6780 ca        1 W7F     -0.117000
     22 CAX        -4.7600    1.0920   -1.7900 ca        1 W7F     -0.069000
     23 CAI        -5.2610    0.9800   -3.1140 ca        1 W7F     -0.130000
     24 CAF        -4.3970    0.9010   -4.1770 ca        1 W7F     -0.141000
     25 CAG        -3.0010    0.9410   -3.9630 ca        1 W7F     -0.140000
     26 H2          3.6530   -0.4280   -4.2680 hn        1 W7F      0.331500
     27 H4         -0.7410   -1.0060   -2.8290 hc        1 W7F      0.059200
     28 H5         -0.7680   -0.4820   -1.0820 hc        1 W7F      0.059200
     29 H6         -0.5200    1.4510   -3.4830 hc        1 W7F      0.060700
     30 H7         -0.7330    1.8910   -1.7370 hc        1 W7F      0.060700
     31 H8         -1.7770    1.2200   -0.0610 ha        1 W7F      0.208000
     32 H9         -1.9420    1.3860    3.5310 h1        1 W7F      0.058700
     33 H10        -1.5290    0.3970    2.0300 h1        1 W7F      0.058700
     34 H11        -1.4780    2.2180    1.9530 h1        1 W7F      0.058700
     35 H12        -5.8370    1.3200    1.4700 ha        1 W7F      0.134000
     36 H13        -6.7280    1.1470   -0.8690 ha        1 W7F      0.118000
     37 H14        -6.3500    0.9550   -3.2660 ha        1 W7F      0.115000
     38 H15        -4.7770    0.8080   -5.2040 ha        1 W7F      0.116000
     39 H16        -2.3290    0.8750   -4.8330 ha        1 W7F      0.134000
     40 H17         3.7380    0.0520   -0.1870 hn        1 W7F      0.364500
@<TRIPOS>BOND
     1    1    2 1   
     2    2    3 1   
     3    2    4 1   
     4    4    5 1   
     5    4   11 2   
     6    5    6 1   
     7    5   40 1   
     8    6    7 2   
     9    6    8 1   
    10    8    9 1   
    11    8   26 1   
    12    9   10 2   
    13    9   11 1   
    14   11   12 1   
    15   12   13 1   
    16   12   27 1   
    17   12   28 1   
    18   13   14 1   
    19   13   29 1   
    20   13   30 1   
    21   14   15 ar  
    22   14   25 ar  
    23   15   16 ar  
    24   15   22 ar  
    25   16   17 ar  
    26   16   31 1   
    27   17   18 1   
    28   17   20 ar  
    29   18   19 1   
    30   19   32 1   
    31   19   33 1   
    32   19   34 1   
    33   20   21 ar  
    34   20   35 1   
    35   21   22 ar  
    36   21   36 1   
    37   22   23 ar  
    38   23   24 ar  
    39   23   37 1   
    40   24   25 ar  
    41   24   38 1   
    42   25   39 1   
@<TRIPOS>SUBSTRUCTURE
     1 W7F         1 TEMP              0 ****  ****    0 ROOT
