@<TRIPOS>MOLECULE
W7F
   40    42     1     0     0
SMALL
bcc


@<TRIPOS>ATOM
      1 OAB         0.2600    0.9380    0.5870 o         1 W7F     -0.798800
      2 CAQ         1.2470    0.1750    0.4430 c         1 W7F      0.922800
      3 OAE         1.8330   -0.4610    1.3550 o         1 W7F     -0.798800
      4 CAT         1.8360    0.0210   -0.9870 cc        1 W7F      0.049400
      5 NAN         3.2210    0.0580   -1.0550 n         1 W7F     -0.437100
      6 CAV         3.9100   -0.1190   -2.2610 c         1 W7F      0.792500
      7 OAC         5.1650   -0.1210   -2.3030 o         1 W7F     -0.693500
      8 NAO         3.1550   -0.2760   -3.4320 n         1 W7F     -0.592500
      9 CAW         1.7450   -0.3100   -3.4240 c         1 W7F      0.716700
     10 OAD         1.1770   -0.4730   -4.5230 o         1 W7F     -0.665500
     11 CAU         1.0850   -0.1520   -2.1230 cd        1 W7F     -0.289400
     12 CAM        -0.3990   -0.2040   -2.1190 c3        1 W7F      0.008800
     13 CAL        -1.0000    1.1380   -2.5140 c3        1 W7F     -0.044100
     14 CAS        -2.4790    1.0630   -2.6860 ca        1 W7F     -0.046300
     15 CAY        -3.3590    1.1190   -1.5590 ca        1 W7F      0.002000
     16 CAK        -2.8700    1.2020   -0.2280 ca        1 W7F     -0.199000
     17 CAR        -3.7550    1.2560    0.8310 ca        1 W7F      0.121100
     18 OAP        -3.3890    1.3390    2.1580 os        1 W7F     -0.352900
     19 CAA        -1.9840    1.3040    2.4230 c3        1 W7F      0.109700
     20 CAH        -5.1650    1.2330    0.6150 ca        1 W7F     -0.145000
     21 CAJ        -5.6450    1.1480   -0.6650 ca        1 W7F     -0.117000
     22 CAX        -4.7620    1.0850   -1.7780 ca        1 W7F     -0.069000
     23 CAI        -5.2660    0.9830   -3.1020 ca        1 W7F     -0.130000
     24 CAF        -4.4040    0.9160   -4.1680 ca        1 W7F     -0.141000
     25 CAG        -3.0080    0.9580   -3.9570 ca        1 W7F     -0.140000
     26 H2          3.6500   -0.3870   -4.2870 hn        1 W7F      0.331500
     27 H4         -0.7390   -0.9910   -2.8450 hc        1 W7F      0.059200
     28 H5         -0.7640   -0.4830   -1.0930 hc        1 W7F      0.059200
     29 H6         -0.7380    1.8960   -1.7260 hc        1 W7F      0.060700
     30 H7         -0.5270    1.4720   -3.4780 hc        1 W7F      0.060700
     31 H8         -1.7760    1.2080   -0.0550 ha        1 W7F      0.208000
     32 H9         -1.9340    1.3420    3.5390 h1        1 W7F      0.058700
     33 H10        -1.4760    2.1880    1.9670 h1        1 W7F      0.058700
     34 H11        -1.5210    0.3670    2.0280 h1        1 W7F      0.058700
     35 H12        -5.8330    1.2820    1.4860 ha        1 W7F      0.134000
     36 H13        -6.7290    1.1250   -0.8530 ha        1 W7F      0.118000
     37 H14        -6.3550    0.9560   -3.2520 ha        1 W7F      0.115000
     38 H15        -4.7850    0.8310   -5.1950 ha        1 W7F      0.116000
     39 H16        -2.3370    0.9020   -4.8280 ha        1 W7F      0.134000
     40 H17         3.7420    0.0570   -0.2030 hn        1 W7F      0.364500
@<TRIPOS>BOND
     1    1    2 1   
     2    2    3 1   
     3    2    4 1   
     4    4    5 1   
     5    4   11 2   
     6    5    6 1   
     7    5   40 1   
     8    6    7 2   
     9    6    8 1   
    10    8    9 1   
    11    8   26 1   
    12    9   10 2   
    13    9   11 1   
    14   11   12 1   
    15   12   13 1   
    16   12   27 1   
    17   12   28 1   
    18   13   14 1   
    19   13   29 1   
    20   13   30 1   
    21   14   15 ar  
    22   14   25 ar  
    23   15   16 ar  
    24   15   22 ar  
    25   16   17 ar  
    26   16   31 1   
    27   17   18 1   
    28   17   20 ar  
    29   18   19 1   
    30   19   32 1   
    31   19   33 1   
    32   19   34 1   
    33   20   21 ar  
    34   20   35 1   
    35   21   22 ar  
    36   21   36 1   
    37   22   23 ar  
    38   23   24 ar  
    39   23   37 1   
    40   24   25 ar  
    41   24   38 1   
    42   25   39 1   
@<TRIPOS>SUBSTRUCTURE
     1 W7F         1 TEMP              0 ****  ****    0 ROOT
