@<TRIPOS>MOLECULE
W7G
   34    35     1     0     0
SMALL
bcc


@<TRIPOS>ATOM
      1 OAB         0.1290    1.4960   -0.3390 o         1 W7G     -0.792800
      2 CAO         1.0400    0.6890   -0.0230 c         1 W7G      0.922800
      3 OAE         1.2400    0.1950    1.1110 o         1 W7G     -0.792800
      4 CAR         1.9860    0.2510   -1.1830 cc        1 W7G      0.048400
      5 NAL         1.3570    0.0720   -2.4060 n         1 W7G     -0.436100
      6 CAT         2.0660   -0.2420   -3.5720 c         1 W7G      0.791500
      7 OAC         1.4860   -0.3660   -4.6790 o         1 W7G     -0.695500
      8 NAM         3.4510   -0.4360   -3.4650 n         1 W7G     -0.591500
      9 CAU         4.1430   -0.2780   -2.2470 c         1 W7G      0.715700
     10 OAD         5.3810   -0.4390   -2.2750 o         1 W7G     -0.671500
     11 CAS         3.3420    0.0680   -1.0660 cd        1 W7G     -0.291400
     12 CAK         4.0830    0.2240    0.2100 c3        1 W7G      0.003800
     13 CAJ         4.5620   -1.1190    0.7470 c3        1 W7G     -0.044100
     14 CAP         5.4390   -0.9560    1.9380 ca        1 W7G     -0.069300
     15 CAH         6.6960   -0.3530    1.7960 ca        1 W7G     -0.122000
     16 CAF         7.5480   -0.2000    2.8860 ca        1 W7G     -0.150000
     17 CAG         7.1600   -0.6530    4.1480 ca        1 W7G     -0.140000
     18 CAI         5.9180   -1.2560    4.3170 ca        1 W7G     -0.151000
     19 CAQ         5.0630   -1.4120    3.2150 ca        1 W7G      0.104100
     20 OAN         3.8910   -2.1290    3.4170 os        1 W7G     -0.363900
     21 CAA         2.7180   -1.3120    3.4950 c3        1 W7G      0.103700
     22 H2          3.9490   -0.6670   -4.2940 hn        1 W7G      0.331500
     23 H4          3.4230    0.7160    0.9750 hc        1 W7G      0.060200
     24 H5          4.9740    0.8860    0.0320 hc        1 W7G      0.060200
     25 H6          5.1400   -1.6480   -0.0590 hc        1 W7G      0.065200
     26 H7          3.6710   -1.7530    1.0040 hc        1 W7G      0.065200
     27 H8          7.0050    0.0010    0.7990 ha        1 W7G      0.142000
     28 H9          8.5280    0.2780    2.7520 ha        1 W7G      0.118000
     29 H10         7.8330   -0.5320    5.0080 ha        1 W7G      0.116000
     30 H11         5.5960   -1.6240    5.3020 ha        1 W7G      0.132000
     31 H12         2.7390   -0.7230    4.4440 h1        1 W7G      0.054700
     32 H13         1.8810   -2.0540    3.5070 h1        1 W7G      0.054700
     33 H14         2.6270   -0.6350    2.6080 h1        1 W7G      0.054700
     34 H15         0.3950    0.3320   -2.4890 hn        1 W7G      0.366500
@<TRIPOS>BOND
     1    1    2 1   
     2    2    3 1   
     3    2    4 1   
     4    4    5 1   
     5    4   11 2   
     6    5    6 1   
     7    5   34 1   
     8    6    7 2   
     9    6    8 1   
    10    8    9 1   
    11    8   22 1   
    12    9   10 2   
    13    9   11 1   
    14   11   12 1   
    15   12   13 1   
    16   12   23 1   
    17   12   24 1   
    18   13   14 1   
    19   13   25 1   
    20   13   26 1   
    21   14   15 ar  
    22   14   19 ar  
    23   15   16 ar  
    24   15   27 1   
    25   16   17 ar  
    26   16   28 1   
    27   17   18 ar  
    28   17   29 1   
    29   18   19 ar  
    30   18   30 1   
    31   19   20 1   
    32   20   21 1   
    33   21   31 1   
    34   21   32 1   
    35   21   33 1   
@<TRIPOS>SUBSTRUCTURE
     1 W7G         1 TEMP              0 ****  ****    0 ROOT
