@<TRIPOS>MOLECULE
W7G
   34    35     1     0     0
SMALL
bcc


@<TRIPOS>ATOM
      1 OAB         0.0850   -0.4100    0.1210 o         1 W7G     -0.791800
      2 CAO         1.1450    0.2660    0.1590 c         1 W7G      0.918800
      3 OAE         1.5200    1.0090    1.0960 o         1 W7G     -0.791800
      4 CAR         2.0510    0.1740   -1.1070 cc        1 W7G      0.048400
      5 NAL         1.3590    0.1150   -2.3080 n         1 W7G     -0.436100
      6 CAT         2.0110   -0.0370   -3.5380 c         1 W7G      0.791500
      7 OAC         1.3680   -0.1280   -4.6140 o         1 W7G     -0.695500
      8 NAM         3.4130   -0.0640   -3.5390 n         1 W7G     -0.591500
      9 CAU         4.1700    0.0090   -2.3520 c         1 W7G      0.715700
     10 OAD         5.4120   -0.0380   -2.4680 o         1 W7G     -0.670500
     11 CAS         3.4240    0.1350   -1.0930 cd        1 W7G     -0.288400
     12 CAK         4.2350    0.2380    0.1450 c3        1 W7G     -0.010200
     13 CAJ         4.5830   -1.1360    0.7020 c3        1 W7G     -0.042100
     14 CAP         5.4320   -1.0310    1.9190 ca        1 W7G     -0.070300
     15 CAH         6.7520   -0.5730    1.8100 ca        1 W7G     -0.122000
     16 CAF         7.5720   -0.4750    2.9310 ca        1 W7G     -0.150000
     17 CAG         7.0870   -0.8360    4.1890 ca        1 W7G     -0.139000
     18 CAI         5.7800   -1.2930    4.3250 ca        1 W7G     -0.150000
     19 CAQ         4.9570   -1.3940    3.1930 ca        1 W7G      0.106100
     20 OAN         3.7050   -1.9700    3.3620 os        1 W7G     -0.363900
     21 CAA         2.6310   -1.0230    3.4060 c3        1 W7G      0.103700
     22 H2          3.8710   -0.1570   -4.4160 hn        1 W7G      0.331500
     23 H4          5.1860    0.7910   -0.0860 hc        1 W7G      0.070200
     24 H5          3.6680    0.8280    0.9180 hc        1 W7G      0.070200
     25 H6          5.1360   -1.7200   -0.0830 hc        1 W7G      0.059700
     26 H7          3.6380   -1.6940    0.9390 hc        1 W7G      0.059700
     27 H8          7.1340   -0.2870    0.8180 ha        1 W7G      0.140000
     28 H9          8.6040   -0.1120    2.8240 ha        1 W7G      0.118000
     29 H10         7.7360   -0.7580    5.0720 ha        1 W7G      0.116000
     30 H11         5.3820   -1.5840    5.3070 ha        1 W7G      0.132000
     31 H12         1.7160   -1.6660    3.4260 h1        1 W7G      0.055033
     32 H13         2.6250   -0.3630    2.5010 h1        1 W7G      0.055033
     33 H14         2.7090   -0.4140    4.3380 h1        1 W7G      0.055033
     34 H15         0.3640    0.0210   -2.2800 hn        1 W7G      0.366500
@<TRIPOS>BOND
     1    1    2 1   
     2    2    3 1   
     3    2    4 1   
     4    4    5 1   
     5    4   11 2   
     6    5    6 1   
     7    5   34 1   
     8    6    7 2   
     9    6    8 1   
    10    8    9 1   
    11    8   22 1   
    12    9   10 2   
    13    9   11 1   
    14   11   12 1   
    15   12   13 1   
    16   12   23 1   
    17   12   24 1   
    18   13   14 1   
    19   13   25 1   
    20   13   26 1   
    21   14   15 ar  
    22   14   19 ar  
    23   15   16 ar  
    24   15   27 1   
    25   16   17 ar  
    26   16   28 1   
    27   17   18 ar  
    28   17   29 1   
    29   18   19 ar  
    30   18   30 1   
    31   19   20 1   
    32   20   21 1   
    33   21   31 1   
    34   21   32 1   
    35   21   33 1   
@<TRIPOS>SUBSTRUCTURE
     1 W7G         1 TEMP              0 ****  ****    0 ROOT
