@<TRIPOS>MOLECULE
W7G
   34    35     1     0     0
SMALL
bcc


@<TRIPOS>ATOM
      1 OAB         0.1530    1.5600   -0.3120 o         1 W7G     -0.792800
      2 CAO         1.0540    0.7380   -0.0050 c         1 W7G      0.922800
      3 OAE         1.2520    0.2350    1.1260 o         1 W7G     -0.792800
      4 CAR         1.9890    0.2910   -1.1710 cc        1 W7G      0.048400
      5 NAL         1.3520    0.1290   -2.3930 ns        1 W7G     -0.436100
      6 CAT         2.0520   -0.1890   -3.5620 c         1 W7G      0.791500
      7 OAC         1.4660   -0.2990   -4.6680 o         1 W7G     -0.695500
      8 NAM         3.4340   -0.4040   -3.4620 ns        1 W7G     -0.591500
      9 CAU         4.1340   -0.2630   -2.2460 c         1 W7G      0.715700
     10 OAD         5.3690   -0.4420   -2.2810 o         1 W7G     -0.671500
     11 CAS         3.3430    0.0880   -1.0600 cd        1 W7G     -0.291400
     12 CAK         4.0910    0.2250    0.2140 c3        1 W7G      0.003800
     13 CAJ         4.5510   -1.1270    0.7420 c3        1 W7G     -0.044100
     14 CAP         5.4360   -0.9850    1.9290 ca        1 W7G     -0.069300
     15 CAH         6.7010   -0.4000    1.7840 ca        1 W7G     -0.122000
     16 CAF         7.5610   -0.2670    2.8720 ca        1 W7G     -0.150000
     17 CAG         7.1710   -0.7200    4.1330 ca        1 W7G     -0.140000
     18 CAI         5.9200   -1.3050    4.3050 ca        1 W7G     -0.151000
     19 CAQ         5.0580   -1.4410    3.2060 ca        1 W7G      0.104100
     20 OAN         3.8760   -2.1400    3.4090 os        1 W7G     -0.363900
     21 CAA         2.7170   -1.3050    3.4970 c3        1 W7G      0.103700
     22 H2          3.9250   -0.6380   -4.2950 hn        1 W7G      0.331500
     23 H4          4.9920    0.8750    0.0360 hc        1 W7G      0.060200
     24 H5          3.4410    0.7250    0.9840 hc        1 W7G      0.060200
     25 H6          5.1170   -1.6610   -0.0700 hc        1 W7G      0.065200
     26 H7          3.6520   -1.7480    1.0000 hc        1 W7G      0.065200
     27 H8          7.0110   -0.0470    0.7880 ha        1 W7G      0.142000
     28 H9          8.5480    0.1960    2.7360 ha        1 W7G      0.118000
     29 H10         7.8500   -0.6150    4.9900 ha        1 W7G      0.116000
     30 H11         5.5980   -1.6720    5.2890 ha        1 W7G      0.132000
     31 H12         1.8680   -2.0330    3.5090 h1        1 W7G      0.054700
     32 H13         2.6330   -0.6220    2.6140 h1        1 W7G      0.054700
     33 H14         2.7510   -0.7210    4.4490 h1        1 W7G      0.054700
     34 H15         0.3940    0.4040   -2.4700 hn        1 W7G      0.366500
@<TRIPOS>BOND
     1    1    2 1   
     2    2    3 1   
     3    2    4 1   
     4    4    5 1   
     5    4   11 2   
     6    5    6 1   
     7    5   34 1   
     8    6    7 2   
     9    6    8 1   
    10    8    9 1   
    11    8   22 1   
    12    9   10 2   
    13    9   11 1   
    14   11   12 1   
    15   12   13 1   
    16   12   23 1   
    17   12   24 1   
    18   13   14 1   
    19   13   25 1   
    20   13   26 1   
    21   14   15 ar  
    22   14   19 ar  
    23   15   16 ar  
    24   15   27 1   
    25   16   17 ar  
    26   16   28 1   
    27   17   18 ar  
    28   17   29 1   
    29   18   19 ar  
    30   18   30 1   
    31   19   20 1   
    32   20   21 1   
    33   21   31 1   
    34   21   32 1   
    35   21   33 1   
@<TRIPOS>SUBSTRUCTURE
     1 W7G         1 TEMP              0 ****  ****    0 ROOT
