@<TRIPOS>MOLECULE
W7H
   36    38     1     0     0
SMALL
bcc


@<TRIPOS>ATOM
      1 OAA         0.1420    0.1820    0.1940 o         1 W7H     -0.793800
      2 CAP         1.3240   -0.2460    0.1760 c         1 W7H      0.921800
      3 OAD         1.9470   -0.7610    1.1350 o         1 W7H     -0.793800
      4 CAS         2.0650   -0.1410   -1.1920 cc        1 W7H      0.044400
      5 NAN         1.2660   -0.3310   -2.3090 ns        1 W7H     -0.436100
      6 CAT         1.7660   -0.2060   -3.6110 c         1 W7H      0.791500
      7 OAB         1.0220   -0.3460   -4.6150 o         1 W7H     -0.695500
      8 NAO         3.1340    0.0610   -3.7680 ns        1 W7H     -0.592500
      9 CAU         3.9970    0.2520   -2.6690 c         1 W7H      0.716700
     10 OAC         5.1910    0.5100   -2.9250 o         1 W7H     -0.667500
     11 CAR         3.4040    0.1320   -1.3320 cd        1 W7H     -0.292400
     12 CAM         4.3110    0.3280   -0.1740 c3        1 W7H      0.009800
     13 CAL         4.9360   -0.9890    0.2690 c3        1 W7H     -0.042100
     14 CAQ         5.6100   -0.8530    1.5890 ca        1 W7H     -0.044300
     15 CAK         6.9810   -0.8760    1.7150 ca        1 W7H     -0.143000
     16 CAW         7.5950   -0.7630    2.9920 ca        1 W7H     -0.036000
     17 CAI         9.0080   -0.7840    3.1440 ca        1 W7H     -0.116000
     18 CAF         9.5800   -0.6740    4.3890 ca        1 W7H     -0.146000
     19 CAE         8.7670   -0.5360    5.5380 ca        1 W7H     -0.148000
     20 CAH         7.3980   -0.5110    5.4190 ca        1 W7H     -0.116000
     21 CAV         6.7800   -0.6240    4.1450 ca        1 W7H     -0.043000
     22 CAJ         5.3660   -0.6010    3.9900 ca        1 W7H     -0.142000
     23 CAG         4.7950   -0.7120    2.7490 ca        1 W7H     -0.105000
     24 H2          3.4840    0.1380   -4.6950 hn        1 W7H      0.331500
     25 H4          5.1210    1.0540   -0.4520 hc        1 W7H      0.058200
     26 H5          3.7250    0.7560    0.6850 hc        1 W7H      0.058200
     27 H6          5.6600   -1.3410   -0.5110 hc        1 W7H      0.061200
     28 H7          4.1130   -1.7520    0.3630 hc        1 W7H      0.061200
     29 H8          7.6230   -0.9810    0.8280 ha        1 W7H      0.129000
     30 H9          9.6320   -0.8910    2.2450 ha        1 W7H      0.124000
     31 H10        10.6730   -0.6900    4.5070 ha        1 W7H      0.117000
     32 H11         9.2450   -0.4490    6.5240 ha        1 W7H      0.117000
     33 H12         6.7570   -0.4040    6.3060 ha        1 W7H      0.123000
     34 H13         4.7400   -0.4920    4.8880 ha        1 W7H      0.126000
     35 H14         3.6950   -0.6970    2.6080 ha        1 W7H      0.195000
     36 H15         0.2780   -0.4090   -2.1800 hn        1 W7H      0.366500
@<TRIPOS>BOND
     1    1    2 1   
     2    2    3 1   
     3    2    4 1   
     4    4    5 1   
     5    4   11 2   
     6    5    6 1   
     7    5   36 1   
     8    6    7 2   
     9    6    8 1   
    10    8    9 1   
    11    8   24 1   
    12    9   10 2   
    13    9   11 1   
    14   11   12 1   
    15   12   13 1   
    16   12   25 1   
    17   12   26 1   
    18   13   14 1   
    19   13   27 1   
    20   13   28 1   
    21   14   15 ar  
    22   14   23 ar  
    23   15   16 ar  
    24   15   29 1   
    25   16   17 ar  
    26   16   21 ar  
    27   17   18 ar  
    28   17   30 1   
    29   18   19 ar  
    30   18   31 1   
    31   19   20 ar  
    32   19   32 1   
    33   20   21 ar  
    34   20   33 1   
    35   21   22 ar  
    36   22   23 ar  
    37   22   34 1   
    38   23   35 1   
@<TRIPOS>SUBSTRUCTURE
     1 W7H         1 TEMP              0 ****  ****    0 ROOT
