@<TRIPOS>MOLECULE
W7H
   36    38     1     0     0
SMALL
bcc


@<TRIPOS>ATOM
      1 OAA         0.1400    0.1620    0.1880 o         1 W7H     -0.793800
      2 CAP         1.3240   -0.2610    0.1710 c         1 W7H      0.921800
      3 OAD         1.9480   -0.7760    1.1300 o         1 W7H     -0.793800
      4 CAS         2.0680   -0.1500   -1.1960 cc        1 W7H      0.044400
      5 NAN         1.2710   -0.3410   -2.3150 n         1 W7H     -0.436100
      6 CAT         1.7720   -0.2100   -3.6160 c         1 W7H      0.791500
      7 OAB         1.0310   -0.3520   -4.6200 o         1 W7H     -0.695500
      8 NAO         3.1390    0.0640   -3.7690 n         1 W7H     -0.592500
      9 CAU         3.9990    0.2550   -2.6690 c         1 W7H      0.716700
     10 OAC         5.1920    0.5200   -2.9230 o         1 W7H     -0.667500
     11 CAR         3.4050    0.1300   -1.3330 cd        1 W7H     -0.292400
     12 CAM         4.3100    0.3270   -0.1740 c3        1 W7H      0.009800
     13 CAL         4.9400   -0.9870    0.2670 c3        1 W7H     -0.042100
     14 CAQ         5.6110   -0.8520    1.5890 ca        1 W7H     -0.044300
     15 CAK         6.9820   -0.8690    1.7170 ca        1 W7H     -0.143000
     16 CAW         7.5940   -0.7550    2.9950 ca        1 W7H     -0.036000
     17 CAI         9.0070   -0.7710    3.1500 ca        1 W7H     -0.116000
     18 CAF         9.5760   -0.6600    4.3950 ca        1 W7H     -0.146000
     19 CAE         8.7600   -0.5290    5.5430 ca        1 W7H     -0.148000
     20 CAH         7.3920   -0.5100    5.4220 ca        1 W7H     -0.116000
     21 CAV         6.7760   -0.6230    4.1470 ca        1 W7H     -0.043000
     22 CAJ         5.3630   -0.6060    3.9900 ca        1 W7H     -0.142000
     23 CAG         4.7930   -0.7180    2.7480 ca        1 W7H     -0.105000
     24 H2          3.4900    0.1440   -4.6960 hn        1 W7H      0.331500
     25 H4          5.1170    1.0570   -0.4480 hc        1 W7H      0.058200
     26 H5          3.7200    0.7500    0.6850 hc        1 W7H      0.058200
     27 H6          5.6670   -1.3350   -0.5120 hc        1 W7H      0.061200
     28 H7          4.1210   -1.7540    0.3590 hc        1 W7H      0.061200
     29 H8          7.6260   -0.9690    0.8310 ha        1 W7H      0.129000
     30 H9          9.6330   -0.8720    2.2510 ha        1 W7H      0.124000
     31 H10        10.6690   -0.6710    4.5150 ha        1 W7H      0.117000
     32 H11         9.2370   -0.4420    6.5300 ha        1 W7H      0.117000
     33 H12         6.7490   -0.4080    6.3090 ha        1 W7H      0.123000
     34 H13         4.7350   -0.5020    4.8870 ha        1 W7H      0.126000
     35 H14         3.6940   -0.7070    2.6060 ha        1 W7H      0.195000
     36 H15         0.2830   -0.4230   -2.1880 hn        1 W7H      0.366500
@<TRIPOS>BOND
     1    1    2 1   
     2    2    3 1   
     3    2    4 1   
     4    4    5 1   
     5    4   11 2   
     6    5    6 1   
     7    5   36 1   
     8    6    7 2   
     9    6    8 1   
    10    8    9 1   
    11    8   24 1   
    12    9   10 2   
    13    9   11 1   
    14   11   12 1   
    15   12   13 1   
    16   12   25 1   
    17   12   26 1   
    18   13   14 1   
    19   13   27 1   
    20   13   28 1   
    21   14   15 ar  
    22   14   23 ar  
    23   15   16 ar  
    24   15   29 1   
    25   16   17 ar  
    26   16   21 ar  
    27   17   18 ar  
    28   17   30 1   
    29   18   19 ar  
    30   18   31 1   
    31   19   20 ar  
    32   19   32 1   
    33   20   21 ar  
    34   20   33 1   
    35   21   22 ar  
    36   22   23 ar  
    37   22   34 1   
    38   23   35 1   
@<TRIPOS>SUBSTRUCTURE
     1 W7H         1 TEMP              0 ****  ****    0 ROOT
