@<TRIPOS>MOLECULE
W7H
   36    38     1     0     0
SMALL
bcc


@<TRIPOS>ATOM
      1 OAA         0.1400    0.1550    0.1860 o         1 W7H     -0.793800
      2 CAP         1.3240   -0.2660    0.1690 c         1 W7H      0.921800
      3 OAD         1.9490   -0.7810    1.1270 o         1 W7H     -0.793800
      4 CAS         2.0680   -0.1510   -1.1970 cc        1 W7H      0.044400
      5 NAN         1.2720   -0.3410   -2.3170 n         1 W7H     -0.436100
      6 CAT         1.7740   -0.2070   -3.6170 c         1 W7H      0.791500
      7 OAB         1.0340   -0.3480   -4.6230 o         1 W7H     -0.695500
      8 NAO         3.1400    0.0700   -3.7690 n         1 W7H     -0.592500
      9 CAU         4.0000    0.2610   -2.6680 c         1 W7H      0.716700
     10 OAC         5.1930    0.5280   -2.9210 o         1 W7H     -0.667500
     11 CAR         3.4060    0.1320   -1.3330 cd        1 W7H     -0.292400
     12 CAM         4.3090    0.3280   -0.1730 c3        1 W7H      0.009800
     13 CAL         4.9410   -0.9860    0.2660 c3        1 W7H     -0.042100
     14 CAQ         5.6110   -0.8520    1.5880 ca        1 W7H     -0.044300
     15 CAK         6.9820   -0.8680    1.7170 ca        1 W7H     -0.143000
     16 CAW         7.5930   -0.7550    2.9950 ca        1 W7H     -0.036000
     17 CAI         9.0060   -0.7690    3.1510 ca        1 W7H     -0.116000
     18 CAF         9.5750   -0.6590    4.3970 ca        1 W7H     -0.146000
     19 CAE         8.7580   -0.5310    5.5450 ca        1 W7H     -0.148000
     20 CAH         7.3900   -0.5140    5.4230 ca        1 W7H     -0.116000
     21 CAV         6.7750   -0.6260    4.1470 ca        1 W7H     -0.043000
     22 CAJ         5.3610   -0.6110    3.9900 ca        1 W7H     -0.142000
     23 CAG         4.7930   -0.7210    2.7470 ca        1 W7H     -0.105000
     24 H2          3.4920    0.1520   -4.6960 hn        1 W7H      0.331500
     25 H4          5.1150    1.0600   -0.4450 hc        1 W7H      0.058200
     26 H5          3.7180    0.7490    0.6870 hc        1 W7H      0.058200
     27 H6          4.1230   -1.7550    0.3560 hc        1 W7H      0.061200
     28 H7          5.6690   -1.3310   -0.5130 hc        1 W7H      0.061200
     29 H8          7.6270   -0.9650    0.8310 ha        1 W7H      0.129000
     30 H9          9.6330   -0.8670    2.2520 ha        1 W7H      0.124000
     31 H10        10.6670   -0.6690    4.5170 ha        1 W7H      0.117000
     32 H11         9.2340   -0.4450    6.5320 ha        1 W7H      0.117000
     33 H12         6.7460   -0.4140    6.3100 ha        1 W7H      0.123000
     34 H13         4.7330   -0.5090    4.8870 ha        1 W7H      0.126000
     35 H14         3.6940   -0.7120    2.6040 ha        1 W7H      0.195000
     36 H15         0.2850   -0.4250   -2.1900 hn        1 W7H      0.366500
@<TRIPOS>BOND
     1    1    2 1   
     2    2    3 1   
     3    2    4 1   
     4    4    5 1   
     5    4   11 2   
     6    5    6 1   
     7    5   36 1   
     8    6    7 2   
     9    6    8 1   
    10    8    9 1   
    11    8   24 1   
    12    9   10 2   
    13    9   11 1   
    14   11   12 1   
    15   12   13 1   
    16   12   25 1   
    17   12   26 1   
    18   13   14 1   
    19   13   27 1   
    20   13   28 1   
    21   14   15 ar  
    22   14   23 ar  
    23   15   16 ar  
    24   15   29 1   
    25   16   17 ar  
    26   16   21 ar  
    27   17   18 ar  
    28   17   30 1   
    29   18   19 ar  
    30   18   31 1   
    31   19   20 ar  
    32   19   32 1   
    33   20   21 ar  
    34   20   33 1   
    35   21   22 ar  
    36   22   23 ar  
    37   22   34 1   
    38   23   35 1   
@<TRIPOS>SUBSTRUCTURE
     1 W7H         1 TEMP              0 ****  ****    0 ROOT
