@<TRIPOS>MOLECULE
W7I
   40    42     1     0     0
SMALL
bcc


@<TRIPOS>ATOM
      1 OAB         0.0720   -0.2340    0.0740 o         1 W7I     -0.791300
      2 CAQ         1.1650    0.3850    0.1130 c         1 W7I      0.918800
      3 OAE         1.5700    1.1230    1.0440 o         1 W7I     -0.791300
      4 CAT         2.0800    0.2240   -1.1390 cc        1 W7I      0.049400
      5 NAN         1.4010    0.1840   -2.3490 n         1 W7I     -0.436100
      6 CAV         2.0590   -0.0230   -3.5670 c         1 W7I      0.791500
      7 OAC         1.4260   -0.0940   -4.6500 o         1 W7I     -0.694500
      8 NAO         3.4570   -0.1300   -3.5480 n         1 W7I     -0.591500
      9 CAW         4.2020   -0.0820   -2.3520 c         1 W7I      0.715700
     10 OAD         5.4410   -0.2020   -2.4500 o         1 W7I     -0.670500
     11 CAU         3.4480    0.1080   -1.1070 cd        1 W7I     -0.290400
     12 CAM         4.2480    0.1860    0.1400 c3        1 W7I     -0.010200
     13 CAL         4.5060   -1.1950    0.7270 c3        1 W7I     -0.044100
     14 CAR         5.3520   -1.1190    1.9490 ca        1 W7I     -0.059300
     15 CAJ         6.6770   -0.7470    1.8590 ca        1 W7I     -0.122000
     16 CAX         7.5100   -0.6790    3.0060 ca        1 W7I     -0.043000
     17 CAH         8.8760   -0.2950    2.9140 ca        1 W7I     -0.110000
     18 CAF         9.6640   -0.2370    4.0370 ca        1 W7I     -0.147000
     19 CAG         9.1240   -0.5610    5.3050 ca        1 W7I     -0.141000
     20 CAI         7.8090   -0.9340    5.4240 ca        1 W7I     -0.119000
     21 CAY         6.9700   -1.0030    4.2770 ca        1 W7I     -0.031000
     22 CAK         5.6070   -1.3830    4.3710 ca        1 W7I     -0.155000
     23 CAS         4.8220   -1.4440    3.2360 ca        1 W7I      0.123100
     24 OAP         3.5320   -1.9420    3.3600 os        1 W7I     -0.362900
     25 CAA         2.5180   -0.9310    3.3840 c3        1 W7I      0.102700
     26 H2          0.4020    0.1470   -2.3330 hn        1 W7I      0.366500
     27 H3          3.9210   -0.2620   -4.4180 hn        1 W7I      0.331500
     28 H4          3.7080    0.8240    0.8940 hc        1 W7I      0.070700
     29 H5          5.2340    0.6770   -0.0870 hc        1 W7I      0.070700
     30 H6          3.5270   -1.6890    0.9660 hc        1 W7I      0.061700
     31 H7          5.0290   -1.8270   -0.0420 hc        1 W7I      0.061700
     32 H8          7.1070   -0.4940    0.8760 ha        1 W7I      0.144000
     33 H9          9.2850   -0.0440    1.9230 ha        1 W7I      0.130000
     34 H10        10.7200    0.0600    3.9670 ha        1 W7I      0.120000
     35 H11         9.7740   -0.5060    6.1900 ha        1 W7I      0.119000
     36 H12         7.3790   -1.1870    6.4040 ha        1 W7I      0.124000
     37 H13         5.1810   -1.6380    5.3520 ha        1 W7I      0.137000
     38 H14         1.5660   -1.5180    3.3720 h1        1 W7I      0.057367
     39 H15         2.5780   -0.2650    2.4860 h1        1 W7I      0.057367
     40 H16         2.6070   -0.3360    4.3250 h1        1 W7I      0.057367
@<TRIPOS>BOND
     1    1    2 1   
     2    2    3 1   
     3    2    4 1   
     4    4    5 1   
     5    4   11 2   
     6    5    6 1   
     7    5   26 1   
     8    6    7 2   
     9    6    8 1   
    10    8    9 1   
    11    8   27 1   
    12    9   10 2   
    13    9   11 1   
    14   11   12 1   
    15   12   13 1   
    16   12   28 1   
    17   12   29 1   
    18   13   14 1   
    19   13   30 1   
    20   13   31 1   
    21   14   15 ar  
    22   14   23 ar  
    23   15   16 ar  
    24   15   32 1   
    25   16   17 ar  
    26   16   21 ar  
    27   17   18 ar  
    28   17   33 1   
    29   18   19 ar  
    30   18   34 1   
    31   19   20 ar  
    32   19   35 1   
    33   20   21 ar  
    34   20   36 1   
    35   21   22 ar  
    36   22   23 ar  
    37   22   37 1   
    38   23   24 1   
    39   24   25 1   
    40   25   38 1   
    41   25   39 1   
    42   25   40 1   
@<TRIPOS>SUBSTRUCTURE
     1 W7I         1 TEMP              0 ****  ****    0 ROOT
