@<TRIPOS>MOLECULE
W7I
   40    42     1     0     0
SMALL
bcc


@<TRIPOS>ATOM
      1 OAB         0.0700   -0.2570    0.0790 o         1 W7I     -0.791300
      2 CAQ         1.1590    0.3700    0.1220 c         1 W7I      0.918800
      3 OAE         1.5590    1.1040    1.0580 o         1 W7I     -0.791300
      4 CAT         2.0740    0.2260   -1.1320 cc        1 W7I      0.049400
      5 NAN         1.3950    0.1910   -2.3410 ns        1 W7I     -0.436100
      6 CAV         2.0540   -0.0010   -3.5620 c         1 W7I      0.791500
      7 OAC         1.4200   -0.0680   -4.6450 o         1 W7I     -0.694500
      8 NAO         3.4520   -0.0980   -3.5450 ns        1 W7I     -0.591500
      9 CAW         4.1970   -0.0540   -2.3490 c         1 W7I      0.715700
     10 OAD         5.4370   -0.1640   -2.4490 o         1 W7I     -0.670500
     11 CAU         3.4430    0.1200   -1.1010 cd        1 W7I     -0.290400
     12 CAM         4.2430    0.1930    0.1460 c3        1 W7I     -0.010200
     13 CAL         4.5110   -1.1910    0.7210 c3        1 W7I     -0.044100
     14 CAR         5.3570   -1.1200    1.9440 ca        1 W7I     -0.059300
     15 CAJ         6.6790   -0.7380    1.8560 ca        1 W7I     -0.122000
     16 CAX         7.5120   -0.6750    3.0030 ca        1 W7I     -0.043000
     17 CAH         8.8760   -0.2810    2.9130 ca        1 W7I     -0.110000
     18 CAF         9.6640   -0.2270    4.0370 ca        1 W7I     -0.147000
     19 CAG         9.1270   -0.5650    5.3030 ca        1 W7I     -0.141000
     20 CAI         7.8140   -0.9480    5.4180 ca        1 W7I     -0.119000
     21 CAY         6.9750   -1.0120    4.2720 ca        1 W7I     -0.031000
     22 CAK         5.6150   -1.4020    4.3630 ca        1 W7I     -0.155000
     23 CAS         4.8290   -1.4600    3.2280 ca        1 W7I      0.123100
     24 OAP         3.5430   -1.9670    3.3480 os        1 W7I     -0.362900
     25 CAA         2.5220   -0.9630    3.3820 c3        1 W7I      0.102700
     26 H2          0.3960    0.1470   -2.3250 hn        1 W7I      0.366500
     27 H3          3.9160   -0.2200   -4.4160 hn        1 W7I      0.331500
     28 H4          3.6990    0.8200    0.9060 hc        1 W7I      0.070700
     29 H5          5.2250    0.6930   -0.0770 hc        1 W7I      0.070700
     30 H6          3.5350   -1.6940    0.9560 hc        1 W7I      0.061700
     31 H7          5.0370   -1.8130   -0.0530 hc        1 W7I      0.061700
     32 H8          7.1070   -0.4740    0.8750 ha        1 W7I      0.144000
     33 H9          9.2820   -0.0180    1.9250 ha        1 W7I      0.130000
     34 H10        10.7170    0.0780    3.9690 ha        1 W7I      0.120000
     35 H11         9.7760   -0.5140    6.1880 ha        1 W7I      0.119000
     36 H12         7.3860   -1.2120    6.3970 ha        1 W7I      0.124000
     37 H13         5.1910   -1.6680    5.3420 ha        1 W7I      0.137000
     38 H14         2.5770   -0.2880    2.4890 h1        1 W7I      0.057367
     39 H15         2.6080   -0.3760    4.3270 h1        1 W7I      0.057367
     40 H16         1.5740   -1.5560    3.3640 h1        1 W7I      0.057367
@<TRIPOS>BOND
     1    1    2 1   
     2    2    3 1   
     3    2    4 1   
     4    4    5 1   
     5    4   11 2   
     6    5    6 1   
     7    5   26 1   
     8    6    7 2   
     9    6    8 1   
    10    8    9 1   
    11    8   27 1   
    12    9   10 2   
    13    9   11 1   
    14   11   12 1   
    15   12   13 1   
    16   12   28 1   
    17   12   29 1   
    18   13   14 1   
    19   13   30 1   
    20   13   31 1   
    21   14   15 ar  
    22   14   23 ar  
    23   15   16 ar  
    24   15   32 1   
    25   16   17 ar  
    26   16   21 ar  
    27   17   18 ar  
    28   17   33 1   
    29   18   19 ar  
    30   18   34 1   
    31   19   20 ar  
    32   19   35 1   
    33   20   21 ar  
    34   20   36 1   
    35   21   22 ar  
    36   22   23 ar  
    37   22   37 1   
    38   23   24 1   
    39   24   25 1   
    40   25   38 1   
    41   25   39 1   
    42   25   40 1   
@<TRIPOS>SUBSTRUCTURE
     1 W7I         1 TEMP              0 ****  ****    0 ROOT
