@<TRIPOS>MOLECULE
W7I
   40    42     1     0     0
SMALL
bcc


@<TRIPOS>ATOM
      1 OAB         0.0730   -0.2350    0.0730 o         1 W7I     -0.791300
      2 CAQ         1.1630    0.3890    0.1230 c         1 W7I      0.918800
      3 OAE         1.5630    1.1140    1.0660 o         1 W7I     -0.791300
      4 CAT         2.0800    0.2520   -1.1310 cc        1 W7I      0.049400
      5 NAN         1.4020    0.2290   -2.3410 n         1 W7I     -0.436100
      6 CAV         2.0630    0.0450   -3.5620 c         1 W7I      0.791500
      7 OAC         1.4310   -0.0120   -4.6470 o         1 W7I     -0.694500
      8 NAO         3.4610   -0.0560   -3.5440 n         1 W7I     -0.591500
      9 CAW         4.2040   -0.0240   -2.3460 c         1 W7I      0.715700
     10 OAD         5.4440   -0.1360   -2.4450 o         1 W7I     -0.670500
     11 CAU         3.4480    0.1420   -1.0980 cd        1 W7I     -0.290400
     12 CAM         4.2470    0.2040    0.1510 c3        1 W7I     -0.010200
     13 CAL         4.5100   -1.1850    0.7150 c3        1 W7I     -0.044100
     14 CAR         5.3540   -1.1260    1.9390 ca        1 W7I     -0.059300
     15 CAJ         6.6780   -0.7470    1.8570 ca        1 W7I     -0.122000
     16 CAX         7.5090   -0.6950    3.0060 ca        1 W7I     -0.043000
     17 CAH         8.8740   -0.3030    2.9210 ca        1 W7I     -0.110000
     18 CAF         9.6600   -0.2610    4.0460 ca        1 W7I     -0.147000
     19 CAG         9.1200   -0.6070    5.3080 ca        1 W7I     -0.141000
     20 CAI         7.8060   -0.9880    5.4190 ca        1 W7I     -0.119000
     21 CAY         6.9690   -1.0410    4.2710 ca        1 W7I     -0.031000
     22 CAK         5.6080   -1.4280    4.3570 ca        1 W7I     -0.155000
     23 CAS         4.8240   -1.4750    3.2200 ca        1 W7I      0.123100
     24 OAP         3.5360   -1.9800    3.3350 os        1 W7I     -0.362900
     25 CAA         2.5180   -0.9740    3.3740 c3        1 W7I      0.102700
     26 H2          0.4040    0.1880   -2.3270 hn        1 W7I      0.366500
     27 H3          3.9260   -0.1720   -4.4150 hn        1 W7I      0.331500
     28 H4          3.7030    0.8270    0.9140 hc        1 W7I      0.070700
     29 H5          5.2300    0.7030   -0.0670 hc        1 W7I      0.070700
     30 H6          3.5320   -1.6880    0.9450 hc        1 W7I      0.061700
     31 H7          5.0360   -1.8030   -0.0630 hc        1 W7I      0.061700
     32 H8          7.1070   -0.4760    0.8780 ha        1 W7I      0.144000
     33 H9          9.2820   -0.0340    1.9350 ha        1 W7I      0.130000
     34 H10        10.7140    0.0430    3.9820 ha        1 W7I      0.120000
     35 H11         9.7680   -0.5650    6.1950 ha        1 W7I      0.119000
     36 H12         7.3760   -1.2580    6.3950 ha        1 W7I      0.124000
     37 H13         5.1810   -1.7010    5.3330 ha        1 W7I      0.137000
     38 H14         2.5760   -0.2920    2.4870 h1        1 W7I      0.057367
     39 H15         2.6040   -0.3940    4.3250 h1        1 W7I      0.057367
     40 H16         1.5680   -1.5640    3.3510 h1        1 W7I      0.057367
@<TRIPOS>BOND
     1    1    2 1   
     2    2    3 1   
     3    2    4 1   
     4    4    5 1   
     5    4   11 2   
     6    5    6 1   
     7    5   26 1   
     8    6    7 2   
     9    6    8 1   
    10    8    9 1   
    11    8   27 1   
    12    9   10 2   
    13    9   11 1   
    14   11   12 1   
    15   12   13 1   
    16   12   28 1   
    17   12   29 1   
    18   13   14 1   
    19   13   30 1   
    20   13   31 1   
    21   14   15 ar  
    22   14   23 ar  
    23   15   16 ar  
    24   15   32 1   
    25   16   17 ar  
    26   16   21 ar  
    27   17   18 ar  
    28   17   33 1   
    29   18   19 ar  
    30   18   34 1   
    31   19   20 ar  
    32   19   35 1   
    33   20   21 ar  
    34   20   36 1   
    35   21   22 ar  
    36   22   23 ar  
    37   22   37 1   
    38   23   24 1   
    39   24   25 1   
    40   25   38 1   
    41   25   39 1   
    42   25   40 1   
@<TRIPOS>SUBSTRUCTURE
     1 W7I         1 TEMP              0 ****  ****    0 ROOT
