@<TRIPOS>MOLECULE
W7J
   38    40     1     0     0
SMALL
bcc


@<TRIPOS>ATOM
      1 OAJ         1.2890    0.1720    0.7820 o         1 W7J     -0.792300
      2 CAI         2.2720   -0.3030    0.1720 c         1 W7J      0.919800
      3 OAK         3.2310   -0.9480    0.6760 o         1 W7J     -0.792300
      4 C4          2.3630   -0.0550   -1.3660 cc        1 W7J      0.035400
      5 N3          3.6520    0.1810   -1.8320 ns        1 W7J     -0.437100
      6 C2          3.9350    0.3500   -3.1900 c         1 W7J      0.789500
      7 O2          5.1120    0.5260   -3.6000 o         1 W7J     -0.714500
      8 N1          2.8610    0.3400   -4.0890 ns        1 W7J     -0.595500
      9 C6          1.5300    0.1140   -3.6750 c         1 W7J      0.712700
     10 O6          0.6630    0.0860   -4.5720 o         1 W7J     -0.660500
     11 C5          1.3020   -0.0770   -2.2350 cd        1 W7J     -0.273400
     12 CAL        -0.1070   -0.2970   -1.8200 c3        1 W7J      0.000800
     13 CAM        -0.8930    1.0070   -1.7680 c3        1 W7J     -0.029100
     14 CAN        -2.3440    0.8140   -2.0450 ca        1 W7J     -0.082300
     15 CAO        -3.3030    1.0420   -1.0830 ca        1 W7J     -0.126000
     16 CAP        -4.6870    0.9090   -1.3820 ca        1 W7J     -0.042000
     17 CAT        -5.6930    1.1530   -0.4080 ca        1 W7J     -0.169000
     18 CAU        -7.0230    1.0340   -0.7300 ca        1 W7J     -0.094000
     19 CAV        -7.4260    0.6650   -2.0400 ca        1 W7J     -0.130600
     20 CAX        -8.9070    0.5550   -2.3610 c         1 W7J      0.907200
     21 OAZ        -9.7390    0.8030   -1.4390 o         1 W7J     -0.842800
     22 OAY        -9.2460    0.2240   -3.5340 o         1 W7J     -0.842800
     23 CAW        -6.4660    0.4170   -2.9960 ca        1 W7J     -0.110000
     24 CAQ        -5.0830    0.5320   -2.6920 ca        1 W7J     -0.053000
     25 CAR        -4.0740    0.2870   -3.6640 ca        1 W7J     -0.128000
     26 CAS        -2.7450    0.4230   -3.3530 ca        1 W7J     -0.143000
     27 H2          3.0650    0.4750   -5.0520 hn        1 W7J      0.326500
     28 H4         -0.5900   -0.9980   -2.5550 hc        1 W7J      0.063700
     29 H5         -0.1290   -0.7770   -0.8040 hc        1 W7J      0.063700
     30 H6         -0.7400    1.4740   -0.7590 hc        1 W7J      0.049700
     31 H7         -0.4840    1.7160   -2.5390 hc        1 W7J      0.049700
     32 H8         -3.0120    1.3330   -0.0630 ha        1 W7J      0.123000
     33 H9         -5.3810    1.4370    0.6070 ha        1 W7J      0.108000
     34 H10        -7.8190    1.2200    0.0090 ha        1 W7J      0.146000
     35 H12        -6.7800    0.1260   -4.0110 ha        1 W7J      0.144000
     36 H13        -4.3860   -0.0130   -4.6760 ha        1 W7J      0.116000
     37 H14        -1.9590    0.2360   -4.1030 ha        1 W7J      0.141000
     38 H15         4.4130    0.0610   -1.1960 hn        1 W7J      0.362500
@<TRIPOS>BOND
     1    1    2 1   
     2    2    3 1   
     3    2    4 1   
     4    4    5 1   
     5    4   11 2   
     6    5    6 1   
     7    5   38 1   
     8    6    7 2   
     9    6    8 1   
    10    8    9 1   
    11    8   27 1   
    12    9   10 2   
    13    9   11 1   
    14   11   12 1   
    15   12   13 1   
    16   12   28 1   
    17   12   29 1   
    18   13   14 1   
    19   13   30 1   
    20   13   31 1   
    21   14   15 ar  
    22   14   26 ar  
    23   15   16 ar  
    24   15   32 1   
    25   16   17 ar  
    26   16   24 ar  
    27   17   18 ar  
    28   17   33 1   
    29   18   19 ar  
    30   18   34 1   
    31   19   20 1   
    32   19   23 ar  
    33   20   21 1   
    34   20   22 1   
    35   23   24 ar  
    36   23   35 1   
    37   24   25 ar  
    38   25   26 ar  
    39   25   36 1   
    40   26   37 1   
@<TRIPOS>SUBSTRUCTURE
     1 W7J         1 TEMP              0 ****  ****    0 ROOT
