@<TRIPOS>MOLECULE
W7J
   38    40     1     0     0
SMALL
bcc


@<TRIPOS>ATOM
      1 OAJ         1.2890    0.1570    0.7770 o         1 W7J     -0.792300
      2 CAI         2.2710   -0.3210    0.1660 c         1 W7J      0.919800
      3 OAK         3.2280   -0.9690    0.6690 o         1 W7J     -0.792300
      4 C4          2.3620   -0.0700   -1.3710 cc        1 W7J      0.035400
      5 N3          3.6510    0.1640   -1.8370 n         1 W7J     -0.437100
      6 C2          3.9340    0.3350   -3.1950 c         1 W7J      0.789500
      7 O2          5.1120    0.5070   -3.6060 o         1 W7J     -0.714500
      8 N1          2.8600    0.3300   -4.0940 n         1 W7J     -0.595500
      9 C6          1.5280    0.1070   -3.6790 c         1 W7J      0.712700
     10 O6          0.6610    0.0840   -4.5760 o         1 W7J     -0.660500
     11 C5          1.3010   -0.0860   -2.2400 cd        1 W7J     -0.273400
     12 CAL        -0.1090   -0.3030   -1.8250 c3        1 W7J      0.000800
     13 CAM        -0.8910    1.0030   -1.7690 c3        1 W7J     -0.029100
     14 CAN        -2.3430    0.8150   -2.0440 ca        1 W7J     -0.082300
     15 CAO        -3.3000    1.0430   -1.0810 ca        1 W7J     -0.126000
     16 CAP        -4.6850    0.9150   -1.3780 ca        1 W7J     -0.042000
     17 CAT        -5.6890    1.1590   -0.4020 ca        1 W7J     -0.169000
     18 CAU        -7.0190    1.0450   -0.7230 ca        1 W7J     -0.094000
     19 CAV        -7.4250    0.6810   -2.0330 ca        1 W7J     -0.130600
     20 CAX        -8.9060    0.5770   -2.3520 c         1 W7J      0.907200
     21 OAZ        -9.7370    0.8230   -1.4290 o         1 W7J     -0.842800
     22 OAY        -9.2490    0.2510   -3.5260 o         1 W7J     -0.842800
     23 CAW        -6.4670    0.4330   -2.9910 ca        1 W7J     -0.110000
     24 CAQ        -5.0830    0.5430   -2.6890 ca        1 W7J     -0.053000
     25 CAR        -4.0760    0.2980   -3.6630 ca        1 W7J     -0.128000
     26 CAS        -2.7470    0.4300   -3.3530 ca        1 W7J     -0.143000
     27 H2          3.0640    0.4660   -5.0570 hn        1 W7J      0.326500
     28 H4         -0.1320   -0.7860   -0.8100 hc        1 W7J      0.063700
     29 H5         -0.5950   -1.0000   -2.5620 hc        1 W7J      0.063700
     30 H6         -0.7350    1.4680   -0.7590 hc        1 W7J      0.049700
     31 H7         -0.4800    1.7130   -2.5380 hc        1 W7J      0.049700
     32 H8         -3.0070    1.3310   -0.0600 ha        1 W7J      0.123000
     33 H9         -5.3740    1.4400    0.6130 ha        1 W7J      0.108000
     34 H10        -7.8140    1.2310    0.0180 ha        1 W7J      0.146000
     35 H12        -6.7840    0.1460   -4.0060 ha        1 W7J      0.144000
     36 H13        -4.3910    0.0020   -4.6750 ha        1 W7J      0.116000
     37 H14        -1.9620    0.2430   -4.1040 ha        1 W7J      0.141000
     38 H15         4.4120    0.0400   -1.2020 hn        1 W7J      0.362500
@<TRIPOS>BOND
     1    1    2 1   
     2    2    3 1   
     3    2    4 1   
     4    4    5 1   
     5    4   11 2   
     6    5    6 1   
     7    5   38 1   
     8    6    7 2   
     9    6    8 1   
    10    8    9 1   
    11    8   27 1   
    12    9   10 2   
    13    9   11 1   
    14   11   12 1   
    15   12   13 1   
    16   12   28 1   
    17   12   29 1   
    18   13   14 1   
    19   13   30 1   
    20   13   31 1   
    21   14   15 ar  
    22   14   26 ar  
    23   15   16 ar  
    24   15   32 1   
    25   16   17 ar  
    26   16   24 ar  
    27   17   18 ar  
    28   17   33 1   
    29   18   19 ar  
    30   18   34 1   
    31   19   20 1   
    32   19   23 ar  
    33   20   21 1   
    34   20   22 1   
    35   23   24 ar  
    36   23   35 1   
    37   24   25 ar  
    38   25   26 ar  
    39   25   36 1   
    40   26   37 1   
@<TRIPOS>SUBSTRUCTURE
     1 W7J         1 TEMP              0 ****  ****    0 ROOT
