@<TRIPOS>MOLECULE
W7J
   38    40     1     0     0
SMALL
bcc


@<TRIPOS>ATOM
      1 OAJ         1.2980    0.2070    0.7770 o         1 W7J     -0.792300
      2 CAI         2.2800   -0.2770    0.1690 c         1 W7J      0.919800
      3 OAK         3.2390   -0.9160    0.6780 o         1 W7J     -0.792300
      4 C4          2.3650   -0.0470   -1.3710 cc        1 W7J      0.035400
      5 N3          3.6530    0.1840   -1.8450 n         1 W7J     -0.437100
      6 C2          3.9320    0.3370   -3.2050 c         1 W7J      0.789500
      7 O2          5.1070    0.5070   -3.6210 o         1 W7J     -0.714500
      8 N1          2.8540    0.3170   -4.1010 n         1 W7J     -0.595500
      9 C6          1.5250    0.0960   -3.6800 c         1 W7J      0.712700
     10 O6          0.6550    0.0580   -4.5740 o         1 W7J     -0.660500
     11 C5          1.3020   -0.0780   -2.2370 cd        1 W7J     -0.273400
     12 CAL        -0.1060   -0.2930   -1.8150 c3        1 W7J      0.000800
     13 CAM        -0.8920    1.0110   -1.7780 c3        1 W7J     -0.029100
     14 CAN        -2.3440    0.8140   -2.0480 ca        1 W7J     -0.082300
     15 CAO        -3.3010    1.0540   -1.0870 ca        1 W7J     -0.126000
     16 CAP        -4.6850    0.9180   -1.3810 ca        1 W7J     -0.042000
     17 CAT        -5.6890    1.1740   -0.4070 ca        1 W7J     -0.169000
     18 CAU        -7.0190    1.0510   -0.7250 ca        1 W7J     -0.094000
     19 CAV        -7.4260    0.6650   -2.0280 ca        1 W7J     -0.130600
     20 CAX        -8.9070    0.5510   -2.3440 c         1 W7J      0.907200
     21 OAZ        -9.7370    0.8100   -1.4240 o         1 W7J     -0.842800
     22 OAY        -9.2500    0.2050   -3.5120 o         1 W7J     -0.842800
     23 CAW        -6.4680    0.4050   -2.9830 ca        1 W7J     -0.110000
     24 CAQ        -5.0840    0.5240   -2.6850 ca        1 W7J     -0.053000
     25 CAR        -4.0780    0.2670   -3.6570 ca        1 W7J     -0.128000
     26 CAS        -2.7490    0.4070   -3.3500 ca        1 W7J     -0.143000
     27 H2          3.0560    0.4400   -5.0660 hn        1 W7J      0.326500
     28 H4         -0.5910   -1.0030   -2.5400 hc        1 W7J      0.063200
     29 H5         -0.1250   -0.7600   -0.7930 hc        1 W7J      0.063200
     30 H6         -0.7360    1.4920   -0.7750 hc        1 W7J      0.049700
     31 H7         -0.4850    1.7100   -2.5590 hc        1 W7J      0.049700
     32 H8         -3.0070    1.3590   -0.0710 ha        1 W7J      0.123000
     33 H9         -5.3740    1.4720    0.6030 ha        1 W7J      0.108000
     34 H10        -7.8130    1.2460    0.0150 ha        1 W7J      0.146000
     35 H12        -6.7850    0.1010   -3.9940 ha        1 W7J      0.144000
     36 H13        -4.3930   -0.0470   -4.6630 ha        1 W7J      0.116000
     37 H14        -1.9640    0.2110   -4.0990 ha        1 W7J      0.141000
     38 H15         4.4160    0.0710   -1.2090 hn        1 W7J      0.362500
@<TRIPOS>BOND
     1    1    2 1   
     2    2    3 1   
     3    2    4 1   
     4    4    5 1   
     5    4   11 2   
     6    5    6 1   
     7    5   38 1   
     8    6    7 2   
     9    6    8 1   
    10    8    9 1   
    11    8   27 1   
    12    9   10 2   
    13    9   11 1   
    14   11   12 1   
    15   12   13 1   
    16   12   28 1   
    17   12   29 1   
    18   13   14 1   
    19   13   30 1   
    20   13   31 1   
    21   14   15 ar  
    22   14   26 ar  
    23   15   16 ar  
    24   15   32 1   
    25   16   17 ar  
    26   16   24 ar  
    27   17   18 ar  
    28   17   33 1   
    29   18   19 ar  
    30   18   34 1   
    31   19   20 1   
    32   19   23 ar  
    33   20   21 1   
    34   20   22 1   
    35   23   24 ar  
    36   23   35 1   
    37   24   25 ar  
    38   25   26 ar  
    39   25   36 1   
    40   26   37 1   
@<TRIPOS>SUBSTRUCTURE
     1 W7J         1 TEMP              0 ****  ****    0 ROOT
