@<TRIPOS>MOLECULE
W7K
   44    46     1     0     0
SMALL
bcc


@<TRIPOS>ATOM
      1 OAC         0.1960   -1.1710    0.3180 o         1 W7K     -0.791300
      2 CAR         1.2130   -0.4450    0.2130 c         1 W7K      0.918800
      3 OAF         1.8050    0.1500    1.1500 o         1 W7K     -0.791300
      4 CAV         1.8380   -0.2660   -1.2040 cc        1 W7K      0.049400
      5 NAN         3.2250   -0.2380   -1.2250 ns        1 W7K     -0.436100
      6 CAX         3.9500   -0.0180   -2.4030 c         1 W7K      0.791500
      7 OAD         5.2050    0.0420   -2.3980 o         1 W7K     -0.694500
      8 NAO         3.2320    0.1140   -3.6000 ns        1 W7K     -0.591500
      9 CAY         1.8240    0.0790   -3.6430 c         1 W7K      0.715700
     10 OAE         1.2870    0.2210   -4.7610 o         1 W7K     -0.671500
     11 CAW         1.1230   -0.1250   -2.3690 cd        1 W7K     -0.290400
     12 CAM        -0.3570   -0.1880   -2.4340 c3        1 W7K     -0.010200
     13 CAL        -0.9820    1.1970   -2.3300 c3        1 W7K     -0.043100
     14 CAT        -2.4630    1.1380   -2.4620 ca        1 W7K     -0.068300
     15 CAJ        -3.0430    0.8020   -3.6660 ca        1 W7K     -0.114000
     16 CAZ        -4.4530    0.7520   -3.8250 ca        1 W7K     -0.068000
     17 CAH        -5.0480    0.4030   -5.0660 ca        1 W7K     -0.080000
     18 CAG        -6.4130    0.3590   -5.2110 ca        1 W7K     -0.199000
     19 CAS        -7.2420    0.6670   -4.1010 ca        1 W7K      0.104100
     20 OAP        -8.6290    0.6640   -4.1570 os        1 W7K     -0.335900
     21 CAA        -9.2040    0.1770   -5.3600 c3        1 W7K      0.118700
     22 CAI        -6.6990    1.0100   -2.8750 ca        1 W7K     -0.155000
     23 CBA        -5.2900    1.0580   -2.7210 ca        1 W7K     -0.001000
     24 CAK        -4.6930    1.4030   -1.4800 ca        1 W7K     -0.162000
     25 CAU        -3.3180    1.4460   -1.3570 ca        1 W7K      0.132100
     26 OAQ        -2.7840    1.9070   -0.1630 os        1 W7K     -0.362900
     27 CAB        -2.3070    0.8700    0.7030 c3        1 W7K      0.103700
     28 H2          3.7520    0.2550   -4.4350 hn        1 W7K      0.331500
     29 H4         -0.7430   -0.8420   -1.6040 hc        1 W7K      0.070200
     30 H5         -0.6610   -0.6530   -3.4120 hc        1 W7K      0.070200
     31 H6         -0.5670    1.8490   -3.1460 hc        1 W7K      0.061200
     32 H7         -0.7000    1.6610   -1.3470 hc        1 W7K      0.061200
     33 H8         -2.4030    0.5630   -4.5320 ha        1 W7K      0.144000
     34 H9         -4.3900    0.1660   -5.9160 ha        1 W7K      0.132000
     35 H10        -6.8590    0.0880   -6.1780 ha        1 W7K      0.127000
     36 H11        -8.8620   -0.8640   -5.5750 h1        1 W7K      0.036700
     37 H12        -8.9600    0.8530   -6.2160 h1        1 W7K      0.036700
     38 H13       -10.3040    0.1940   -5.1510 h1        1 W7K      0.036700
     39 H14        -7.3500    1.2460   -2.0230 ha        1 W7K      0.143000
     40 H15        -5.3330    1.6440   -0.6190 ha        1 W7K      0.139000
     41 H16        -1.5610    0.2120    0.1870 h1        1 W7K      0.057367
     42 H17        -3.1720    0.2700    1.0760 h1        1 W7K      0.057367
     43 H18        -1.8200    1.4310    1.5380 h1        1 W7K      0.057367
     44 H19         3.7140   -0.2200   -0.3530 hn        1 W7K      0.366500
@<TRIPOS>BOND
     1    1    2 1   
     2    2    3 1   
     3    2    4 1   
     4    4    5 1   
     5    4   11 2   
     6    5    6 1   
     7    5   44 1   
     8    6    7 2   
     9    6    8 1   
    10    8    9 1   
    11    8   28 1   
    12    9   10 2   
    13    9   11 1   
    14   11   12 1   
    15   12   13 1   
    16   12   29 1   
    17   12   30 1   
    18   13   14 1   
    19   13   31 1   
    20   13   32 1   
    21   14   15 ar  
    22   14   25 ar  
    23   15   16 ar  
    24   15   33 1   
    25   16   17 ar  
    26   16   23 ar  
    27   17   18 ar  
    28   17   34 1   
    29   18   19 ar  
    30   18   35 1   
    31   19   20 1   
    32   19   22 ar  
    33   20   21 1   
    34   21   36 1   
    35   21   37 1   
    36   21   38 1   
    37   22   23 ar  
    38   22   39 1   
    39   23   24 ar  
    40   24   25 ar  
    41   24   40 1   
    42   25   26 1   
    43   26   27 1   
    44   27   41 1   
    45   27   42 1   
    46   27   43 1   
@<TRIPOS>SUBSTRUCTURE
     1 W7K         1 TEMP              0 ****  ****    0 ROOT
