@<TRIPOS>MOLECULE
W7K
   44    46     1     0     0
SMALL
bcc


@<TRIPOS>ATOM
      1 OAC         0.2050   -1.1980    0.2950 o         1 W7K     -0.791300
      2 CAR         1.2230   -0.4720    0.1920 c         1 W7K      0.918800
      3 OAF         1.8190    0.1140    1.1310 o         1 W7K     -0.791300
      4 CAV         1.8430   -0.2830   -1.2260 cc        1 W7K      0.049400
      5 NAN         3.2290   -0.2570   -1.2520 n         1 W7K     -0.436100
      6 CAX         3.9500   -0.0300   -2.4310 c         1 W7K      0.791500
      7 OAD         5.2050    0.0280   -2.4310 o         1 W7K     -0.694500
      8 NAO         3.2270    0.1130   -3.6240 n         1 W7K     -0.591500
      9 CAY         1.8190    0.0810   -3.6620 c         1 W7K      0.715700
     10 OAE         1.2780    0.2330   -4.7770 o         1 W7K     -0.671500
     11 CAW         1.1230   -0.1320   -2.3860 cd        1 W7K     -0.290400
     12 CAM        -0.3580   -0.1920   -2.4470 c3        1 W7K     -0.010200
     13 CAL        -0.9800    1.1930   -2.3290 c3        1 W7K     -0.043100
     14 CAT        -2.4620    1.1380   -2.4560 ca        1 W7K     -0.068300
     15 CAJ        -3.0460    0.8120   -3.6610 ca        1 W7K     -0.114000
     16 CAZ        -4.4570    0.7660   -3.8150 ca        1 W7K     -0.068000
     17 CAH        -5.0570    0.4280   -5.0560 ca        1 W7K     -0.080000
     18 CAG        -6.4230    0.3870   -5.1970 ca        1 W7K     -0.199000
     19 CAS        -7.2470    0.6870   -4.0810 ca        1 W7K      0.104100
     20 OAP        -8.6340    0.6870   -4.1310 os        1 W7K     -0.335900
     21 CAA        -9.2150    0.2080   -5.3350 c3        1 W7K      0.118700
     22 CAI        -6.6990    1.0200   -2.8540 ca        1 W7K     -0.155000
     23 CBA        -5.2890    1.0640   -2.7050 ca        1 W7K     -0.001000
     24 CAK        -4.6870    1.3970   -1.4640 ca        1 W7K     -0.162000
     25 CAU        -3.3120    1.4370   -1.3450 ca        1 W7K      0.132100
     26 OAQ        -2.7730    1.8890   -0.1490 os        1 W7K     -0.362900
     27 CAB        -2.2940    0.8440    0.7060 c3        1 W7K      0.103700
     28 H2          3.7450    0.2600   -4.4610 hn        1 W7K      0.331500
     29 H4         -0.7410   -0.8520   -1.6200 hc        1 W7K      0.070200
     30 H5         -0.6660   -0.6490   -3.4270 hc        1 W7K      0.070200
     31 H6         -0.5660    1.8510   -3.1410 hc        1 W7K      0.061200
     32 H7         -0.6930    1.6490   -1.3430 hc        1 W7K      0.061200
     33 H8         -2.4100    0.5800   -4.5300 ha        1 W7K      0.144000
     34 H9         -4.4030    0.1970   -5.9110 ha        1 W7K      0.132000
     35 H10        -6.8730    0.1250   -6.1630 ha        1 W7K      0.127000
     36 H11        -8.9730    0.8890   -6.1880 h1        1 W7K      0.036700
     37 H12        -8.8740   -0.8320   -5.5590 h1        1 W7K      0.036700
     38 H13       -10.3140    0.2240   -5.1220 h1        1 W7K      0.036700
     39 H14        -7.3470    1.2500   -1.9980 ha        1 W7K      0.143000
     40 H15        -5.3240    1.6330   -0.5990 ha        1 W7K      0.139000
     41 H16        -1.8040    1.3980    1.5440 h1        1 W7K      0.057367
     42 H17        -1.5510    0.1890    0.1820 h1        1 W7K      0.057367
     43 H18        -3.1590    0.2420    1.0770 h1        1 W7K      0.057367
     44 H19         3.7210   -0.2470   -0.3820 hn        1 W7K      0.366500
@<TRIPOS>BOND
     1    1    2 1   
     2    2    3 1   
     3    2    4 1   
     4    4    5 1   
     5    4   11 2   
     6    5    6 1   
     7    5   44 1   
     8    6    7 2   
     9    6    8 1   
    10    8    9 1   
    11    8   28 1   
    12    9   10 2   
    13    9   11 1   
    14   11   12 1   
    15   12   13 1   
    16   12   29 1   
    17   12   30 1   
    18   13   14 1   
    19   13   31 1   
    20   13   32 1   
    21   14   15 ar  
    22   14   25 ar  
    23   15   16 ar  
    24   15   33 1   
    25   16   17 ar  
    26   16   23 ar  
    27   17   18 ar  
    28   17   34 1   
    29   18   19 ar  
    30   18   35 1   
    31   19   20 1   
    32   19   22 ar  
    33   20   21 1   
    34   21   36 1   
    35   21   37 1   
    36   21   38 1   
    37   22   23 ar  
    38   22   39 1   
    39   23   24 ar  
    40   24   25 ar  
    41   24   40 1   
    42   25   26 1   
    43   26   27 1   
    44   27   41 1   
    45   27   42 1   
    46   27   43 1   
@<TRIPOS>SUBSTRUCTURE
     1 W7K         1 TEMP              0 ****  ****    0 ROOT
