@<TRIPOS>MOLECULE
W7K
   44    46     1     0     0
SMALL
bcc


@<TRIPOS>ATOM
      1 OAC         0.1960   -1.1370    0.3380 o         1 W7K     -0.791300
      2 CAR         1.2180   -0.4220    0.2150 c         1 W7K      0.918800
      3 OAF         1.8190    0.1860    1.1380 o         1 W7K     -0.791300
      4 CAV         1.8380   -0.2750   -1.2080 cc        1 W7K      0.049400
      5 NAN         3.2250   -0.2600   -1.2350 n         1 W7K     -0.436100
      6 CAX         3.9460   -0.0690   -2.4200 c         1 W7K      0.791500
      7 OAD         5.2020   -0.0200   -2.4230 o         1 W7K     -0.694500
      8 NAO         3.2240    0.0460   -3.6170 n         1 W7K     -0.591500
      9 CAY         1.8150    0.0220   -3.6530 c         1 W7K      0.715700
     10 OAE         1.2750    0.1470   -4.7720 o         1 W7K     -0.671500
     11 CAW         1.1190   -0.1500   -2.3720 cd        1 W7K     -0.290400
     12 CAM        -0.3620   -0.2030   -2.4300 c3        1 W7K     -0.010200
     13 CAL        -0.9740    1.1890   -2.3490 c3        1 W7K     -0.043100
     14 CAT        -2.4570    1.1410   -2.4740 ca        1 W7K     -0.068300
     15 CAJ        -3.0440    0.7870   -3.6700 ca        1 W7K     -0.114000
     16 CAZ        -4.4550    0.7470   -3.8220 ca        1 W7K     -0.068000
     17 CAH        -5.0590    0.3790   -5.0530 ca        1 W7K     -0.079000
     18 CAG        -6.4250    0.3440   -5.1920 ca        1 W7K     -0.199000
     19 CAS        -7.2470    0.6800   -4.0840 ca        1 W7K      0.104100
     20 OAP        -8.6340    0.6880   -4.1340 os        1 W7K     -0.335900
     21 CAA        -9.2180    0.1860   -5.3270 c3        1 W7K      0.118700
     22 CAI        -6.6950    1.0420   -2.8680 ca        1 W7K     -0.155000
     23 CBA        -5.2850    1.0810   -2.7200 ca        1 W7K     -0.001000
     24 CAK        -4.6800    1.4430   -1.4880 ca        1 W7K     -0.162000
     25 CAU        -3.3040    1.4760   -1.3720 ca        1 W7K      0.132100
     26 OAQ        -2.7610    1.9560   -0.1880 os        1 W7K     -0.362900
     27 CAB        -2.2900    0.9310    0.6940 c3        1 W7K      0.103700
     28 H2          3.7420    0.1670   -4.4570 hn        1 W7K      0.331500
     29 H4         -0.7500   -0.8370   -1.5850 hc        1 W7K      0.070200
     30 H5         -0.6740   -0.6840   -3.3970 hc        1 W7K      0.070200
     31 H6         -0.5570    1.8220   -3.1790 hc        1 W7K      0.061200
     32 H7         -0.6840    1.6700   -1.3770 hc        1 W7K      0.061200
     33 H8         -2.4110    0.5270   -4.5330 ha        1 W7K      0.144000
     34 H9         -4.4070    0.1200   -5.9020 ha        1 W7K      0.132000
     35 H10        -6.8780    0.0590   -6.1520 ha        1 W7K      0.127000
     36 H11        -8.8870   -0.8610   -5.5260 h1        1 W7K      0.036700
     37 H12        -8.9700    0.8450   -6.1950 h1        1 W7K      0.036700
     38 H13       -10.3170    0.2170   -5.1150 h1        1 W7K      0.036700
     39 H14        -7.3410    1.2990   -2.0170 ha        1 W7K      0.143000
     40 H15        -5.3140    1.7060   -0.6300 ha        1 W7K      0.139000
     41 H16        -1.5510    0.2570    0.1890 h1        1 W7K      0.057367
     42 H17        -3.1580    0.3460    1.0820 h1        1 W7K      0.057367
     43 H18        -1.7950    1.5040    1.5170 h1        1 W7K      0.057367
     44 H19         3.7180   -0.2290   -0.3660 hn        1 W7K      0.366500
@<TRIPOS>BOND
     1    1    2 1   
     2    2    3 1   
     3    2    4 1   
     4    4    5 1   
     5    4   11 2   
     6    5    6 1   
     7    5   44 1   
     8    6    7 2   
     9    6    8 1   
    10    8    9 1   
    11    8   28 1   
    12    9   10 2   
    13    9   11 1   
    14   11   12 1   
    15   12   13 1   
    16   12   29 1   
    17   12   30 1   
    18   13   14 1   
    19   13   31 1   
    20   13   32 1   
    21   14   15 ar  
    22   14   25 ar  
    23   15   16 ar  
    24   15   33 1   
    25   16   17 ar  
    26   16   23 ar  
    27   17   18 ar  
    28   17   34 1   
    29   18   19 ar  
    30   18   35 1   
    31   19   20 1   
    32   19   22 ar  
    33   20   21 1   
    34   21   36 1   
    35   21   37 1   
    36   21   38 1   
    37   22   23 ar  
    38   22   39 1   
    39   23   24 ar  
    40   24   25 ar  
    41   24   40 1   
    42   25   26 1   
    43   26   27 1   
    44   27   41 1   
    45   27   42 1   
    46   27   43 1   
@<TRIPOS>SUBSTRUCTURE
     1 W7K         1 TEMP              0 ****  ****    0 ROOT
