@<TRIPOS>MOLECULE
W7L
   40    42     1     0     0
SMALL
bcc


@<TRIPOS>ATOM
      1 OAB         0.3660   -0.3950    0.4340 o         1 W7L     -0.787800
      2 CAQ         1.4590    0.1650    0.1860 c         1 W7L      0.920800
      3 OAE         2.1800    0.8110    0.9870 o         1 W7L     -0.787800
      4 CAT         2.0150    0.0250   -1.2670 cc        1 W7L      0.048400
      5 NAN         3.3880   -0.1400   -1.3600 n         1 W7L     -0.435100
      6 CAV         4.0440   -0.2420   -2.5930 c         1 W7L      0.790500
      7 OAC         5.2930   -0.3530   -2.6650 o         1 W7L     -0.694500
      8 NAO         3.2600   -0.2370   -3.7560 n         1 W7L     -0.590500
      9 CAW         1.8590   -0.0910   -3.7210 c         1 W7L      0.718700
     10 OAD         1.2580   -0.1050   -4.8170 o         1 W7L     -0.682500
     11 CAU         1.2400    0.0600   -2.4010 cd        1 W7L     -0.298400
     12 CAM        -0.2320    0.2440   -2.3700 c3        1 W7L      0.009800
     13 CAL        -0.9500   -1.0980   -2.3590 c3        1 W7L     -0.052100
     14 CAS        -2.4160   -0.9520   -2.5810 ca        1 W7L     -0.026300
     15 CAG        -3.2770   -1.0350   -1.5050 ca        1 W7L     -0.147000
     16 CAF        -4.6750   -0.9430   -1.6840 ca        1 W7L     -0.113000
     17 CAI        -5.2070   -0.7750   -2.9380 ca        1 W7L     -0.154000
     18 CAX        -4.3530   -0.6740   -4.0700 ca        1 W7L     -0.008000
     19 CAK        -4.8940   -0.4900   -5.3690 ca        1 W7L     -0.173000
     20 CAY        -2.9450   -0.7520   -3.8940 ca        1 W7L     -0.064000
     21 CAJ        -2.1090   -0.6170   -5.0370 ca        1 W7L     -0.070000
     22 CAH        -2.6380   -0.4370   -6.2910 ca        1 W7L     -0.201000
     23 CAR        -4.0470   -0.3790   -6.4560 ca        1 W7L      0.111100
     24 OAP        -4.6700   -0.2150   -7.6850 os        1 W7L     -0.339900
     25 CAA        -3.8100    0.0040   -8.7940 c3        1 W7L      0.118700
     26 H2          3.7290   -0.3310   -4.6280 hn        1 W7L      0.331500
     27 H4         -0.5490    0.8400   -3.2680 hc        1 W7L      0.058700
     28 H5         -0.5190    0.8130   -1.4440 hc        1 W7L      0.058700
     29 H6         -0.7550   -1.5780   -1.3580 hc        1 W7L      0.066700
     30 H7         -0.5150   -1.7660   -3.1490 hc        1 W7L      0.066700
     31 H8         -2.8720   -1.1680   -0.4880 ha        1 W7L      0.153000
     32 H9         -5.3300   -1.0110   -0.8030 ha        1 W7L      0.120000
     33 H10        -6.2940   -0.7100   -3.0900 ha        1 W7L      0.119000
     34 H11        -5.9830   -0.4370   -5.5030 ha        1 W7L      0.136000
     35 H12        -1.0090   -0.6410   -4.9070 ha        1 W7L      0.179000
     36 H13        -1.9710   -0.3330   -7.1580 ha        1 W7L      0.135000
     37 H14        -3.1800    0.9130   -8.6390 h1        1 W7L      0.037367
     38 H15        -4.5170    0.1580   -9.6490 h1        1 W7L      0.037367
     39 H16        -3.1660   -0.8900   -8.9770 h1        1 W7L      0.037367
     40 H17         3.9380   -0.0440   -0.5310 hn        1 W7L      0.367500
@<TRIPOS>BOND
     1    1    2 1   
     2    2    3 1   
     3    2    4 1   
     4    4    5 1   
     5    4   11 2   
     6    5    6 1   
     7    5   40 1   
     8    6    7 2   
     9    6    8 1   
    10    8    9 1   
    11    8   26 1   
    12    9   10 2   
    13    9   11 1   
    14   11   12 1   
    15   12   13 1   
    16   12   27 1   
    17   12   28 1   
    18   13   14 1   
    19   13   29 1   
    20   13   30 1   
    21   14   15 ar  
    22   14   20 ar  
    23   15   16 ar  
    24   15   31 1   
    25   16   17 ar  
    26   16   32 1   
    27   17   18 ar  
    28   17   33 1   
    29   18   19 ar  
    30   18   20 ar  
    31   19   23 ar  
    32   19   34 1   
    33   20   21 ar  
    34   21   22 ar  
    35   21   35 1   
    36   22   23 ar  
    37   22   36 1   
    38   23   24 1   
    39   24   25 1   
    40   25   37 1   
    41   25   38 1   
    42   25   39 1   
@<TRIPOS>SUBSTRUCTURE
     1 W7L         1 TEMP              0 ****  ****    0 ROOT
