@<TRIPOS>MOLECULE
W7L
   40    42     1     0     0
SMALL
bcc


@<TRIPOS>ATOM
      1 OAB         0.3630   -0.4000    0.4360 o         1 W7L     -0.787800
      2 CAQ         1.4580    0.1570    0.1870 c         1 W7L      0.920800
      3 OAE         2.1800    0.8010    0.9890 o         1 W7L     -0.787800
      4 CAT         2.0150    0.0150   -1.2650 cc        1 W7L      0.048400
      5 NAN         3.3870   -0.1540   -1.3560 ns        1 W7L     -0.435100
      6 CAV         4.0440   -0.2580   -2.5890 c         1 W7L      0.790500
      7 OAC         5.2930   -0.3720   -2.6600 o         1 W7L     -0.694500
      8 NAO         3.2600   -0.2510   -3.7530 ns        1 W7L     -0.590500
      9 CAW         1.8600   -0.1010   -3.7190 c         1 W7L      0.718700
     10 OAD         1.2600   -0.1140   -4.8160 o         1 W7L     -0.682500
     11 CAU         1.2410    0.0520   -2.3990 cd        1 W7L     -0.298400
     12 CAM        -0.2310    0.2410   -2.3690 c3        1 W7L      0.009800
     13 CAL        -0.9540   -1.0990   -2.3590 c3        1 W7L     -0.052100
     14 CAS        -2.4180   -0.9490   -2.5820 ca        1 W7L     -0.026300
     15 CAG        -3.2810   -1.0290   -1.5060 ca        1 W7L     -0.147000
     16 CAF        -4.6780   -0.9330   -1.6870 ca        1 W7L     -0.113000
     17 CAI        -5.2090   -0.7630   -2.9410 ca        1 W7L     -0.154000
     18 CAX        -4.3540   -0.6650   -4.0720 ca        1 W7L     -0.008000
     19 CAK        -4.8930   -0.4800   -5.3720 ca        1 W7L     -0.173000
     20 CAY        -2.9460   -0.7470   -3.8950 ca        1 W7L     -0.064000
     21 CAJ        -2.1080   -0.6150   -5.0380 ca        1 W7L     -0.070000
     22 CAH        -2.6370   -0.4340   -6.2920 ca        1 W7L     -0.201000
     23 CAR        -4.0450   -0.3710   -6.4580 ca        1 W7L      0.111100
     24 OAP        -4.6670   -0.2050   -7.6880 os        1 W7L     -0.339900
     25 CAA        -3.8060    0.0130   -8.7960 c3        1 W7L      0.118700
     26 H2          3.7300   -0.3470   -4.6240 hn        1 W7L      0.331500
     27 H4         -0.5460    0.8370   -3.2680 hc        1 W7L      0.058700
     28 H5         -0.5170    0.8110   -1.4440 hc        1 W7L      0.058700
     29 H6         -0.5190   -1.7690   -3.1480 hc        1 W7L      0.066700
     30 H7         -0.7610   -1.5790   -1.3580 hc        1 W7L      0.066700
     31 H8         -2.8760   -1.1630   -0.4890 ha        1 W7L      0.153000
     32 H9         -5.3330   -0.9980   -0.8050 ha        1 W7L      0.120000
     33 H10        -6.2950   -0.6950   -3.0940 ha        1 W7L      0.119000
     34 H11        -5.9820   -0.4230   -5.5070 ha        1 W7L      0.136000
     35 H12        -1.0090   -0.6430   -4.9070 ha        1 W7L      0.179000
     36 H13        -1.9690   -0.3320   -7.1580 ha        1 W7L      0.135000
     37 H14        -3.1730    0.9210   -8.6380 h1        1 W7L      0.037367
     38 H15        -4.5110    0.1700   -9.6510 h1        1 W7L      0.037367
     39 H16        -3.1630   -0.8820   -8.9790 h1        1 W7L      0.037367
     40 H17         3.9370   -0.0590   -0.5270 hn        1 W7L      0.367500
@<TRIPOS>BOND
     1    1    2 1   
     2    2    3 1   
     3    2    4 1   
     4    4    5 1   
     5    4   11 2   
     6    5    6 1   
     7    5   40 1   
     8    6    7 2   
     9    6    8 1   
    10    8    9 1   
    11    8   26 1   
    12    9   10 2   
    13    9   11 1   
    14   11   12 1   
    15   12   13 1   
    16   12   27 1   
    17   12   28 1   
    18   13   14 1   
    19   13   29 1   
    20   13   30 1   
    21   14   15 ar  
    22   14   20 ar  
    23   15   16 ar  
    24   15   31 1   
    25   16   17 ar  
    26   16   32 1   
    27   17   18 ar  
    28   17   33 1   
    29   18   19 ar  
    30   18   20 ar  
    31   19   23 ar  
    32   19   34 1   
    33   20   21 ar  
    34   21   22 ar  
    35   21   35 1   
    36   22   23 ar  
    37   22   36 1   
    38   23   24 1   
    39   24   25 1   
    40   25   37 1   
    41   25   38 1   
    42   25   39 1   
@<TRIPOS>SUBSTRUCTURE
     1 W7L         1 TEMP              0 ****  ****    0 ROOT
