@<TRIPOS>MOLECULE
W7M
   42    44     1     0     0
SMALL
bcc


@<TRIPOS>ATOM
      1 OAB         0.2500    0.1870    0.4230 o         1 W7M     -0.794300
      2 CAR         1.4250   -0.2560    0.3500 c         1 W7M      0.922800
      3 OAF         2.0800   -0.7920    1.2750 o         1 W7M     -0.794300
      4 CAV         2.1100   -0.1400   -1.0470 cc        1 W7M      0.046400
      5 NAO         1.2640   -0.3030   -2.1330 n         1 W7M     -0.436100
      6 CAX         1.7130   -0.1660   -3.4530 c         1 W7M      0.791500
      7 OAD         0.9280   -0.2810   -4.4260 o         1 W7M     -0.693500
      8 NAP         3.0770    0.0860   -3.6600 n         1 W7M     -0.592500
      9 CAY         3.9860    0.2490   -2.5950 c         1 W7M      0.716700
     10 OAE         5.1730    0.4940   -2.8950 o         1 W7M     -0.668500
     11 CAW         3.4460    0.1190   -1.2380 cd        1 W7M     -0.295400
     12 CAN         4.4000    0.2870   -0.1150 c3        1 W7M      0.010800
     13 CAM         5.0160   -1.0450    0.2940 c3        1 W7M     -0.043100
     14 CAT         5.7060   -0.9440    1.6090 ca        1 W7M     -0.044300
     15 CAK         4.9610   -0.8290    2.7680 ca        1 W7M     -0.122000
     16 CAG         7.1230   -0.9770    1.6830 ca        1 W7M     -0.122000
     17 CAI         7.7640   -0.8990    2.8940 ca        1 W7M     -0.131000
     18 CBA         7.0190   -0.7830    4.0990 ca        1 W7M     -0.070000
     19 CAL         7.6560   -0.7020    5.3640 ca        1 W7M     -0.046000
     20 CAZ         5.6010   -0.7450    4.0300 ca        1 W7M     -0.010000
     21 CAJ         4.8540   -0.6260    5.2370 ca        1 W7M     -0.117000
     22 CAH         5.4870   -0.5490    6.4500 ca        1 W7M     -0.104000
     23 CAU         6.9060   -0.5880    6.5180 ca        1 W7M     -0.150600
     24 CAS         7.5980   -0.5080    7.8070 c         1 W7M      0.651700
     25 OAC         8.8140   -0.5340    8.0320 o         1 W7M     -0.566000
     26 OAQ         6.7670   -0.3910    8.8970 os        1 W7M     -0.438900
     27 CAA         7.4000   -0.3080   10.1710 c3        1 W7M      0.129700
     28 H2          3.3900    0.1720   -4.6000 hn        1 W7M      0.331500
     29 H4          5.2130    1.0000   -0.4160 hc        1 W7M      0.058200
     30 H5          3.8540    0.7180    0.7700 hc        1 W7M      0.058200
     31 H6          4.1840   -1.8000    0.3830 hc        1 W7M      0.062200
     32 H7          5.7260   -1.3910   -0.5000 hc        1 W7M      0.062200
     33 H8          3.8540   -0.8010    2.7040 ha        1 W7M      0.199000
     34 H9          7.7000   -1.0630    0.7490 ha        1 W7M      0.133000
     35 H10         8.8620   -0.9240    2.9540 ha        1 W7M      0.123000
     36 H11         8.7570   -0.7310    5.4180 ha        1 W7M      0.145000
     37 H12         3.7550   -0.5960    5.1680 ha        1 W7M      0.151000
     38 H13         4.9150   -0.4560    7.3860 ha        1 W7M      0.145000
     39 H14         6.5450   -0.2180   10.8860 h1        1 W7M      0.044700
     40 H15         7.9980   -1.2310   10.3630 h1        1 W7M      0.044700
     41 H16         8.0630    0.5890   10.2130 h1        1 W7M      0.044700
     42 H17         0.2810   -0.3710   -1.9650 hn        1 W7M      0.367500
@<TRIPOS>BOND
     1    1    2 1   
     2    2    3 1   
     3    2    4 1   
     4    4    5 1   
     5    4   11 2   
     6    5    6 1   
     7    5   42 1   
     8    6    7 2   
     9    6    8 1   
    10    8    9 1   
    11    8   28 1   
    12    9   10 2   
    13    9   11 1   
    14   11   12 1   
    15   12   13 1   
    16   12   29 1   
    17   12   30 1   
    18   13   14 1   
    19   13   31 1   
    20   13   32 1   
    21   14   15 ar  
    22   14   16 ar  
    23   15   20 ar  
    24   15   33 1   
    25   16   17 ar  
    26   16   34 1   
    27   17   18 ar  
    28   17   35 1   
    29   18   19 ar  
    30   18   20 ar  
    31   19   23 ar  
    32   19   36 1   
    33   20   21 ar  
    34   21   22 ar  
    35   21   37 1   
    36   22   23 ar  
    37   22   38 1   
    38   23   24 1   
    39   24   25 2   
    40   24   26 1   
    41   26   27 1   
    42   27   39 1   
    43   27   40 1   
    44   27   41 1   
@<TRIPOS>SUBSTRUCTURE
     1 W7M         1 TEMP              0 ****  ****    0 ROOT
