@<TRIPOS>MOLECULE
W7M
   42    44     1     0     0
SMALL
bcc


@<TRIPOS>ATOM
      1 OAB         0.2390    0.1080    0.4260 o         1 W7M     -0.794300
      2 CAR         1.4210   -0.3120    0.3510 c         1 W7M      0.922800
      3 OAF         2.0870   -0.8410    1.2730 o         1 W7M     -0.794300
      4 CAV         2.1040   -0.1760   -1.0450 cc        1 W7M      0.046400
      5 NAO         1.2610   -0.3490   -2.1320 n         1 W7M     -0.436100
      6 CAX         1.7070   -0.1970   -3.4510 c         1 W7M      0.791500
      7 OAD         0.9240   -0.3220   -4.4250 o         1 W7M     -0.693500
      8 NAP         3.0660    0.0820   -3.6580 n         1 W7M     -0.592500
      9 CAY         3.9720    0.2570   -2.5910 c         1 W7M      0.716700
     10 OAE         5.1540    0.5260   -2.8900 o         1 W7M     -0.668500
     11 CAW         3.4350    0.1090   -1.2350 cd        1 W7M     -0.295400
     12 CAN         4.3860    0.2890   -0.1110 c3        1 W7M      0.010800
     13 CAM         5.0270   -1.0330    0.2910 c3        1 W7M     -0.043100
     14 CAT         5.7150   -0.9260    1.6070 ca        1 W7M     -0.044300
     15 CAK         4.9690   -0.8310    2.7650 ca        1 W7M     -0.122000
     16 CAG         7.1330   -0.9320    1.6790 ca        1 W7M     -0.122000
     17 CAI         7.7730   -0.8490    2.8910 ca        1 W7M     -0.131000
     18 CBA         7.0260   -0.7530    4.0970 ca        1 W7M     -0.070000
     19 CAL         7.6620   -0.6680    5.3620 ca        1 W7M     -0.046000
     20 CAZ         5.6070   -0.7430    4.0290 ca        1 W7M     -0.010000
     21 CAJ         4.8580   -0.6440    5.2360 ca        1 W7M     -0.117000
     22 CAH         5.4900   -0.5620    6.4490 ca        1 W7M     -0.104000
     23 CAU         6.9090   -0.5750    6.5170 ca        1 W7M     -0.150600
     24 CAS         7.6000   -0.4890    7.8060 c         1 W7M      0.651700
     25 OAC         8.8160   -0.4930    8.0310 o         1 W7M     -0.566000
     26 OAQ         6.7670   -0.3940    8.8970 os        1 W7M     -0.438900
     27 CAA         7.3990   -0.3070   10.1720 c3        1 W7M      0.129700
     28 H2          3.3780    0.1790   -4.5960 hn        1 W7M      0.331500
     29 H4          5.1850    1.0200   -0.4080 hc        1 W7M      0.058200
     30 H5          3.8320    0.7050    0.7760 hc        1 W7M      0.058200
     31 H6          5.7440   -1.3610   -0.5060 hc        1 W7M      0.062200
     32 H7          4.2100   -1.8040    0.3760 hc        1 W7M      0.062200
     33 H8          3.8620   -0.8240    2.7020 ha        1 W7M      0.199000
     34 H9          7.7110   -1.0020    0.7450 ha        1 W7M      0.133000
     35 H10         8.8710   -0.8540    2.9510 ha        1 W7M      0.123000
     36 H11         8.7620   -0.6770    5.4160 ha        1 W7M      0.145000
     37 H12         3.7590   -0.6340    5.1670 ha        1 W7M      0.151000
     38 H13         4.9160   -0.4850    7.3860 ha        1 W7M      0.145000
     39 H14         8.0140   -1.2200   10.3580 h1        1 W7M      0.044700
     40 H15         6.5430   -0.2380   10.8870 h1        1 W7M      0.044700
     41 H16         8.0440    0.6030   10.2180 h1        1 W7M      0.044700
     42 H17         0.2800   -0.4370   -1.9650 hn        1 W7M      0.367500
@<TRIPOS>BOND
     1    1    2 1   
     2    2    3 1   
     3    2    4 1   
     4    4    5 1   
     5    4   11 2   
     6    5    6 1   
     7    5   42 1   
     8    6    7 2   
     9    6    8 1   
    10    8    9 1   
    11    8   28 1   
    12    9   10 2   
    13    9   11 1   
    14   11   12 1   
    15   12   13 1   
    16   12   29 1   
    17   12   30 1   
    18   13   14 1   
    19   13   31 1   
    20   13   32 1   
    21   14   15 ar  
    22   14   16 ar  
    23   15   20 ar  
    24   15   33 1   
    25   16   17 ar  
    26   16   34 1   
    27   17   18 ar  
    28   17   35 1   
    29   18   19 ar  
    30   18   20 ar  
    31   19   23 ar  
    32   19   36 1   
    33   20   21 ar  
    34   21   22 ar  
    35   21   37 1   
    36   22   23 ar  
    37   22   38 1   
    38   23   24 1   
    39   24   25 2   
    40   24   26 1   
    41   26   27 1   
    42   27   39 1   
    43   27   40 1   
    44   27   41 1   
@<TRIPOS>SUBSTRUCTURE
     1 W7M         1 TEMP              0 ****  ****    0 ROOT
