@<TRIPOS>MOLECULE
W7M
   42    44     1     0     0
SMALL
bcc


@<TRIPOS>ATOM
      1 OAB         0.2450    0.1410    0.4230 o         1 W7M     -0.794300
      2 CAR         1.4240   -0.2880    0.3480 c         1 W7M      0.922800
      3 OAF         2.0860   -0.8220    1.2710 o         1 W7M     -0.794300
      4 CAV         2.1090   -0.1590   -1.0470 cc        1 W7M      0.046400
      5 NAO         1.2660   -0.3270   -2.1340 ns        1 W7M     -0.436100
      6 CAX         1.7130   -0.1780   -3.4530 c         1 W7M      0.791500
      7 OAD         0.9300   -0.2990   -4.4280 o         1 W7M     -0.693500
      8 NAP         3.0740    0.0910   -3.6590 ns        1 W7M     -0.592500
      9 CAY         3.9810    0.2600   -2.5930 c         1 W7M      0.716700
     10 OAE         5.1650    0.5210   -2.8910 o         1 W7M     -0.668500
     11 CAW         3.4420    0.1170   -1.2360 cd        1 W7M     -0.295400
     12 CAN         4.3930    0.2910   -0.1120 c3        1 W7M      0.010800
     13 CAM         5.0250   -1.0350    0.2910 c3        1 W7M     -0.043100
     14 CAT         5.7120   -0.9320    1.6070 ca        1 W7M     -0.044300
     15 CAK         4.9660   -0.8310    2.7660 ca        1 W7M     -0.122000
     16 CAG         7.1300   -0.9480    1.6810 ca        1 W7M     -0.122000
     17 CAI         7.7700   -0.8690    2.8940 ca        1 W7M     -0.131000
     18 CBA         7.0230   -0.7660    4.0980 ca        1 W7M     -0.070000
     19 CAL         7.6580   -0.6840    5.3640 ca        1 W7M     -0.046000
     20 CAZ         5.6040   -0.7460    4.0290 ca        1 W7M     -0.010000
     21 CAJ         4.8550   -0.6400    5.2350 ca        1 W7M     -0.117000
     22 CAH         5.4860   -0.5620    6.4500 ca        1 W7M     -0.104000
     23 CAU         6.9050   -0.5840    6.5190 ca        1 W7M     -0.150600
     24 CAS         7.5960   -0.5020    7.8080 c         1 W7M      0.651700
     25 OAC         8.8120   -0.5140    8.0340 o         1 W7M     -0.566000
     26 OAQ         6.7630   -0.4000    8.8980 os        1 W7M     -0.438900
     27 CAA         7.3940   -0.3160   10.1730 c3        1 W7M      0.129700
     28 H2          3.3870    0.1850   -4.5980 hn        1 W7M      0.331500
     29 H4          5.1970    1.0160   -0.4100 hc        1 W7M      0.058200
     30 H5          3.8420    0.7120    0.7750 hc        1 W7M      0.058200
     31 H6          4.2020   -1.8000    0.3760 hc        1 W7M      0.062200
     32 H7          5.7400   -1.3690   -0.5040 hc        1 W7M      0.062200
     33 H8          3.8590   -0.8160    2.7020 ha        1 W7M      0.199000
     34 H9          7.7080   -1.0230    0.7480 ha        1 W7M      0.133000
     35 H10         8.8680   -0.8810    2.9540 ha        1 W7M      0.123000
     36 H11         8.7590   -0.7010    5.4190 ha        1 W7M      0.145000
     37 H12         3.7550   -0.6230    5.1660 ha        1 W7M      0.151000
     38 H13         4.9120   -0.4790    7.3850 ha        1 W7M      0.145000
     39 H14         6.5380   -0.2400   10.8880 h1        1 W7M      0.044700
     40 H15         8.0030   -1.2320   10.3610 h1        1 W7M      0.044700
     41 H16         8.0460    0.5900   10.2190 h1        1 W7M      0.044700
     42 H17         0.2830   -0.4070   -1.9680 hn        1 W7M      0.367500
@<TRIPOS>BOND
     1    1    2 1   
     2    2    3 1   
     3    2    4 1   
     4    4    5 1   
     5    4   11 2   
     6    5    6 1   
     7    5   42 1   
     8    6    7 2   
     9    6    8 1   
    10    8    9 1   
    11    8   28 1   
    12    9   10 2   
    13    9   11 1   
    14   11   12 1   
    15   12   13 1   
    16   12   29 1   
    17   12   30 1   
    18   13   14 1   
    19   13   31 1   
    20   13   32 1   
    21   14   15 ar  
    22   14   16 ar  
    23   15   20 ar  
    24   15   33 1   
    25   16   17 ar  
    26   16   34 1   
    27   17   18 ar  
    28   17   35 1   
    29   18   19 ar  
    30   18   20 ar  
    31   19   23 ar  
    32   19   36 1   
    33   20   21 ar  
    34   21   22 ar  
    35   21   37 1   
    36   22   23 ar  
    37   22   38 1   
    38   23   24 1   
    39   24   25 2   
    40   24   26 1   
    41   26   27 1   
    42   27   39 1   
    43   27   40 1   
    44   27   41 1   
@<TRIPOS>SUBSTRUCTURE
     1 W7M         1 TEMP              0 ****  ****    0 ROOT
