@<TRIPOS>MOLECULE
W7N
   48    50     1     0     0
SMALL
bcc


@<TRIPOS>ATOM
      1 OAA         0.3700    0.2130    0.6140 o         1 W7N     -0.794800
      2 CAT         1.4720   -0.3350    0.3770 c         1 W7N      0.922800
      3 OAF         2.1710   -0.9980    1.1860 o         1 W7N     -0.794800
      4 CAY         2.0130   -0.1950   -1.0760 cc        1 W7N      0.062400
      5 NAR         1.0880   -0.3800   -2.0850 ns        1 W7N     -0.434100
      6 CAZ         1.4310   -0.2360   -3.4400 c         1 W7N      0.793500
      7 OAC         0.5750   -0.3750   -4.3440 o         1 W7N     -0.670500
      8 NAS         2.7690    0.0500   -3.7550 ns        1 W7N     -0.588500
      9 CBA         3.7540    0.2380   -2.7670 c         1 W7N      0.721700
     10 OAD         4.9130    0.5030   -3.1480 o         1 W7N     -0.670500
     11 CAX         3.3220    0.1040   -1.3730 cd        1 W7N     -0.318400
     12 CAP         4.3430    0.3210   -0.3210 c3        1 W7N      0.021800
     13 CAO         4.9750   -0.9970    0.1130 c3        1 W7N     -0.071100
     14 CAV         5.6840   -0.8450    1.4090 ca        1 W7N      0.038700
     15 CAK         7.0680   -0.8500    1.4880 ca        1 W7N     -0.170000
     16 CAG         4.9080   -0.6940    2.5940 ca        1 W7N     -0.101000
     17 CAI         5.5180   -0.5490    3.8140 ca        1 W7N     -0.109000
     18 CBC         6.9380   -0.5460    3.9160 ca        1 W7N     -0.090000
     19 CAL         7.5870   -0.3900    5.1550 ca        1 W7N      0.038000
     20 CBB         7.7160   -0.7000    2.7310 ca        1 W7N      0.018000
     21 CAJ         9.1390   -0.6930    2.8410 ca        1 W7N     -0.090000
     22 CAH         9.7570   -0.5390    4.0510 ca        1 W7N     -0.143000
     23 CAW         8.9820   -0.3830    5.2380 ca        1 W7N     -0.253600
     24 CAU         9.5520   -0.2120    6.5540 c         1 W7N      0.580700
     25 OAB         8.9950   -0.0930    7.6410 o         1 W7N     -0.475100
     26 NAQ        11.0790   -0.1730    6.6150 ny        1 W7N     -0.670800
     27 CAN        11.6140    0.0750    7.9800 c3        1 W7N      0.101800
     28 CAM        13.1450    0.0730    8.0180 c3        1 W7N      0.107400
     29 OAE        13.5930    0.9390    6.9910 oh        1 W7N     -0.627800
     30 H2          0.1230   -0.4790   -1.8470 hn        1 W7N      0.368500
     31 H3          3.0050    0.1410   -4.7170 hn        1 W7N      0.338500
     32 H4          3.8520    0.7990    0.5710 hc        1 W7N      0.055200
     33 H5          5.1400    1.0120   -0.7050 hc        1 W7N      0.055200
     34 H6          5.6700   -1.3650   -0.6850 hc        1 W7N      0.084200
     35 H7          4.1440   -1.7500    0.2480 hc        1 W7N      0.084200
     36 H8          7.6740   -0.9660    0.5760 ha        1 W7N      0.151000
     37 H9          3.7980   -0.7010    2.4920 ha        1 W7N      0.233000
     38 H10         4.9170   -0.4330    4.7300 ha        1 W7N      0.146000
     39 H11         6.9790   -0.2710    6.0710 ha        1 W7N      0.160000
     40 H12         9.7330   -0.8130    1.9200 ha        1 W7N      0.152000
     41 H13        10.8560   -0.5390    4.0830 ha        1 W7N      0.108000
     42 H14        11.4160    0.5720    5.9910 hn        1 W7N      0.460300
     43 H15        11.2160   -0.7190    8.6740 hx        1 W7N      0.116700
     44 H16        11.2200    1.0760    8.3210 hx        1 W7N      0.116700
     45 H17        13.4690    0.4280    9.0330 h1        1 W7N      0.065700
     46 H18        13.5530   -0.9590    7.8360 h1        1 W7N      0.065700
     47 H19        14.4850    1.2320    7.2190 ho        1 W7N      0.444000
     48 HAQ2       11.4410   -1.0630    6.2590 hn        1 W7N      0.460300
@<TRIPOS>BOND
     1    1    2 1   
     2    2    3 1   
     3    2    4 1   
     4    4    5 1   
     5    4   11 2   
     6    5    6 1   
     7    5   30 1   
     8    6    7 2   
     9    6    8 1   
    10    8    9 1   
    11    8   31 1   
    12    9   10 2   
    13    9   11 1   
    14   11   12 1   
    15   12   13 1   
    16   12   32 1   
    17   12   33 1   
    18   13   14 1   
    19   13   34 1   
    20   13   35 1   
    21   14   15 ar  
    22   14   16 ar  
    23   15   20 ar  
    24   15   36 1   
    25   16   17 ar  
    26   16   37 1   
    27   17   18 ar  
    28   17   38 1   
    29   18   19 ar  
    30   18   20 ar  
    31   19   23 ar  
    32   19   39 1   
    33   20   21 ar  
    34   21   22 ar  
    35   21   40 1   
    36   22   23 ar  
    37   22   41 1   
    38   23   24 1   
    39   24   25 2   
    40   24   26 1   
    41   26   27 1   
    42   26   42 1   
    43   26   48 1   
    44   27   28 1   
    45   27   43 1   
    46   27   44 1   
    47   28   29 1   
    48   28   45 1   
    49   28   46 1   
    50   29   47 1   
@<TRIPOS>SUBSTRUCTURE
     1 W7N         1 TEMP              0 ****  ****    0 ROOT
