@<TRIPOS>MOLECULE
W7N
   48    50     1     0     0
SMALL
bcc


@<TRIPOS>ATOM
      1 OAA         0.3760    0.2480    0.6040 o         1 W7N     -0.794800
      2 CAT         1.4740   -0.3110    0.3720 c         1 W7N      0.922800
      3 OAF         2.1660   -0.9740    1.1870 o         1 W7N     -0.794800
      4 CAY         2.0180   -0.1860   -1.0810 cc        1 W7N      0.062400
      5 NAR         1.0930   -0.3700   -2.0900 n         1 W7N     -0.434100
      6 CAZ         1.4390   -0.2380   -3.4460 c         1 W7N      0.793500
      7 OAC         0.5820   -0.3760   -4.3500 o         1 W7N     -0.670500
      8 NAS         2.7790    0.0340   -3.7610 n         1 W7N     -0.588500
      9 CBA         3.7640    0.2210   -2.7720 c         1 W7N      0.721700
     10 OAD         4.9260    0.4720   -3.1540 o         1 W7N     -0.670500
     11 CAX         3.3300    0.1000   -1.3780 cd        1 W7N     -0.318400
     12 CAP         4.3510    0.3150   -0.3270 c3        1 W7N      0.021800
     13 CAO         4.9720   -1.0060    0.1180 c3        1 W7N     -0.071100
     14 CAV         5.6810   -0.8510    1.4130 ca        1 W7N      0.038700
     15 CAK         7.0650   -0.8670    1.4930 ca        1 W7N     -0.170000
     16 CAG         4.9040   -0.6850    2.5960 ca        1 W7N     -0.101000
     17 CAI         5.5150   -0.5360    3.8160 ca        1 W7N     -0.109000
     18 CBC         6.9340   -0.5440    3.9190 ca        1 W7N     -0.090000
     19 CAL         7.5830   -0.3850    5.1570 ca        1 W7N      0.038000
     20 CBB         7.7130   -0.7130    2.7360 ca        1 W7N      0.018000
     21 CAJ         9.1350   -0.7170    2.8470 ca        1 W7N     -0.090000
     22 CAH         9.7540   -0.5590    4.0570 ca        1 W7N     -0.143000
     23 CAW         8.9780   -0.3890    5.2420 ca        1 W7N     -0.253600
     24 CAU         9.5490   -0.2120    6.5570 c         1 W7N      0.580700
     25 OAB         8.9920   -0.0840    7.6430 o         1 W7N     -0.475100
     26 NAQ        11.0760   -0.1790    6.6190 n4        1 W7N     -0.670800
     27 CAN        11.6110    0.0800    7.9810 c3        1 W7N      0.101800
     28 CAM        13.1430    0.0720    8.0200 c3        1 W7N      0.107400
     29 OAE        13.5950    0.9250    6.9840 oh        1 W7N     -0.627800
     30 H2          0.1270   -0.4590   -1.8520 hn        1 W7N      0.368500
     31 H3          3.0170    0.1170   -4.7230 hn        1 W7N      0.338500
     32 H4          3.8630    0.8040    0.5610 hc        1 W7N      0.055200
     33 H5          5.1550    0.9960   -0.7140 hc        1 W7N      0.055200
     34 H6          5.6650   -1.3850   -0.6770 hc        1 W7N      0.084200
     35 H7          4.1340   -1.7510    0.2560 hc        1 W7N      0.084200
     36 H8          7.6710   -0.9930    0.5820 ha        1 W7N      0.151000
     37 H9          3.7950   -0.6830    2.4930 ha        1 W7N      0.233000
     38 H10         4.9140   -0.4090    4.7300 ha        1 W7N      0.146000
     39 H11         6.9760   -0.2540    6.0720 ha        1 W7N      0.160000
     40 H12         9.7290   -0.8480    1.9280 ha        1 W7N      0.152000
     41 H13        10.8520   -0.5690    4.0900 ha        1 W7N      0.108000
     42 H14        11.4340   -1.0740    6.2710 hn        1 W7N      0.460300
     43 H15        11.2220    1.0860    8.3120 hx        1 W7N      0.116700
     44 H16        11.2100   -0.7050    8.6820 hx        1 W7N      0.116700
     45 H17        13.5460   -0.9630    7.8480 h1        1 W7N      0.066200
     46 H18        13.4670    0.4360    9.0310 h1        1 W7N      0.066200
     47 H19        14.4870    1.2180    7.2100 ho        1 W7N      0.444000
     48 HAQ2       11.4170    0.5590    5.9870 hn        1 W7N      0.460300
@<TRIPOS>BOND
     1    1    2 1   
     2    2    3 1   
     3    2    4 1   
     4    4    5 1   
     5    4   11 2   
     6    5    6 1   
     7    5   30 1   
     8    6    7 2   
     9    6    8 1   
    10    8    9 1   
    11    8   31 1   
    12    9   10 2   
    13    9   11 1   
    14   11   12 1   
    15   12   13 1   
    16   12   32 1   
    17   12   33 1   
    18   13   14 1   
    19   13   34 1   
    20   13   35 1   
    21   14   15 ar  
    22   14   16 ar  
    23   15   20 ar  
    24   15   36 1   
    25   16   17 ar  
    26   16   37 1   
    27   17   18 ar  
    28   17   38 1   
    29   18   19 ar  
    30   18   20 ar  
    31   19   23 ar  
    32   19   39 1   
    33   20   21 ar  
    34   21   22 ar  
    35   21   40 1   
    36   22   23 ar  
    37   22   41 1   
    38   23   24 1   
    39   24   25 2   
    40   24   26 1   
    41   26   27 1   
    42   26   42 1   
    43   26   48 1   
    44   27   28 1   
    45   27   43 1   
    46   27   44 1   
    47   28   29 1   
    48   28   45 1   
    49   28   46 1   
    50   29   47 1   
@<TRIPOS>SUBSTRUCTURE
     1 W7N         1 TEMP              0 ****  ****    0 ROOT
