@<TRIPOS>MOLECULE
W7N
   48    50     1     0     0
SMALL
bcc


@<TRIPOS>ATOM
      1 OAA         0.3720    0.2190    0.6060 o         1 W7N     -0.794800
      2 CAT         1.4740   -0.3300    0.3700 c         1 W7N      0.922800
      3 OAF         2.1710   -0.9920    1.1820 o         1 W7N     -0.794800
      4 CAY         2.0170   -0.1930   -1.0820 cc        1 W7N      0.062400
      5 NAR         1.0930   -0.3780   -2.0920 n         1 W7N     -0.434100
      6 CAZ         1.4380   -0.2370   -3.4470 c         1 W7N      0.793500
      7 OAC         0.5820   -0.3770   -4.3520 o         1 W7N     -0.670500
      8 NAS         2.7760    0.0460   -3.7600 n         1 W7N     -0.588500
      9 CBA         3.7600    0.2360   -2.7710 c         1 W7N      0.721700
     10 OAD         4.9200    0.4980   -3.1510 o         1 W7N     -0.670500
     11 CAX         3.3270    0.1040   -1.3770 cd        1 W7N     -0.318400
     12 CAP         4.3460    0.3220   -0.3250 c3        1 W7N      0.021800
     13 CAO         4.9770   -0.9970    0.1130 c3        1 W7N     -0.071100
     14 CAV         5.6850   -0.8440    1.4090 ca        1 W7N      0.038700
     15 CAK         7.0690   -0.8510    1.4890 ca        1 W7N     -0.170000
     16 CAG         4.9070   -0.6890    2.5920 ca        1 W7N     -0.101000
     17 CAI         5.5160   -0.5430    3.8130 ca        1 W7N     -0.109000
     18 CBC         6.9360   -0.5420    3.9170 ca        1 W7N     -0.090000
     19 CAL         7.5830   -0.3860    5.1560 ca        1 W7N      0.038000
     20 CBB         7.7160   -0.6990    2.7320 ca        1 W7N      0.018000
     21 CAJ         9.1380   -0.6940    2.8450 ca        1 W7N     -0.090000
     22 CAH         9.7550   -0.5400    4.0550 ca        1 W7N     -0.143000
     23 CAW         8.9790   -0.3810    5.2410 ca        1 W7N     -0.253600
     24 CAU         9.5480   -0.2090    6.5570 c         1 W7N      0.580700
     25 OAB         8.9900   -0.0860    7.6430 o         1 W7N     -0.475100
     26 NAQ        11.0750   -0.1740    6.6200 n4        1 W7N     -0.670800
     27 CAN        11.6080    0.0730    7.9850 c3        1 W7N      0.101800
     28 CAM        13.1400    0.0660    8.0260 c3        1 W7N      0.107400
     29 OAE        13.5920    0.9300    6.9980 oh        1 W7N     -0.627800
     30 H2          0.1280   -0.4760   -1.8540 hn        1 W7N      0.368500
     31 H3          3.0130    0.1360   -4.7220 hn        1 W7N      0.338500
     32 H4          3.8550    0.8020    0.5660 hc        1 W7N      0.055200
     33 H5          5.1450    1.0110   -0.7090 hc        1 W7N      0.055200
     34 H6          5.6720   -1.3670   -0.6840 hc        1 W7N      0.084200
     35 H7          4.1450   -1.7490    0.2470 hc        1 W7N      0.084200
     36 H8          7.6760   -0.9690    0.5780 ha        1 W7N      0.151000
     37 H9          3.7980   -0.6940    2.4900 ha        1 W7N      0.233000
     38 H10         4.9150   -0.4240    4.7280 ha        1 W7N      0.146000
     39 H11         6.9760   -0.2640    6.0710 ha        1 W7N      0.160000
     40 H12         9.7320   -0.8160    1.9240 ha        1 W7N      0.152000
     41 H13        10.8540   -0.5410    4.0880 ha        1 W7N      0.108000
     42 H14        11.4150    0.5700    5.9960 hn        1 W7N      0.460300
     43 H15        11.2080   -0.7190    8.6790 hx        1 W7N      0.116700
     44 H16        11.2170    1.0750    8.3250 hx        1 W7N      0.116700
     45 H17        13.4630    0.4210    9.0400 h1        1 W7N      0.065700
     46 H18        13.5450   -0.9670    7.8450 h1        1 W7N      0.065700
     47 H19        14.4840    1.2210    7.2270 ho        1 W7N      0.444000
     48 HAQ2       11.4340   -1.0650    6.2650 hn        1 W7N      0.460300
@<TRIPOS>BOND
     1    1    2 1   
     2    2    3 1   
     3    2    4 1   
     4    4    5 1   
     5    4   11 2   
     6    5    6 1   
     7    5   30 1   
     8    6    7 2   
     9    6    8 1   
    10    8    9 1   
    11    8   31 1   
    12    9   10 2   
    13    9   11 1   
    14   11   12 1   
    15   12   13 1   
    16   12   32 1   
    17   12   33 1   
    18   13   14 1   
    19   13   34 1   
    20   13   35 1   
    21   14   15 ar  
    22   14   16 ar  
    23   15   20 ar  
    24   15   36 1   
    25   16   17 ar  
    26   16   37 1   
    27   17   18 ar  
    28   17   38 1   
    29   18   19 ar  
    30   18   20 ar  
    31   19   23 ar  
    32   19   39 1   
    33   20   21 ar  
    34   21   22 ar  
    35   21   40 1   
    36   22   23 ar  
    37   22   41 1   
    38   23   24 1   
    39   24   25 2   
    40   24   26 1   
    41   26   27 1   
    42   26   42 1   
    43   26   48 1   
    44   27   28 1   
    45   27   43 1   
    46   27   44 1   
    47   28   29 1   
    48   28   45 1   
    49   28   46 1   
    50   29   47 1   
@<TRIPOS>SUBSTRUCTURE
     1 W7N         1 TEMP              0 ****  ****    0 ROOT
