@<TRIPOS>MOLECULE
W7O
   32    33     1     0     0
SMALL
bcc


@<TRIPOS>ATOM
      1 OAA         1.0940   -1.1550    0.5580 o         1 W7O     -0.847800
      2 CAO         2.2250   -0.6880    0.2360 c         1 W7O      0.906200
      3 OAE         3.1870   -0.5870    1.0560 o         1 W7O     -0.847800
      4 CAR         2.4520   -0.2410   -1.1960 ca        1 W7O     -0.132600
      5 CAJ         1.4030   -0.2170   -2.1220 ca        1 W7O     -0.101000
      6 CAI         3.7330    0.1410   -1.6060 ca        1 W7O     -0.121000
      7 CAG         3.9650    0.5240   -2.9250 ca        1 W7O     -0.175000
      8 CAH         2.9210    0.5300   -3.8470 ca        1 W7O     -0.149000
      9 CAQ         1.6280    0.1650   -3.4500 ca        1 W7O     -0.102300
     10 CAK         0.5320    0.1310   -4.4610 c3        1 W7O     -0.022100
     11 CAL         0.2850    1.4790   -5.1290 c3        1 W7O     -0.006200
     12 CAS        -0.0750    1.3480   -6.5660 cc        1 W7O     -0.264400
     13 CAV         0.9960    0.8910   -7.4650 c         1 W7O      0.711700
     14 OAD         2.1850    0.6720   -7.1610 o         1 W7O     -0.657500
     15 NAN         0.6570    0.7000   -8.8250 n         1 W7O     -0.597500
     16 CAU        -0.6120    1.0060   -9.3310 c         1 W7O      0.788500
     17 OAC        -0.8650    0.8610  -10.5570 o         1 W7O     -0.721500
     18 NAM        -1.5820    1.4520   -8.4320 n         1 W7O     -0.436100
     19 CAT        -1.3090    1.6540   -7.0810 cd        1 W7O      0.031400
     20 CAP        -2.4970    2.2840   -6.2910 c         1 W7O      0.918800
     21 OAF        -3.1300    3.1890   -6.9030 o         1 W7O     -0.792300
     22 OAB        -2.7530    1.8390   -5.1510 o         1 W7O     -0.792300
     23 H2          0.3990   -0.5150   -1.7800 ha        1 W7O      0.148000
     24 H3          4.5460    0.1280   -0.8630 ha        1 W7O      0.136000
     25 H4          4.9750    0.8180   -3.2440 ha        1 W7O      0.093000
     26 H5          3.1020    0.8100   -4.8980 ha        1 W7O      0.134000
     27 H6         -0.4230   -0.2180   -3.9860 hc        1 W7O      0.042700
     28 H7          0.8130   -0.6240   -5.2450 hc        1 W7O      0.042700
     29 H8          1.2130    2.1100   -5.0570 hc        1 W7O      0.065200
     30 H9         -0.5430    2.0110   -4.5850 hc        1 W7O      0.065200
     31 H10         1.3450    0.3820   -9.4670 hn        1 W7O      0.323500
     32 H11        -2.4380    1.8150   -8.7970 hn        1 W7O      0.359500
@<TRIPOS>BOND
     1    1    2 1   
     2    2    3 1   
     3    2    4 1   
     4    4    5 ar  
     5    4    6 ar  
     6    5    9 ar  
     7    5   23 1   
     8    6    7 ar  
     9    6   24 1   
    10    7    8 ar  
    11    7   25 1   
    12    8    9 ar  
    13    8   26 1   
    14    9   10 1   
    15   10   11 1   
    16   10   27 1   
    17   10   28 1   
    18   11   12 1   
    19   11   29 1   
    20   11   30 1   
    21   12   13 1   
    22   12   19 2   
    23   13   14 2   
    24   13   15 1   
    25   15   16 1   
    26   15   31 1   
    27   16   17 2   
    28   16   18 1   
    29   18   19 1   
    30   18   32 1   
    31   19   20 1   
    32   20   21 1   
    33   20   22 1   
@<TRIPOS>SUBSTRUCTURE
     1 W7O         1 TEMP              0 ****  ****    0 ROOT
