@<TRIPOS>MOLECULE
W7O
   32    33     1     0     0
SMALL
bcc


@<TRIPOS>ATOM
      1 OAA         1.0990   -1.2430    0.5260 o         1 W7O     -0.847800
      2 CAO         2.2140   -0.7260    0.2290 c         1 W7O      0.906200
      3 OAE         3.1610   -0.6020    1.0630 o         1 W7O     -0.847800
      4 CAR         2.4420   -0.2440   -1.1920 ca        1 W7O     -0.132600
      5 CAJ         1.4050   -0.2450   -2.1320 ca        1 W7O     -0.101000
      6 CAI         3.7120    0.1960   -1.5770 ca        1 W7O     -0.121000
      7 CAG         3.9450    0.6130   -2.8870 ca        1 W7O     -0.175000
      8 CAH         2.9140    0.5940   -3.8220 ca        1 W7O     -0.149000
      9 CAQ         1.6310    0.1710   -3.4490 ca        1 W7O     -0.102300
     10 CAK         0.5510    0.1120   -4.4760 c3        1 W7O     -0.022100
     11 CAL         0.2580    1.4610   -5.1230 c3        1 W7O     -0.006200
     12 CAS        -0.0770    1.3420   -6.5670 cc        1 W7O     -0.264400
     13 CAV         1.0230    0.9460   -7.4600 c         1 W7O      0.711700
     14 OAD         2.2160    0.7690   -7.1430 o         1 W7O     -0.657500
     15 NAN         0.7100    0.7670   -8.8270 n         1 W7O     -0.597500
     16 CAU        -0.5640    1.0310   -9.3450 c         1 W7O      0.788500
     17 OAC        -0.7950    0.8990  -10.5760 o         1 W7O     -0.721500
     18 NAM        -1.5630    1.4210   -8.4510 n         1 W7O     -0.436100
     19 CAT        -1.3160    1.6080   -7.0930 cd        1 W7O      0.031400
     20 CAP        -2.5390    2.1750   -6.3080 c         1 W7O      0.918800
     21 OAF        -3.1990    3.0650   -6.9120 o         1 W7O     -0.792300
     22 OAB        -2.7910    1.6990   -5.1800 o         1 W7O     -0.792300
     23 H2          0.4090   -0.5880   -1.8100 ha        1 W7O      0.148000
     24 H3          4.5150    0.2010   -0.8240 ha        1 W7O      0.136000
     25 H4          4.9460    0.9520   -3.1860 ha        1 W7O      0.093000
     26 H5          3.0970    0.9000   -4.8650 ha        1 W7O      0.134000
     27 H6          0.8720   -0.6170   -5.2700 hc        1 W7O      0.042700
     28 H7         -0.3950   -0.2840   -4.0200 hc        1 W7O      0.042700
     29 H8          1.1590    2.1270   -5.0270 hc        1 W7O      0.065200
     30 H9         -0.5980    1.9490   -4.5800 hc        1 W7O      0.065200
     31 H10         1.4180    0.4890   -9.4650 hn        1 W7O      0.323500
     32 H11        -2.4280    1.7560   -8.8210 hn        1 W7O      0.359500
@<TRIPOS>BOND
     1    1    2 1   
     2    2    3 1   
     3    2    4 1   
     4    4    5 ar  
     5    4    6 ar  
     6    5    9 ar  
     7    5   23 1   
     8    6    7 ar  
     9    6   24 1   
    10    7    8 ar  
    11    7   25 1   
    12    8    9 ar  
    13    8   26 1   
    14    9   10 1   
    15   10   11 1   
    16   10   27 1   
    17   10   28 1   
    18   11   12 1   
    19   11   29 1   
    20   11   30 1   
    21   12   13 1   
    22   12   19 2   
    23   13   14 2   
    24   13   15 1   
    25   15   16 1   
    26   15   31 1   
    27   16   17 2   
    28   16   18 1   
    29   18   19 1   
    30   18   32 1   
    31   19   20 1   
    32   20   21 1   
    33   20   22 1   
@<TRIPOS>SUBSTRUCTURE
     1 W7O         1 TEMP              0 ****  ****    0 ROOT
