@<TRIPOS>MOLECULE
W7O
   32    33     1     0     0
SMALL
bcc


@<TRIPOS>ATOM
      1 OAA         1.1180   -1.2740    0.5140 o         1 W7O     -0.847800
      2 CAO         2.2250   -0.7360    0.2230 c         1 W7O      0.906200
      3 OAE         3.1670   -0.6010    1.0610 o         1 W7O     -0.847800
      4 CAR         2.4480   -0.2400   -1.1940 ca        1 W7O     -0.132600
      5 CAJ         1.4140   -0.2530   -2.1360 ca        1 W7O     -0.101000
      6 CAI         3.7110    0.2250   -1.5730 ca        1 W7O     -0.121000
      7 CAG         3.9410    0.6540   -2.8790 ca        1 W7O     -0.175000
      8 CAH         2.9130    0.6240   -3.8170 ca        1 W7O     -0.149000
      9 CAQ         1.6370    0.1750   -3.4510 ca        1 W7O     -0.102300
     10 CAK         0.5600    0.1040   -4.4810 c3        1 W7O     -0.022100
     11 CAL         0.2460    1.4520   -5.1190 c3        1 W7O     -0.006200
     12 CAS        -0.0830    1.3370   -6.5650 cc        1 W7O     -0.264400
     13 CAV         1.0260    0.9670   -7.4570 c         1 W7O      0.711700
     14 OAD         2.2210    0.8100   -7.1380 o         1 W7O     -0.657500
     15 NAN         0.7210    0.7930   -8.8260 ns        1 W7O     -0.597500
     16 CAU        -0.5560    1.0370   -9.3470 c         1 W7O      0.788500
     17 OAC        -0.7810    0.9090  -10.5800 o         1 W7O     -0.721500
     18 NAM        -1.5650    1.4010   -8.4540 ns        1 W7O     -0.436100
     19 CAT        -1.3250    1.5840   -7.0930 cd        1 W7O      0.031400
     20 CAP        -2.5610    2.1230   -6.3080 c         1 W7O      0.918800
     21 OAF        -3.2360    3.0040   -6.9080 o         1 W7O     -0.792300
     22 OAB        -2.8070    1.6350   -5.1840 o         1 W7O     -0.792300
     23 H2          0.4230   -0.6160   -1.8190 ha        1 W7O      0.148000
     24 H3          4.5120    0.2390   -0.8170 ha        1 W7O      0.136000
     25 H4          4.9370    1.0140   -3.1730 ha        1 W7O      0.093000
     26 H5          3.0930    0.9400   -4.8570 ha        1 W7O      0.134000
     27 H6          0.8970   -0.6140   -5.2790 hc        1 W7O      0.042700
     28 H7         -0.3800   -0.3110   -4.0300 hc        1 W7O      0.042700
     29 H8          1.1340    2.1340   -5.0160 hc        1 W7O      0.065200
     30 H9         -0.6210    1.9210   -4.5770 hc        1 W7O      0.065200
     31 H10         1.4360    0.5320   -9.4650 hn        1 W7O      0.323500
     32 H11        -2.4350    1.7240   -8.8240 hn        1 W7O      0.359500
@<TRIPOS>BOND
     1    1    2 1   
     2    2    3 1   
     3    2    4 1   
     4    4    5 ar  
     5    4    6 ar  
     6    5    9 ar  
     7    5   23 1   
     8    6    7 ar  
     9    6   24 1   
    10    7    8 ar  
    11    7   25 1   
    12    8    9 ar  
    13    8   26 1   
    14    9   10 1   
    15   10   11 1   
    16   10   27 1   
    17   10   28 1   
    18   11   12 1   
    19   11   29 1   
    20   11   30 1   
    21   12   13 1   
    22   12   19 2   
    23   13   14 2   
    24   13   15 1   
    25   15   16 1   
    26   15   31 1   
    27   16   17 2   
    28   16   18 1   
    29   18   19 1   
    30   18   32 1   
    31   19   20 1   
    32   20   21 1   
    33   20   22 1   
@<TRIPOS>SUBSTRUCTURE
     1 W7O         1 TEMP              0 ****  ****    0 ROOT
