@<TRIPOS>MOLECULE
W7P
   32    33     1     0     0
SMALL
bcc


@<TRIPOS>ATOM
      1 OAB        -0.1570    1.0810   -0.7990 o         1 W7P     -0.793300
      2 CAP         0.7650    0.3190   -0.4000 c         1 W7P      0.919800
      3 OAF         0.8240   -0.2650    0.7050 o         1 W7P     -0.793300
      4 CAT         1.9100    0.0600   -1.4270 cc        1 W7P      0.031400
      5 NAM         1.4620   -0.1150   -2.7340 ns        1 W7P     -0.437100
      6 CAU         2.3400   -0.2670   -3.8090 c         1 W7P      0.788500
      7 OAC         1.9210   -0.3830   -4.9910 o         1 W7P     -0.721500
      8 NAN         3.7120   -0.3130   -3.5310 ns        1 W7P     -0.596500
      9 CAV         4.2260   -0.1490   -2.2250 c         1 W7P      0.711700
     10 OAD         5.4680   -0.1530   -2.1190 o         1 W7P     -0.655500
     11 CAS         3.2500    0.0220   -1.1380 cd        1 W7P     -0.266400
     12 CAL         3.8100    0.1710    0.2310 c3        1 W7P     -0.002200
     13 CAK         4.3820   -1.1370    0.7590 c3        1 W7P     -0.025100
     14 CAQ         5.3050   -0.9380    1.9110 ca        1 W7P     -0.092300
     15 CAG         6.6040   -0.4580    1.6980 ca        1 W7P     -0.158000
     16 CAI         7.4940   -0.3270    2.7620 ca        1 W7P     -0.116500
     17 CAR         7.1080   -0.6720    4.0620 ca        1 W7P     -0.132600
     18 CAO         8.0880   -0.5560    5.2130 c         1 W7P      0.906200
     19 OAE         9.2520   -0.1160    4.9770 o         1 W7P     -0.849800
     20 OAA         7.7080   -0.9090    6.3690 o         1 W7P     -0.849800
     21 CAJ         5.8060   -1.1340    4.2760 ca        1 W7P     -0.116500
     22 CAH         4.9120   -1.2660    3.2140 ca        1 W7P     -0.158000
     23 H2          4.3330   -0.4330   -4.2970 hn        1 W7P      0.324500
     24 H4          3.0050    0.5290    0.9290 hc        1 W7P      0.064700
     25 H5          4.6270    0.9420    0.2020 hc        1 W7P      0.064700
     26 H6          3.5310   -1.8070    1.0560 hc        1 W7P      0.042200
     27 H7          4.9470   -1.6470   -0.0680 hc        1 W7P      0.042200
     28 H8          6.9140   -0.1880    0.6770 ha        1 W7P      0.117000
     29 H9          8.5170    0.0460    2.6020 ha        1 W7P      0.138000
     30 H11         5.5070   -1.3950    5.3030 ha        1 W7P      0.138000
     31 H12         3.8900   -1.6280    3.3970 ha        1 W7P      0.117000
     32 H13         0.4980    0.0590   -2.9270 hn        1 W7P      0.359500
@<TRIPOS>BOND
     1    1    2 1   
     2    2    3 1   
     3    2    4 1   
     4    4    5 1   
     5    4   11 2   
     6    5    6 1   
     7    5   32 1   
     8    6    7 2   
     9    6    8 1   
    10    8    9 1   
    11    8   23 1   
    12    9   10 2   
    13    9   11 1   
    14   11   12 1   
    15   12   13 1   
    16   12   24 1   
    17   12   25 1   
    18   13   14 1   
    19   13   26 1   
    20   13   27 1   
    21   14   15 ar  
    22   14   22 ar  
    23   15   16 ar  
    24   15   28 1   
    25   16   17 ar  
    26   16   29 1   
    27   17   18 1   
    28   17   21 ar  
    29   18   19 1   
    30   18   20 1   
    31   21   22 ar  
    32   21   30 1   
    33   22   31 1   
@<TRIPOS>SUBSTRUCTURE
     1 W7P         1 TEMP              0 ****  ****    0 ROOT
