@<TRIPOS>MOLECULE
W7P
   32    33     1     0     0
SMALL
bcc


@<TRIPOS>ATOM
      1 OAB        -0.1380    1.1150   -0.8240 o         1 W7P     -0.793300
      2 CAP         0.7760    0.3460   -0.4200 c         1 W7P      0.919800
      3 OAF         0.8250   -0.2380    0.6850 o         1 W7P     -0.793300
      4 CAT         1.9240    0.0780   -1.4400 cc        1 W7P      0.031400
      5 NAM         1.4820   -0.0940   -2.7500 n         1 W7P     -0.437100
      6 CAU         2.3650   -0.2540   -3.8200 c         1 W7P      0.788500
      7 OAC         1.9510   -0.3660   -5.0050 o         1 W7P     -0.721500
      8 NAN         3.7350   -0.3090   -3.5350 n         1 W7P     -0.596500
      9 CAV         4.2440   -0.1490   -2.2260 c         1 W7P      0.711700
     10 OAD         5.4850   -0.1620   -2.1130 o         1 W7P     -0.655500
     11 CAS         3.2630    0.0300   -1.1450 cd        1 W7P     -0.266400
     12 CAL         3.8160    0.1750    0.2280 c3        1 W7P     -0.002200
     13 CAK         4.3760   -1.1370    0.7590 c3        1 W7P     -0.025100
     14 CAQ         5.2940   -0.9440    1.9160 ca        1 W7P     -0.092300
     15 CAG         6.5980   -0.4750    1.7090 ca        1 W7P     -0.158000
     16 CAI         7.4830   -0.3500    2.7780 ca        1 W7P     -0.116500
     17 CAR         7.0880   -0.6910    4.0760 ca        1 W7P     -0.132600
     18 CAO         8.0610   -0.5810    5.2330 c         1 W7P      0.906200
     19 OAE         9.2310   -0.1520    5.0020 o         1 W7P     -0.849800
     20 OAA         7.6730   -0.9280    6.3880 o         1 W7P     -0.849800
     21 CAJ         5.7810   -1.1410    4.2840 ca        1 W7P     -0.116500
     22 CAH         4.8920   -1.2670    3.2170 ca        1 W7P     -0.158000
     23 H2          4.3590   -0.4340   -4.2980 hn        1 W7P      0.324500
     24 H4          3.0100    0.5390    0.9210 hc        1 W7P      0.064700
     25 H5          4.6390    0.9400    0.2030 hc        1 W7P      0.064700
     26 H6          4.9420   -1.6510   -0.0650 hc        1 W7P      0.042200
     27 H7          3.5190   -1.8010    1.0510 hc        1 W7P      0.042200
     28 H8          6.9160   -0.2090    0.6900 ha        1 W7P      0.117000
     29 H9          8.5110    0.0130    2.6240 ha        1 W7P      0.138000
     30 H11         5.4730   -1.3980    5.3100 ha        1 W7P      0.138000
     31 H12         3.8650   -1.6200    3.3940 ha        1 W7P      0.117000
     32 H13         0.5200    0.0870   -2.9490 hn        1 W7P      0.359500
@<TRIPOS>BOND
     1    1    2 1   
     2    2    3 1   
     3    2    4 1   
     4    4    5 1   
     5    4   11 2   
     6    5    6 1   
     7    5   32 1   
     8    6    7 2   
     9    6    8 1   
    10    8    9 1   
    11    8   23 1   
    12    9   10 2   
    13    9   11 1   
    14   11   12 1   
    15   12   13 1   
    16   12   24 1   
    17   12   25 1   
    18   13   14 1   
    19   13   26 1   
    20   13   27 1   
    21   14   15 ar  
    22   14   22 ar  
    23   15   16 ar  
    24   15   28 1   
    25   16   17 ar  
    26   16   29 1   
    27   17   18 1   
    28   17   21 ar  
    29   18   19 1   
    30   18   20 1   
    31   21   22 ar  
    32   21   30 1   
    33   22   31 1   
@<TRIPOS>SUBSTRUCTURE
     1 W7P         1 TEMP              0 ****  ****    0 ROOT
