@<TRIPOS>MOLECULE
W7P
   32    33     1     0     0
SMALL
bcc


@<TRIPOS>ATOM
      1 OAB        -0.1380    1.1190   -0.8200 o         1 W7P     -0.793300
      2 CAP         0.7760    0.3490   -0.4160 c         1 W7P      0.919800
      3 OAF         0.8240   -0.2340    0.6890 o         1 W7P     -0.793300
      4 CAT         1.9230    0.0800   -1.4380 cc        1 W7P      0.031400
      5 NAM         1.4790   -0.0910   -2.7470 n         1 W7P     -0.437100
      6 CAU         2.3610   -0.2520   -3.8180 c         1 W7P      0.788500
      7 OAC         1.9460   -0.3650   -5.0020 o         1 W7P     -0.721500
      8 NAN         3.7310   -0.3090   -3.5340 n         1 W7P     -0.596500
      9 CAV         4.2410   -0.1490   -2.2260 c         1 W7P      0.711700
     10 OAD         5.4820   -0.1630   -2.1140 o         1 W7P     -0.655500
     11 CAS         3.2610    0.0310   -1.1430 cd        1 W7P     -0.266400
     12 CAL         3.8160    0.1760    0.2290 c3        1 W7P     -0.002200
     13 CAK         4.3750   -1.1370    0.7600 c3        1 W7P     -0.025100
     14 CAQ         5.2950   -0.9450    1.9160 ca        1 W7P     -0.092300
     15 CAG         6.5980   -0.4740    1.7070 ca        1 W7P     -0.158000
     16 CAI         7.4840   -0.3510    2.7750 ca        1 W7P     -0.116500
     17 CAR         7.0910   -0.6930    4.0730 ca        1 W7P     -0.132600
     18 CAO         8.0670   -0.5840    5.2290 c         1 W7P      0.906200
     19 OAE         9.2350   -0.1540    4.9970 o         1 W7P     -0.849800
     20 OAA         7.6800   -0.9340    6.3830 o         1 W7P     -0.849800
     21 CAJ         5.7850   -1.1450    4.2820 ca        1 W7P     -0.116500
     22 CAH         4.8940   -1.2700    3.2170 ca        1 W7P     -0.158000
     23 H2          4.3540   -0.4340   -4.2980 hn        1 W7P      0.324500
     24 H4          3.0110    0.5400    0.9230 hc        1 W7P      0.064700
     25 H5          4.6400    0.9400    0.2030 hc        1 W7P      0.064700
     26 H6          3.5180   -1.8000    1.0530 hc        1 W7P      0.042200
     27 H7          4.9390   -1.6520   -0.0650 hc        1 W7P      0.042200
     28 H8          6.9140   -0.2070    0.6880 ha        1 W7P      0.117000
     29 H9          8.5120    0.0140    2.6190 ha        1 W7P      0.138000
     30 H11         5.4790   -1.4030    5.3080 ha        1 W7P      0.138000
     31 H12         3.8690   -1.6230    3.3950 ha        1 W7P      0.117000
     32 H13         0.5170    0.0910   -2.9450 hn        1 W7P      0.359500
@<TRIPOS>BOND
     1    1    2 1   
     2    2    3 1   
     3    2    4 1   
     4    4    5 1   
     5    4   11 2   
     6    5    6 1   
     7    5   32 1   
     8    6    7 2   
     9    6    8 1   
    10    8    9 1   
    11    8   23 1   
    12    9   10 2   
    13    9   11 1   
    14   11   12 1   
    15   12   13 1   
    16   12   24 1   
    17   12   25 1   
    18   13   14 1   
    19   13   26 1   
    20   13   27 1   
    21   14   15 ar  
    22   14   22 ar  
    23   15   16 ar  
    24   15   28 1   
    25   16   17 ar  
    26   16   29 1   
    27   17   18 1   
    28   17   21 ar  
    29   18   19 1   
    30   18   20 1   
    31   21   22 ar  
    32   21   30 1   
    33   22   31 1   
@<TRIPOS>SUBSTRUCTURE
     1 W7P         1 TEMP              0 ****  ****    0 ROOT
