@<TRIPOS>MOLECULE
W7Q
   51    53     1     0     0
SMALL
bcc


@<TRIPOS>ATOM
      1 OAD         0.2970    0.5230    0.5900 o         1 W7Q     -0.794800
      2 CAS         1.4150   -0.0360    0.4500 c         1 W7Q      0.921800
      3 OAH         2.0580   -0.6510    1.3340 o         1 W7Q     -0.794800
      4 CAX         2.0340    0.0300   -0.9800 cc        1 W7Q      0.044400
      5 NAP         1.1200   -0.0540   -2.0190 n         1 W7Q     -0.436100
      6 CAZ         1.5070    0.0570   -3.3610 c         1 W7Q      0.791500
      7 OAF         0.6630    0.0140   -4.2910 o         1 W7Q     -0.695500
      8 NAQ         2.8740    0.1950   -3.6410 n         1 W7Q     -0.592500
      9 CBA         3.8500    0.2740   -2.6260 c         1 W7Q      0.716700
     10 OAG         5.0340    0.4250   -2.9900 o         1 W7Q     -0.667500
     11 CAY         3.3750    0.1770   -1.2410 cd        1 W7Q     -0.292400
     12 CAN         4.4000    0.2540   -0.1720 c3        1 W7Q      0.008800
     13 CAL         4.9630   -1.1220    0.1600 c3        1 W7Q     -0.037100
     14 CAU         5.7290   -1.1030    1.4370 ca        1 W7Q     -0.068300
     15 CAK         5.0140   -0.9600    2.6460 ca        1 W7Q     -0.085000
     16 CAI         7.1160   -1.2360    1.4550 ca        1 W7Q     -0.126000
     17 CAJ         7.8400   -1.2350    2.6550 ca        1 W7Q     -0.136000
     18 CAW         7.1320   -1.0990    3.8440 ca        1 W7Q      0.007600
     19 CAV         5.7110   -0.9540    3.8350 ca        1 W7Q     -0.128300
     20 CAM         5.2060   -0.8200    5.2340 c3        1 W7Q     -0.038100
     21 CAO         6.4910   -0.8970    6.0990 c3        1 W7Q      0.081000
     22 NBB         7.6210   -1.1280    5.1850 n         1 W7Q     -0.319000
     23 CAT         8.9010   -0.6980    5.5080 c         1 W7Q      0.745100
     24 OAE         9.9040   -0.6850    4.7760 o         1 W7Q     -0.589000
     25 OAR         9.0180   -0.3430    6.8380 os        1 W7Q     -0.452900
     26 CBC        10.3290   -0.0710    7.3880 c3        1 W7Q      0.185800
     27 CAB        10.0260    0.2120    8.8600 c3        1 W7Q     -0.112767
     28 CAC        11.2350   -1.2850    7.2640 c3        1 W7Q     -0.112767
     29 CAA        10.9450    1.1560    6.7350 c3        1 W7Q     -0.112767
     30 H2          3.1430    0.2610   -4.5960 hn        1 W7Q      0.331500
     31 H4          5.2330    0.9310   -0.5010 hc        1 W7Q      0.058200
     32 H5          3.9320    0.6870    0.7550 hc        1 W7Q      0.058200
     33 H6          4.1000   -1.8360    0.2720 hc        1 W7Q      0.058700
     34 H7          5.6090   -1.4760   -0.6840 hc        1 W7Q      0.058700
     35 H8          3.9120   -0.8520    2.6090 ha        1 W7Q      0.200000
     36 H9          7.6650   -1.3400    0.5060 ha        1 W7Q      0.131000
     37 H10         8.9360   -1.3290    2.6560 ha        1 W7Q      0.153000
     38 H11         4.5050   -1.6500    5.4950 hc        1 W7Q      0.063700
     39 H12         4.6770    0.1520    5.3880 hc        1 W7Q      0.063700
     40 H13         6.4490   -1.7610    6.8140 h1        1 W7Q      0.052700
     41 H14         6.6370    0.0480    6.6870 h1        1 W7Q      0.052700
     42 H15         9.5510   -0.6790    9.3330 hc        1 W7Q      0.048922
     43 H16         9.3280    1.0780    8.9480 hc        1 W7Q      0.048922
     44 H17        10.9780    0.4490    9.3890 hc        1 W7Q      0.048922
     45 H18        10.7150   -2.1920    7.6540 hc        1 W7Q      0.048922
     46 H19        12.1660   -1.1150    7.8560 hc        1 W7Q      0.048922
     47 H20        11.5100   -1.4590    6.1960 hc        1 W7Q      0.048922
     48 H21        11.2170    0.9380    5.6730 hc        1 W7Q      0.048922
     49 H22        11.8640    1.4520    7.2930 hc        1 W7Q      0.048922
     50 H23        10.2190    2.0020    6.7520 hc        1 W7Q      0.048922
     51 H24         0.1450   -0.0370   -1.7990 hn        1 W7Q      0.366500
@<TRIPOS>BOND
     1    1    2 1   
     2    2    3 1   
     3    2    4 1   
     4    4    5 1   
     5    4   11 2   
     6    5    6 1   
     7    5   51 1   
     8    6    7 2   
     9    6    8 1   
    10    8    9 1   
    11    8   30 1   
    12    9   10 2   
    13    9   11 1   
    14   11   12 1   
    15   12   13 1   
    16   12   31 1   
    17   12   32 1   
    18   13   14 1   
    19   13   33 1   
    20   13   34 1   
    21   14   15 ar  
    22   14   16 ar  
    23   15   19 ar  
    24   15   35 1   
    25   16   17 ar  
    26   16   36 1   
    27   17   18 ar  
    28   17   37 1   
    29   18   19 ar  
    30   18   22 1   
    31   19   20 1   
    32   20   21 1   
    33   20   38 1   
    34   20   39 1   
    35   21   22 1   
    36   21   40 1   
    37   21   41 1   
    38   22   23 1   
    39   23   24 2   
    40   23   25 1   
    41   25   26 1   
    42   26   27 1   
    43   26   28 1   
    44   26   29 1   
    45   27   42 1   
    46   27   43 1   
    47   27   44 1   
    48   28   45 1   
    49   28   46 1   
    50   28   47 1   
    51   29   48 1   
    52   29   49 1   
    53   29   50 1   
@<TRIPOS>SUBSTRUCTURE
     1 W7Q         1 TEMP              0 ****  ****    0 ROOT
