@<TRIPOS>MOLECULE
W7Q
   51    53     1     0     0
SMALL
bcc


@<TRIPOS>ATOM
      1 OAD         0.3020    0.5370    0.5870 o         1 W7Q     -0.794800
      2 CAS         1.4170   -0.0280    0.4490 c         1 W7Q      0.921800
      3 OAH         2.0580   -0.6420    1.3350 o         1 W7Q     -0.794800
      4 CAX         2.0370    0.0300   -0.9810 cc        1 W7Q      0.044400
      5 NAP         1.1220   -0.0540   -2.0200 n         1 W7Q     -0.436100
      6 CAZ         1.5090    0.0490   -3.3620 c         1 W7Q      0.791500
      7 OAF         0.6650    0.0070   -4.2920 o         1 W7Q     -0.695500
      8 NAQ         2.8760    0.1810   -3.6430 n         1 W7Q     -0.592500
      9 CBA         3.8530    0.2600   -2.6290 c         1 W7Q      0.716700
     10 OAG         5.0380    0.4040   -2.9930 o         1 W7Q     -0.667500
     11 CAY         3.3770    0.1700   -1.2440 cd        1 W7Q     -0.292400
     12 CAN         4.4030    0.2480   -0.1750 c3        1 W7Q      0.008800
     13 CAL         4.9610   -1.1290    0.1630 c3        1 W7Q     -0.037100
     14 CAU         5.7260   -1.1080    1.4400 ca        1 W7Q     -0.068300
     15 CAK         5.0120   -0.9580    2.6470 ca        1 W7Q     -0.085000
     16 CAI         7.1140   -1.2450    1.4580 ca        1 W7Q     -0.126000
     17 CAJ         7.8370   -1.2430    2.6590 ca        1 W7Q     -0.136000
     18 CAW         7.1300   -1.1000    3.8470 ca        1 W7Q      0.007600
     19 CAV         5.7090   -0.9500    3.8370 ca        1 W7Q     -0.128300
     20 CAM         5.2040   -0.8090    5.2350 c3        1 W7Q     -0.038100
     21 CAO         6.4890   -0.8870    6.1010 c3        1 W7Q      0.081000
     22 NBB         7.6180   -1.1250    5.1880 n         1 W7Q     -0.319000
     23 CAT         8.8990   -0.6980    5.5100 c         1 W7Q      0.745100
     24 OAE         9.9020   -0.6910    4.7780 o         1 W7Q     -0.589000
     25 OAR         9.0170   -0.3370    6.8380 os        1 W7Q     -0.452900
     26 CBC        10.3290   -0.0670    7.3870 c3        1 W7Q      0.185800
     27 CAB        10.0260    0.2260    8.8570 c3        1 W7Q     -0.112767
     28 CAC        11.2310   -1.2840    7.2700 c3        1 W7Q     -0.112767
     29 CAA        10.9490    1.1550    6.7280 c3        1 W7Q     -0.112767
     30 H2          3.1450    0.2420   -4.5980 hn        1 W7Q      0.331500
     31 H4          5.2390    0.9200   -0.5060 hc        1 W7Q      0.058200
     32 H5          3.9380    0.6860    0.7510 hc        1 W7Q      0.058200
     33 H6          5.6060   -1.4890   -0.6800 hc        1 W7Q      0.058700
     34 H7          4.0960   -1.8390    0.2770 hc        1 W7Q      0.058700
     35 H8          3.9100   -0.8460    2.6110 ha        1 W7Q      0.200000
     36 H9          7.6620   -1.3550    0.5100 ha        1 W7Q      0.131000
     37 H10         8.9330   -1.3400    2.6600 ha        1 W7Q      0.153000
     38 H11         4.6780    0.1650    5.3860 hc        1 W7Q      0.063700
     39 H12         4.5000   -1.6350    5.5000 hc        1 W7Q      0.063700
     40 H13         6.6380    0.0600    6.6850 h1        1 W7Q      0.052700
     41 H14         6.4440   -1.7480    6.8190 h1        1 W7Q      0.052700
     42 H15        10.9790    0.4610    9.3860 hc        1 W7Q      0.048922
     43 H16         9.5470   -0.6620    9.3350 hc        1 W7Q      0.048922
     44 H17         9.3320    1.0950    8.9410 hc        1 W7Q      0.048922
     45 H18        12.1620   -1.1140    7.8610 hc        1 W7Q      0.048922
     46 H19        10.7080   -2.1870    7.6650 hc        1 W7Q      0.048922
     47 H20        11.5050   -1.4660    6.2020 hc        1 W7Q      0.048922
     48 H21        11.2220    0.9300    5.6680 hc        1 W7Q      0.048922
     49 H22        10.2250    2.0040    6.7390 hc        1 W7Q      0.048922
     50 H23        11.8680    1.4510    7.2860 hc        1 W7Q      0.048922
     51 H24         0.1470   -0.0320   -1.8000 hn        1 W7Q      0.366500
@<TRIPOS>BOND
     1    1    2 1   
     2    2    3 1   
     3    2    4 1   
     4    4    5 1   
     5    4   11 2   
     6    5    6 1   
     7    5   51 1   
     8    6    7 2   
     9    6    8 1   
    10    8    9 1   
    11    8   30 1   
    12    9   10 2   
    13    9   11 1   
    14   11   12 1   
    15   12   13 1   
    16   12   31 1   
    17   12   32 1   
    18   13   14 1   
    19   13   33 1   
    20   13   34 1   
    21   14   15 ar  
    22   14   16 ar  
    23   15   19 ar  
    24   15   35 1   
    25   16   17 ar  
    26   16   36 1   
    27   17   18 ar  
    28   17   37 1   
    29   18   19 ar  
    30   18   22 1   
    31   19   20 1   
    32   20   21 1   
    33   20   38 1   
    34   20   39 1   
    35   21   22 1   
    36   21   40 1   
    37   21   41 1   
    38   22   23 1   
    39   23   24 2   
    40   23   25 1   
    41   25   26 1   
    42   26   27 1   
    43   26   28 1   
    44   26   29 1   
    45   27   42 1   
    46   27   43 1   
    47   27   44 1   
    48   28   45 1   
    49   28   46 1   
    50   28   47 1   
    51   29   48 1   
    52   29   49 1   
    53   29   50 1   
@<TRIPOS>SUBSTRUCTURE
     1 W7Q         1 TEMP              0 ****  ****    0 ROOT
