@<TRIPOS>MOLECULE
W7Q
   51    53     1     0     0
SMALL
bcc


@<TRIPOS>ATOM
      1 OAD         0.3000    0.5330    0.5890 o         1 W7Q     -0.794800
      2 CAS         1.4160   -0.0300    0.4490 c         1 W7Q      0.921800
      3 OAH         2.0580   -0.6450    1.3340 o         1 W7Q     -0.794800
      4 CAX         2.0360    0.0310   -0.9800 cc        1 W7Q      0.044400
      5 NAP         1.1210   -0.0520   -2.0200 ns        1 W7Q     -0.436100
      6 CAZ         1.5080    0.0540   -3.3610 c         1 W7Q      0.791500
      7 OAF         0.6640    0.0120   -4.2920 o         1 W7Q     -0.695500
      8 NAQ         2.8750    0.1880   -3.6420 ns        1 W7Q     -0.592500
      9 CBA         3.8520    0.2670   -2.6270 c         1 W7Q      0.716700
     10 OAG         5.0360    0.4130   -2.9920 o         1 W7Q     -0.667500
     11 CAY         3.3760    0.1740   -1.2420 cd        1 W7Q     -0.292400
     12 CAN         4.4020    0.2510   -0.1730 c3        1 W7Q      0.008800
     13 CAL         4.9620   -1.1250    0.1620 c3        1 W7Q     -0.037100
     14 CAU         5.7280   -1.1060    1.4380 ca        1 W7Q     -0.068300
     15 CAK         5.0130   -0.9590    2.6460 ca        1 W7Q     -0.085000
     16 CAI         7.1150   -1.2410    1.4570 ca        1 W7Q     -0.126000
     17 CAJ         7.8390   -1.2400    2.6570 ca        1 W7Q     -0.136000
     18 CAW         7.1310   -1.1000    3.8460 ca        1 W7Q      0.007600
     19 CAV         5.7100   -0.9520    3.8360 ca        1 W7Q     -0.128300
     20 CAM         5.2050   -0.8150    5.2340 c3        1 W7Q     -0.038100
     21 CAO         6.4900   -0.8920    6.1000 c3        1 W7Q      0.081000
     22 NBB         7.6190   -1.1270    5.1860 n         1 W7Q     -0.319000
     23 CAT         8.9000   -0.6990    5.5100 c         1 W7Q      0.745100
     24 OAE         9.9030   -0.6890    4.7770 o         1 W7Q     -0.589000
     25 OAR         9.0170   -0.3400    6.8380 os        1 W7Q     -0.452900
     26 CBC        10.3290   -0.0700    7.3870 c3        1 W7Q      0.185800
     27 CAB        10.0260    0.2200    8.8580 c3        1 W7Q     -0.112767
     28 CAC        11.2320   -1.2860    7.2680 c3        1 W7Q     -0.112767
     29 CAA        10.9480    1.1540    6.7310 c3        1 W7Q     -0.112767
     30 H2          3.1440    0.2520   -4.5970 hn        1 W7Q      0.331500
     31 H4          3.9360    0.6870    0.7530 hc        1 W7Q      0.058200
     32 H5          5.2370    0.9250   -0.5040 hc        1 W7Q      0.058200
     33 H6          4.0980   -1.8370    0.2740 hc        1 W7Q      0.058700
     34 H7          5.6080   -1.4830   -0.6820 hc        1 W7Q      0.058700
     35 H8          3.9110   -0.8490    2.6100 ha        1 W7Q      0.200000
     36 H9          7.6630   -1.3480    0.5080 ha        1 W7Q      0.131000
     37 H10         8.9340   -1.3350    2.6580 ha        1 W7Q      0.153000
     38 H11         4.6780    0.1590    5.3870 hc        1 W7Q      0.063700
     39 H12         4.5020   -1.6420    5.4980 hc        1 W7Q      0.063700
     40 H13         6.4460   -1.7540    6.8160 h1        1 W7Q      0.052700
     41 H14         6.6370    0.0540    6.6860 h1        1 W7Q      0.052700
     42 H15        10.9780    0.4550    9.3870 hc        1 W7Q      0.048922
     43 H16         9.3310    1.0880    8.9430 hc        1 W7Q      0.048922
     44 H17         9.5480   -0.6690    9.3340 hc        1 W7Q      0.048922
     45 H18        12.1630   -1.1160    7.8590 hc        1 W7Q      0.048922
     46 H19        10.7100   -2.1900    7.6610 hc        1 W7Q      0.048922
     47 H20        11.5060   -1.4650    6.2000 hc        1 W7Q      0.048922
     48 H21        11.8670    1.4500    7.2890 hc        1 W7Q      0.048922
     49 H22        11.2200    0.9310    5.6700 hc        1 W7Q      0.048922
     50 H23        10.2230    2.0020    6.7440 hc        1 W7Q      0.048922
     51 H24         0.1460   -0.0320   -1.7990 hn        1 W7Q      0.366500
@<TRIPOS>BOND
     1    1    2 1   
     2    2    3 1   
     3    2    4 1   
     4    4    5 1   
     5    4   11 2   
     6    5    6 1   
     7    5   51 1   
     8    6    7 2   
     9    6    8 1   
    10    8    9 1   
    11    8   30 1   
    12    9   10 2   
    13    9   11 1   
    14   11   12 1   
    15   12   13 1   
    16   12   31 1   
    17   12   32 1   
    18   13   14 1   
    19   13   33 1   
    20   13   34 1   
    21   14   15 ar  
    22   14   16 ar  
    23   15   19 ar  
    24   15   35 1   
    25   16   17 ar  
    26   16   36 1   
    27   17   18 ar  
    28   17   37 1   
    29   18   19 ar  
    30   18   22 1   
    31   19   20 1   
    32   20   21 1   
    33   20   38 1   
    34   20   39 1   
    35   21   22 1   
    36   21   40 1   
    37   21   41 1   
    38   22   23 1   
    39   23   24 2   
    40   23   25 1   
    41   25   26 1   
    42   26   27 1   
    43   26   28 1   
    44   26   29 1   
    45   27   42 1   
    46   27   43 1   
    47   27   44 1   
    48   28   45 1   
    49   28   46 1   
    50   28   47 1   
    51   29   48 1   
    52   29   49 1   
    53   29   50 1   
@<TRIPOS>SUBSTRUCTURE
     1 W7Q         1 TEMP              0 ****  ****    0 ROOT
