@<TRIPOS>MOLECULE
W83
   44    46     1     0     0
SMALL
bcc


@<TRIPOS>ATOM
      1 OAB         0.1060    0.1360    0.2960 o         1 W83     -0.793800
      2 CAS         1.2900   -0.2800    0.2210 c         1 W83      0.921800
      3 OAE         1.9460   -0.8370    1.1330 o         1 W83     -0.793800
      4 CAV         1.9880   -0.0990   -1.1620 cc        1 W83      0.044400
      5 NAO         1.1570   -0.2400   -2.2630 n         1 W83     -0.436100
      6 CAX         1.6150   -0.0440   -3.5720 c         1 W83      0.791500
      7 OAC         0.8430   -0.1410   -4.5580 o         1 W83     -0.695500
      8 NAP         2.9750    0.2450   -3.7550 n         1 W83     -0.592500
      9 CAY         3.8700    0.3890   -2.6750 c         1 W83      0.716700
     10 OAD         5.0530    0.6730   -2.9530 o         1 W83     -0.667500
     11 CAW         3.3200    0.1950   -1.3290 cd        1 W83     -0.293400
     12 CAM         4.2600    0.3410   -0.1910 c3        1 W83      0.009800
     13 CAL         4.9090   -0.9900    0.1670 c3        1 W83     -0.043100
     14 CAT         5.6200   -0.9140    1.4720 ca        1 W83     -0.039300
     15 CAJ         6.9940   -0.9270    1.5580 ca        1 W83     -0.146000
     16 CBA         7.6440   -0.8680    2.8210 ca        1 W83     -0.019000
     17 CAK         9.0600   -0.8700    2.9210 ca        1 W83     -0.137000
     18 CAF         4.8370   -0.8420    2.6610 ca        1 W83     -0.109000
     19 CAH         5.4430   -0.7850    3.8890 ca        1 W83     -0.137000
     20 CAZ         6.8610   -0.7970    4.0020 ca        1 W83     -0.058000
     21 CAI         7.5110   -0.7410    5.2640 ca        1 W83     -0.096000
     22 CAG         8.8800   -0.7520    5.3560 ca        1 W83     -0.181000
     23 CAU         9.6540   -0.8160    4.1670 ca        1 W83      0.086100
     24 OAR        11.0440   -0.8910    4.2020 os        1 W83     -0.369900
     25 CAN        11.6860   -0.0880    5.1730 c3        1 W83      0.320200
     26 OAQ        11.7800   -0.8580    6.3510 os        1 W83     -0.448600
     27 CAA        12.5920   -2.0160    6.2300 c3        1 W83      0.120700
     28 H2          0.1740   -0.3350   -2.1090 hn        1 W83      0.366500
     29 H3          3.2960    0.3720   -4.6880 hn        1 W83      0.331500
     30 H4          3.6970    0.7190    0.7070 hc        1 W83      0.058200
     31 H5          5.0550    1.0870   -0.4550 hc        1 W83      0.058200
     32 H6          4.0960   -1.7650    0.2460 hc        1 W83      0.061700
     33 H7          5.6140   -1.2960   -0.6500 hc        1 W83      0.061700
     34 H8          7.6110   -0.9810    0.6490 ha        1 W83      0.131000
     35 H9          9.6720   -0.9240    2.0100 ha        1 W83      0.141000
     36 H10         3.7330   -0.8330    2.5520 ha        1 W83      0.196000
     37 H11         4.8420   -0.7300    4.8090 ha        1 W83      0.126000
     38 H12         6.8920   -0.6920    6.1730 ha        1 W83      0.127000
     39 H13         9.3950   -0.7230    6.3280 ha        1 W83      0.145000
     40 H14        11.1050    0.8270    5.4590 h2        1 W83      0.065700
     41 H15        12.6950    0.1420    4.7370 h2        1 W83      0.065700
     42 H16        12.5000   -2.5250    7.2210 h1        1 W83      0.035700
     43 H17        13.6530   -1.7220    6.0340 h1        1 W83      0.035700
     44 H18        12.2180   -2.6750    5.4090 h1        1 W83      0.035700
@<TRIPOS>BOND
     1    1    2 1   
     2    2    3 1   
     3    2    4 1   
     4    4    5 1   
     5    4   11 2   
     6    5    6 1   
     7    5   28 1   
     8    6    7 2   
     9    6    8 1   
    10    8    9 1   
    11    8   29 1   
    12    9   10 2   
    13    9   11 1   
    14   11   12 1   
    15   12   13 1   
    16   12   30 1   
    17   12   31 1   
    18   13   14 1   
    19   13   32 1   
    20   13   33 1   
    21   14   15 ar  
    22   14   18 ar  
    23   15   16 ar  
    24   15   34 1   
    25   16   17 ar  
    26   16   20 ar  
    27   17   23 ar  
    28   17   35 1   
    29   18   19 ar  
    30   18   36 1   
    31   19   20 ar  
    32   19   37 1   
    33   20   21 ar  
    34   21   22 ar  
    35   21   38 1   
    36   22   23 ar  
    37   22   39 1   
    38   23   24 1   
    39   24   25 1   
    40   25   26 1   
    41   25   40 1   
    42   25   41 1   
    43   26   27 1   
    44   27   42 1   
    45   27   43 1   
    46   27   44 1   
@<TRIPOS>SUBSTRUCTURE
     1 W83         1 TEMP              0 ****  ****    0 ROOT
