@<TRIPOS>MOLECULE
W83
   44    46     1     0     0
SMALL
bcc


@<TRIPOS>ATOM
      1 OAB         0.1070    0.1510    0.3030 o         1 W83     -0.793800
      2 CAS         1.2890   -0.2690    0.2260 c         1 W83      0.921800
      3 OAE         1.9450   -0.8290    1.1370 o         1 W83     -0.793800
      4 CAV         1.9860   -0.0910   -1.1580 cc        1 W83      0.044400
      5 NAO         1.1530   -0.2300   -2.2580 ns        1 W83     -0.436100
      6 CAX         1.6110   -0.0360   -3.5670 c         1 W83      0.791500
      7 OAC         0.8370   -0.1310   -4.5520 o         1 W83     -0.695500
      8 NAP         2.9710    0.2490   -3.7520 ns        1 W83     -0.592500
      9 CAY         3.8680    0.3910   -2.6730 c         1 W83      0.716700
     10 OAD         5.0510    0.6720   -2.9530 o         1 W83     -0.667500
     11 CAW         3.3190    0.2000   -1.3260 cd        1 W83     -0.293400
     12 CAM         4.2610    0.3430   -0.1890 c3        1 W83      0.009800
     13 CAL         4.9070   -0.9890    0.1680 c3        1 W83     -0.043100
     14 CAT         5.6180   -0.9140    1.4730 ca        1 W83     -0.039300
     15 CAJ         6.9920   -0.9290    1.5570 ca        1 W83     -0.146000
     16 CBA         7.6440   -0.8710    2.8190 ca        1 W83     -0.019000
     17 CAK         9.0610   -0.8750    2.9190 ca        1 W83     -0.137000
     18 CAF         4.8370   -0.8400    2.6630 ca        1 W83     -0.109000
     19 CAH         5.4440   -0.7850    3.8900 ca        1 W83     -0.137000
     20 CAZ         6.8620   -0.7990    4.0020 ca        1 W83     -0.058000
     21 CAI         7.5130   -0.7440    5.2630 ca        1 W83     -0.096000
     22 CAG         8.8830   -0.7560    5.3540 ca        1 W83     -0.181000
     23 CAU         9.6550   -0.8220    4.1640 ca        1 W83      0.086100
     24 OAR        11.0460   -0.8980    4.1970 os        1 W83     -0.369900
     25 CAN        11.6890   -0.0960    5.1680 c3        1 W83      0.320200
     26 OAQ        11.7840   -0.8650    6.3460 os        1 W83     -0.448600
     27 CAA        12.5950   -2.0240    6.2240 c3        1 W83      0.120700
     28 H2          0.1700   -0.3220   -2.1020 hn        1 W83      0.366500
     29 H3          3.2920    0.3750   -4.6850 hn        1 W83      0.331500
     30 H4          3.6990    0.7240    0.7090 hc        1 W83      0.058200
     31 H5          5.0570    1.0880   -0.4550 hc        1 W83      0.058200
     32 H6          4.0920   -1.7620    0.2490 hc        1 W83      0.061700
     33 H7          5.6090   -1.2960   -0.6490 hc        1 W83      0.061700
     34 H8          7.6090   -0.9840    0.6480 ha        1 W83      0.131000
     35 H9          9.6710   -0.9300    2.0070 ha        1 W83      0.141000
     36 H10         3.7330   -0.8300    2.5550 ha        1 W83      0.196000
     37 H11         4.8440   -0.7280    4.8100 ha        1 W83      0.126000
     38 H12         6.8960   -0.6930    6.1720 ha        1 W83      0.127000
     39 H13         9.3990   -0.7280    6.3250 ha        1 W83      0.145000
     40 H14        12.6980    0.1340    4.7300 h2        1 W83      0.065700
     41 H15        11.1100    0.8200    5.4540 h2        1 W83      0.065700
     42 H16        12.2180   -2.6830    5.4050 h1        1 W83      0.035700
     43 H17        13.6560   -1.7310    6.0260 h1        1 W83      0.035700
     44 H18        12.5040   -2.5320    7.2160 h1        1 W83      0.035700
@<TRIPOS>BOND
     1    1    2 1   
     2    2    3 1   
     3    2    4 1   
     4    4    5 1   
     5    4   11 2   
     6    5    6 1   
     7    5   28 1   
     8    6    7 2   
     9    6    8 1   
    10    8    9 1   
    11    8   29 1   
    12    9   10 2   
    13    9   11 1   
    14   11   12 1   
    15   12   13 1   
    16   12   30 1   
    17   12   31 1   
    18   13   14 1   
    19   13   32 1   
    20   13   33 1   
    21   14   15 ar  
    22   14   18 ar  
    23   15   16 ar  
    24   15   34 1   
    25   16   17 ar  
    26   16   20 ar  
    27   17   23 ar  
    28   17   35 1   
    29   18   19 ar  
    30   18   36 1   
    31   19   20 ar  
    32   19   37 1   
    33   20   21 ar  
    34   21   22 ar  
    35   21   38 1   
    36   22   23 ar  
    37   22   39 1   
    38   23   24 1   
    39   24   25 1   
    40   25   26 1   
    41   25   40 1   
    42   25   41 1   
    43   26   27 1   
    44   27   42 1   
    45   27   43 1   
    46   27   44 1   
@<TRIPOS>SUBSTRUCTURE
     1 W83         1 TEMP              0 ****  ****    0 ROOT
