@<TRIPOS>MOLECULE
W83
   44    46     1     0     0
SMALL
bcc


@<TRIPOS>ATOM
      1 OAB         0.1060    0.1360    0.2980 o         1 W83     -0.793800
      2 CAS         1.2900   -0.2810    0.2220 c         1 W83      0.921800
      3 OAE         1.9460   -0.8390    1.1330 o         1 W83     -0.793800
      4 CAV         1.9880   -0.0990   -1.1610 cc        1 W83      0.044400
      5 NAO         1.1560   -0.2390   -2.2620 n         1 W83     -0.436100
      6 CAX         1.6140   -0.0430   -3.5710 c         1 W83      0.791500
      7 OAC         0.8410   -0.1390   -4.5560 o         1 W83     -0.695500
      8 NAP         2.9740    0.2460   -3.7540 n         1 W83     -0.592500
      9 CAY         3.8690    0.3900   -2.6740 c         1 W83      0.716700
     10 OAD         5.0520    0.6740   -2.9530 o         1 W83     -0.667500
     11 CAW         3.3190    0.1950   -1.3280 cd        1 W83     -0.293400
     12 CAM         4.2600    0.3400   -0.1900 c3        1 W83      0.009800
     13 CAL         4.9090   -0.9910    0.1670 c3        1 W83     -0.043100
     14 CAT         5.6190   -0.9150    1.4720 ca        1 W83     -0.039300
     15 CAJ         6.9940   -0.9270    1.5570 ca        1 W83     -0.146000
     16 CBA         7.6440   -0.8690    2.8200 ca        1 W83     -0.019000
     17 CAK         9.0610   -0.8690    2.9200 ca        1 W83     -0.137000
     18 CAF         4.8370   -0.8440    2.6610 ca        1 W83     -0.109000
     19 CAH         5.4430   -0.7880    3.8890 ca        1 W83     -0.137000
     20 CAZ         6.8610   -0.7990    4.0020 ca        1 W83     -0.058000
     21 CAI         7.5110   -0.7430    5.2640 ca        1 W83     -0.096000
     22 CAG         8.8810   -0.7530    5.3560 ca        1 W83     -0.181000
     23 CAU         9.6540   -0.8160    4.1670 ca        1 W83      0.086100
     24 OAR        11.0440   -0.8890    4.2010 os        1 W83     -0.369900
     25 CAN        11.6850   -0.0860    5.1720 c3        1 W83      0.320200
     26 OAQ        11.7820   -0.8560    6.3500 os        1 W83     -0.448600
     27 CAA        12.5940   -2.0130    6.2280 c3        1 W83      0.120700
     28 H2          0.1730   -0.3340   -2.1070 hn        1 W83      0.366500
     29 H3          3.2950    0.3740   -4.6860 hn        1 W83      0.331500
     30 H4          3.6960    0.7180    0.7080 hc        1 W83      0.058200
     31 H5          5.0550    1.0870   -0.4540 hc        1 W83      0.058200
     32 H6          4.0960   -1.7660    0.2460 hc        1 W83      0.061700
     33 H7          5.6130   -1.2960   -0.6500 hc        1 W83      0.061700
     34 H8          7.6110   -0.9800    0.6480 ha        1 W83      0.131000
     35 H9          9.6720   -0.9230    2.0090 ha        1 W83      0.141000
     36 H10         3.7330   -0.8360    2.5530 ha        1 W83      0.196000
     37 H11         4.8430   -0.7340    4.8090 ha        1 W83      0.126000
     38 H12         6.8930   -0.6950    6.1720 ha        1 W83      0.127000
     39 H13         9.3960   -0.7240    6.3270 ha        1 W83      0.145000
     40 H14        12.6950    0.1460    4.7360 h2        1 W83      0.065700
     41 H15        11.1040    0.8280    5.4580 h2        1 W83      0.065700
     42 H16        12.2200   -2.6720    5.4070 h1        1 W83      0.035700
     43 H17        13.6550   -1.7190    6.0310 h1        1 W83      0.035700
     44 H18        12.5040   -2.5230    7.2190 h1        1 W83      0.035700
@<TRIPOS>BOND
     1    1    2 1   
     2    2    3 1   
     3    2    4 1   
     4    4    5 1   
     5    4   11 2   
     6    5    6 1   
     7    5   28 1   
     8    6    7 2   
     9    6    8 1   
    10    8    9 1   
    11    8   29 1   
    12    9   10 2   
    13    9   11 1   
    14   11   12 1   
    15   12   13 1   
    16   12   30 1   
    17   12   31 1   
    18   13   14 1   
    19   13   32 1   
    20   13   33 1   
    21   14   15 ar  
    22   14   18 ar  
    23   15   16 ar  
    24   15   34 1   
    25   16   17 ar  
    26   16   20 ar  
    27   17   23 ar  
    28   17   35 1   
    29   18   19 ar  
    30   18   36 1   
    31   19   20 ar  
    32   19   37 1   
    33   20   21 ar  
    34   21   22 ar  
    35   21   38 1   
    36   22   23 ar  
    37   22   39 1   
    38   23   24 1   
    39   24   25 1   
    40   25   26 1   
    41   25   40 1   
    42   25   41 1   
    43   26   27 1   
    44   27   42 1   
    45   27   43 1   
    46   27   44 1   
@<TRIPOS>SUBSTRUCTURE
     1 W83         1 TEMP              0 ****  ****    0 ROOT
