@<TRIPOS>MOLECULE
W84
   54    56     1     0     0
SMALL
bcc


@<TRIPOS>ATOM
      1 O1          0.1420    0.6900    0.0220 os        1 W84     -0.122100
      2 N2          1.4400    0.7720   -0.1910 nc        1 W84     -0.362300
      3 C3          2.0980    0.4330    0.9370 cd        1 W84      0.319600
      4 C31         3.5580    0.3920    1.1300 c3        1 W84     -0.132400
      5 C4          1.1150    0.1030    1.9730 cd        1 W84     -0.364600
      6 C5         -0.1070    0.2780    1.3570 cc        1 W84      0.265000
      7 C1C        -1.5120    0.1260    1.7560 c3        1 W84     -0.117700
      8 C2C        -2.2060    1.4690    1.8970 c3        1 W84     -0.078400
      9 C3C        -3.6620    1.2840    2.2670 c3        1 W84     -0.079400
     10 C4C        -4.3580    2.6190    2.4220 c3        1 W84     -0.078400
     11 C5C        -5.8150    2.4370    2.7880 c3        1 W84     -0.078400
     12 C6C        -6.5040    3.7740    2.9490 c3        1 W84     -0.086400
     13 C7C        -7.9650    3.5710    3.3140 c3        1 W84      0.128400
     14 O1B        -8.5160    4.8880    3.4530 os        1 W84     -0.327900
     15 C1B        -9.8510    4.9520    3.7870 ca        1 W84      0.153100
     16 C2B       -10.3620    6.2610    3.9160 ca        1 W84     -0.198000
     17 C3B       -11.6950    6.4400    4.2500 ca        1 W84     -0.049500
     18 C4B       -12.5320    5.3300    4.4600 ca        1 W84     -0.168900
     19 C5B       -12.0160    4.0350    4.3300 ca        1 W84     -0.049500
     20 C6B       -10.6770    3.8410    3.9940 ca        1 W84     -0.198000
     21 C2A       -13.9340    5.5280    4.8130 ce        1 W84      0.642200
     22 N3A       -14.8720    4.6440    5.0370 n2        1 W84     -0.634900
     23 C4A       -16.1200    5.3570    5.3390 c3        1 W84      0.089500
     24 CM1       -16.7310    5.0040    6.6830 c3        1 W84     -0.086100
     25 C5A       -15.7450    6.8690    5.2630 c3        1 W84      0.089400
     26 O1A       -14.3410    6.8780    4.9190 os        1 W84     -0.458400
     27 H311        4.1120    0.6800    0.2020 hc        1 W84      0.057367
     28 H312        3.8460    1.0950    1.9510 hc        1 W84      0.057367
     29 H313        3.8660   -0.6440    1.4220 hc        1 W84      0.057367
     30 H4          1.3370   -0.2060    2.9870 ha        1 W84      0.173000
     31 H1C1       -2.0480   -0.4930    0.9850 hc        1 W84      0.066700
     32 H1C2       -1.5510   -0.4300    2.7310 hc        1 W84      0.066700
     33 H2C1       -2.1260    2.0310    0.9300 hc        1 W84      0.053700
     34 H2C2       -1.6900    2.0800    2.6830 hc        1 W84      0.053700
     35 H3C1       -3.7370    0.7060    3.2260 hc        1 W84      0.041200
     36 H3C2       -4.1790    0.6800    1.4750 hc        1 W84      0.041200
     37 H4C1       -4.2790    3.1980    1.4640 hc        1 W84      0.045200
     38 H4C2       -3.8430    3.2220    3.2160 hc        1 W84      0.045200
     39 H5C1       -5.8940    1.8540    3.7440 hc        1 W84      0.041700
     40 H5C2       -6.3310    1.8390    1.9910 hc        1 W84      0.041700
     41 H6C1       -6.0010    4.3770    3.7480 hc        1 W84      0.059200
     42 H6C2       -6.4370    4.3630    1.9970 hc        1 W84      0.059200
     43 H7C1       -8.0660    3.0180    4.2840 h1        1 W84      0.041200
     44 H7C2       -8.5120    3.0200    2.5050 h1        1 W84      0.041200
     45 H2B        -9.6960    7.1190    3.7480 ha        1 W84      0.147500
     46 H3B       -12.1070    7.4570    4.3530 ha        1 W84      0.156500
     47 H5B       -12.6650    3.1600    4.4930 ha        1 W84      0.156500
     48 H6B       -10.2900    2.8180    3.8960 ha        1 W84      0.147500
     49 H4A       -16.8600    5.1030    4.5280 h1        1 W84      0.073700
     50 HM11      -17.6760    5.5820    6.8160 hc        1 W84      0.044367
     51 HM12      -16.0360    5.2540    7.5210 hc        1 W84      0.044367
     52 HM13      -16.9650    3.9130    6.7300 hc        1 W84      0.044367
     53 H5A1      -16.2860    7.4100    4.4510 h1        1 W84      0.062700
     54 H5A2      -15.8500    7.3960    6.2410 h1        1 W84      0.062700
@<TRIPOS>BOND
     1    1    2 1   
     2    1    6 1   
     3    2    3 2   
     4    3    4 1   
     5    3    5 1   
     6    4   27 1   
     7    4   28 1   
     8    4   29 1   
     9    5    6 2   
    10    5   30 1   
    11    6    7 1   
    12    7    8 1   
    13    7   31 1   
    14    7   32 1   
    15    8    9 1   
    16    8   33 1   
    17    8   34 1   
    18    9   10 1   
    19    9   35 1   
    20    9   36 1   
    21   10   11 1   
    22   10   37 1   
    23   10   38 1   
    24   11   12 1   
    25   11   39 1   
    26   11   40 1   
    27   12   13 1   
    28   12   41 1   
    29   12   42 1   
    30   13   14 1   
    31   13   43 1   
    32   13   44 1   
    33   14   15 1   
    34   15   16 ar  
    35   15   20 ar  
    36   16   17 ar  
    37   16   45 1   
    38   17   18 ar  
    39   17   46 1   
    40   18   19 ar  
    41   18   21 1   
    42   19   20 ar  
    43   19   47 1   
    44   20   48 1   
    45   21   22 2   
    46   21   26 1   
    47   22   23 1   
    48   23   24 1   
    49   23   25 1   
    50   23   49 1   
    51   24   50 1   
    52   24   51 1   
    53   24   52 1   
    54   25   26 1   
    55   25   53 1   
    56   25   54 1   
@<TRIPOS>SUBSTRUCTURE
     1 W84         1 TEMP              0 ****  ****    0 ROOT
