@<TRIPOS>MOLECULE
W84
   54    56     1     0     0
SMALL
bcc


@<TRIPOS>ATOM
      1 O1          0.1230    0.6760    0.0080 os        1 W84     -0.122100
      2 N2          1.4190    0.7580   -0.2160 nc        1 W84     -0.362300
      3 C3          2.0870    0.4280    0.9090 cd        1 W84      0.319600
      4 C31         3.5490    0.3900    1.0900 c3        1 W84     -0.132400
      5 C4          1.1130    0.1050    1.9550 cd        1 W84     -0.364600
      6 C5         -0.1140    0.2740    1.3480 cc        1 W84      0.265000
      7 C1C        -1.5150    0.1230    1.7590 c3        1 W84     -0.117700
      8 C2C        -2.2120    1.4660    1.8930 c3        1 W84     -0.078400
      9 C3C        -3.6640    1.2810    2.2750 c3        1 W84     -0.079400
     10 C4C        -4.3620    2.6170    2.4230 c3        1 W84     -0.078400
     11 C5C        -5.8170    2.4360    2.7990 c3        1 W84     -0.078400
     12 C6C        -6.5070    3.7730    2.9510 c3        1 W84     -0.086400
     13 C7C        -7.9650    3.5710    3.3250 c3        1 W84      0.128400
     14 O1B        -8.5190    4.8870    3.4550 os        1 W84     -0.327900
     15 C1B        -9.8520    4.9530    3.7930 ca        1 W84      0.153100
     16 C2B       -10.3660    6.2610    3.9110 ca        1 W84     -0.198000
     17 C3B       -11.6980    6.4400    4.2480 ca        1 W84     -0.049500
     18 C4B       -12.5310    5.3310    4.4720 ca        1 W84     -0.168900
     19 C5B       -12.0130    4.0360    4.3530 ca        1 W84     -0.049500
     20 C6B       -10.6750    3.8410    4.0150 ca        1 W84     -0.198000
     21 C2A       -13.9330    5.5300    4.8280 ce        1 W84      0.642200
     22 N3A       -14.8680    4.6460    5.0640 n2        1 W84     -0.634900
     23 C4A       -16.1170    5.3590    5.3630 c3        1 W84      0.089500
     24 CM1       -16.7230    5.0180    6.7120 c3        1 W84     -0.086100
     25 C5A       -15.7450    6.8710    5.2710 c3        1 W84      0.089400
     26 O1A       -14.3430    6.8800    4.9220 os        1 W84     -0.458400
     27 H311        4.0940    0.6740    0.1560 hc        1 W84      0.057367
     28 H312        3.8610   -0.6440    1.3850 hc        1 W84      0.057367
     29 H313        3.8420    1.0980    1.9050 hc        1 W84      0.057367
     30 H4          1.3430   -0.1970    2.9700 ha        1 W84      0.173000
     31 H1C1       -1.5460   -0.4230    2.7400 hc        1 W84      0.066700
     32 H1C2       -2.0570   -0.5040    0.9990 hc        1 W84      0.066700
     33 H2C1       -2.1390    2.0190    0.9200 hc        1 W84      0.053700
     34 H2C2       -1.6910    2.0850    2.6700 hc        1 W84      0.053700
     35 H3C1       -4.1850    0.6690    1.4920 hc        1 W84      0.041200
     36 H3C2       -3.7320    0.7130    3.2400 hc        1 W84      0.041200
     37 H4C1       -3.8430    3.2280    3.2080 hc        1 W84      0.045200
     38 H4C2       -4.2900    3.1870    1.4590 hc        1 W84      0.045200
     39 H5C1       -6.3360    1.8290    2.0100 hc        1 W84      0.041700
     40 H5C2       -5.8880    1.8610    3.7600 hc        1 W84      0.041700
     41 H6C1       -6.0010    4.3840    3.7430 hc        1 W84      0.059200
     42 H6C2       -6.4460    4.3530    1.9940 hc        1 W84      0.059200
     43 H7C1       -8.0610    3.0270    4.3010 h1        1 W84      0.041200
     44 H7C2       -8.5150    3.0100    2.5240 h1        1 W84      0.041200
     45 H2B        -9.7020    7.1190    3.7330 ha        1 W84      0.147500
     46 H3B       -12.1110    7.4580    4.3430 ha        1 W84      0.156500
     47 H5B       -12.6610    3.1620    4.5270 ha        1 W84      0.156500
     48 H6B       -10.2860    2.8180    3.9260 ha        1 W84      0.147500
     49 H4A       -16.8590    5.0960    4.5560 h1        1 W84      0.073700
     50 HM11      -16.0260    5.2770    7.5450 hc        1 W84      0.044367
     51 HM12      -16.9550    3.9270    6.7700 hc        1 W84      0.044367
     52 HM13      -17.6690    5.5960    6.8430 hc        1 W84      0.044367
     53 H5A1      -16.2900    7.4030    4.4550 h1        1 W84      0.062700
     54 H5A2      -15.8480    7.4070    6.2440 h1        1 W84      0.062700
@<TRIPOS>BOND
     1    1    2 1   
     2    1    6 1   
     3    2    3 2   
     4    3    4 1   
     5    3    5 1   
     6    4   27 1   
     7    4   28 1   
     8    4   29 1   
     9    5    6 2   
    10    5   30 1   
    11    6    7 1   
    12    7    8 1   
    13    7   31 1   
    14    7   32 1   
    15    8    9 1   
    16    8   33 1   
    17    8   34 1   
    18    9   10 1   
    19    9   35 1   
    20    9   36 1   
    21   10   11 1   
    22   10   37 1   
    23   10   38 1   
    24   11   12 1   
    25   11   39 1   
    26   11   40 1   
    27   12   13 1   
    28   12   41 1   
    29   12   42 1   
    30   13   14 1   
    31   13   43 1   
    32   13   44 1   
    33   14   15 1   
    34   15   16 ar  
    35   15   20 ar  
    36   16   17 ar  
    37   16   45 1   
    38   17   18 ar  
    39   17   46 1   
    40   18   19 ar  
    41   18   21 1   
    42   19   20 ar  
    43   19   47 1   
    44   20   48 1   
    45   21   22 2   
    46   21   26 1   
    47   22   23 1   
    48   23   24 1   
    49   23   25 1   
    50   23   49 1   
    51   24   50 1   
    52   24   51 1   
    53   24   52 1   
    54   25   26 1   
    55   25   53 1   
    56   25   54 1   
@<TRIPOS>SUBSTRUCTURE
     1 W84         1 TEMP              0 ****  ****    0 ROOT
