@<TRIPOS>MOLECULE
W84
   54    56     1     0     0
SMALL
bcc


@<TRIPOS>ATOM
      1 O1         -0.2600   -1.1050   -8.4450 os        1 W84     -0.122100
      2 N2         -0.7560   -0.9280   -9.6530 nc        1 W84     -0.362300
      3 C3         -0.4220    0.3030  -10.0940 cd        1 W84      0.319600
      4 C31        -0.7750    0.9010  -11.3940 c3        1 W84     -0.132400
      5 C4          0.3660    0.9750   -9.0580 cd        1 W84     -0.364600
      6 C5          0.4460    0.0540   -8.0340 cc        1 W84      0.265000
      7 C1C         1.0730    0.0160   -6.7070 c3        1 W84     -0.117700
      8 C2C         0.0430    0.0800   -5.5940 c3        1 W84     -0.078400
      9 C3C         0.7120   -0.0050   -4.2380 c3        1 W84     -0.079400
     10 C4C        -0.3090    0.0700   -3.1230 c3        1 W84     -0.078400
     11 C5C         0.3560   -0.0200   -1.7660 c3        1 W84     -0.078400
     12 C6C        -0.6680    0.0610   -0.6550 c3        1 W84     -0.086400
     13 C7C         0.0170   -0.0330    0.6970 c3        1 W84      0.128400
     14 O1B        -1.0310    0.0650    1.6710 os        1 W84     -0.327900
     15 C1B        -0.6400    0.0010    2.9900 ca        1 W84      0.153100
     16 C2B        -1.6940    0.0980    3.9210 ca        1 W84     -0.198000
     17 C3B        -1.4110    0.0450    5.2770 ca        1 W84     -0.049500
     18 C4B        -0.0860   -0.1030    5.7220 ca        1 W84     -0.168900
     19 C5B         0.9540   -0.1990    4.7900 ca        1 W84     -0.049500
     20 C6B         0.6830   -0.1470    3.4240 ca        1 W84     -0.198000
     21 C2A         0.2030   -0.1570    7.1520 ce        1 W84      0.642200
     22 N3A         1.3480   -0.3000    7.7670 n2        1 W84     -0.634900
     23 C4A         1.1000   -0.3090    9.2150 c3        1 W84      0.089500
     24 CM1         1.8560    0.7590    9.9840 c3        1 W84     -0.086100
     25 C5A        -0.4430   -0.1290    9.3570 c3        1 W84      0.089400
     26 O1A        -0.9250   -0.0460    7.9970 os        1 W84     -0.458400
     27 H311       -1.3630    1.8380  -11.2250 hc        1 W84      0.057367
     28 H312        0.1600    1.1620  -11.9500 hc        1 W84      0.057367
     29 H313       -1.3830    0.2060  -12.0240 hc        1 W84      0.057367
     30 H4          0.7790    1.9750   -9.1190 ha        1 W84      0.173000
     31 H1C1        1.7850    0.8810   -6.6200 hc        1 W84      0.066700
     32 H1C2        1.6710   -0.9320   -6.6100 hc        1 W84      0.066700
     33 H2C1       -0.6850   -0.7650   -5.7140 hc        1 W84      0.053700
     34 H2C2       -0.5380    1.0360   -5.6710 hc        1 W84      0.053700
     35 H3C1        1.4510    0.8320   -4.1290 hc        1 W84      0.041200
     36 H3C2        1.2850   -0.9660   -4.1600 hc        1 W84      0.041200
     37 H4C1       -1.0510   -0.7640   -3.2350 hc        1 W84      0.045200
     38 H4C2       -0.8800    1.0330   -3.1990 hc        1 W84      0.045200
     39 H5C1        1.1010    0.8120   -1.6560 hc        1 W84      0.041700
     40 H5C2        0.9220   -0.9850   -1.6890 hc        1 W84      0.041700
     41 H6C1       -1.4150   -0.7690   -0.7530 hc        1 W84      0.059200
     42 H6C2       -1.2350    1.0270   -0.7190 hc        1 W84      0.059200
     43 H7C1        0.7430    0.8090    0.8430 h1        1 W84      0.041200
     44 H7C2        0.5470   -1.0140    0.8150 h1        1 W84      0.041200
     45 H2B        -2.7260    0.2140    3.5590 ha        1 W84      0.147500
     46 H3B        -2.2270    0.1200    6.0150 ha        1 W84      0.156500
     47 H5B         1.9950   -0.3150    5.1320 ha        1 W84      0.156500
     48 H6B         1.5120   -0.2240    2.7070 ha        1 W84      0.147500
     49 H4A         1.4070   -1.3210    9.6050 h1        1 W84      0.073700
     50 HM11        2.9570    0.6330    9.8470 hc        1 W84      0.044367
     51 HM12        1.5710    1.7820    9.6400 hc        1 W84      0.044367
     52 HM13        1.6140    0.6650   11.0700 hc        1 W84      0.044367
     53 H5A1       -0.9410   -1.0080    9.8290 h1        1 W84      0.062700
     54 H5A2       -0.7270    0.8210    9.8670 h1        1 W84      0.062700
@<TRIPOS>BOND
     1    1    2 1   
     2    1    6 1   
     3    2    3 2   
     4    3    4 1   
     5    3    5 1   
     6    4   27 1   
     7    4   28 1   
     8    4   29 1   
     9    5    6 2   
    10    5   30 1   
    11    6    7 1   
    12    7    8 1   
    13    7   31 1   
    14    7   32 1   
    15    8    9 1   
    16    8   33 1   
    17    8   34 1   
    18    9   10 1   
    19    9   35 1   
    20    9   36 1   
    21   10   11 1   
    22   10   37 1   
    23   10   38 1   
    24   11   12 1   
    25   11   39 1   
    26   11   40 1   
    27   12   13 1   
    28   12   41 1   
    29   12   42 1   
    30   13   14 1   
    31   13   43 1   
    32   13   44 1   
    33   14   15 1   
    34   15   16 ar  
    35   15   20 ar  
    36   16   17 ar  
    37   16   45 1   
    38   17   18 ar  
    39   17   46 1   
    40   18   19 ar  
    41   18   21 1   
    42   19   20 ar  
    43   19   47 1   
    44   20   48 1   
    45   21   22 2   
    46   21   26 1   
    47   22   23 1   
    48   23   24 1   
    49   23   25 1   
    50   23   49 1   
    51   24   50 1   
    52   24   51 1   
    53   24   52 1   
    54   25   26 1   
    55   25   53 1   
    56   25   54 1   
@<TRIPOS>SUBSTRUCTURE
     1 W84         1 TEMP              0 ****  ****    0 ROOT
