@<TRIPOS>MOLECULE
W85
   36    37     1     0     0
SMALL
bcc


@<TRIPOS>ATOM
      1 OAB         0.1610    0.1000    0.2730 o         1 W85     -0.795300
      2 CAP         1.3500   -0.3050    0.2140 c         1 W85      0.922800
      3 OAF         2.0130   -0.8110    1.1510 o         1 W85     -0.795300
      4 CAT         2.0440   -0.1820   -1.1760 cc        1 W85      0.045400
      5 NAM         1.2160   -0.4010   -2.2670 n         1 W85     -0.436100
      6 CAV         1.6710   -0.2630   -3.5850 c         1 W85      0.791500
      7 OAD         0.9010   -0.4310   -4.5630 o         1 W85     -0.694500
      8 NAN         3.0230    0.0500   -3.7840 n         1 W85     -0.592500
      9 CAW         3.9130    0.2740   -2.7140 c         1 W85      0.716700
     10 OAE         5.0880    0.5760   -3.0070 o         1 W85     -0.665500
     11 CAU         3.3680    0.1360   -1.3590 cd        1 W85     -0.293400
     12 CAL         4.3030    0.3640   -0.2300 c3        1 W85      0.009800
     13 CAK         4.9870   -0.9290    0.1970 c3        1 W85     -0.039100
     14 CAR         5.6470   -0.7840    1.5230 ca        1 W85     -0.075300
     15 CAJ         7.0380   -0.7770    1.6450 ca        1 W85     -0.079000
     16 CAH         4.8510   -0.6690    2.6730 ca        1 W85     -0.080000
     17 CAG         5.4450   -0.5450    3.9280 ca        1 W85     -0.161000
     18 CAI         6.8330   -0.5380    4.0540 ca        1 W85     -0.087000
     19 CAS         7.6320   -0.6560    2.9100 ca        1 W85     -0.155600
     20 CAQ         9.0940   -0.6590    3.0010 c         1 W85      0.652700
     21 OAC         9.9290   -0.7980    2.1010 o         1 W85     -0.560000
     22 OAO         9.5850   -0.4830    4.2760 os        1 W85     -0.446900
     23 CAA        11.0030   -0.4760    4.4130 c3        1 W85      0.130700
     24 H2          3.3410    0.1370   -4.7220 hn        1 W85      0.331500
     25 H4          5.0790    1.1170   -0.5330 hc        1 W85      0.058200
     26 H5          3.7280    0.7750    0.6450 hc        1 W85      0.058200
     27 H6          5.7300   -1.2370   -0.5840 hc        1 W85      0.062200
     28 H7          4.2000   -1.7300    0.2760 hc        1 W85      0.062200
     29 H8          7.6800   -0.8660    0.7530 ha        1 W85      0.151000
     30 H9          3.7480   -0.6800    2.5590 ha        1 W85      0.201000
     31 H10         4.8140   -0.4540    4.8240 ha        1 W85      0.131000
     32 H11         7.3050   -0.4410    5.0430 ha        1 W85      0.137000
     33 H12        11.1650   -0.3190    5.5080 h1        1 W85      0.042700
     34 H13        11.4430    0.3570    3.8120 h1        1 W85      0.042700
     35 H14        11.4270   -1.4520    4.0740 h1        1 W85      0.042700
     36 H15         0.2360   -0.5100   -2.1070 hn        1 W85      0.366500
@<TRIPOS>BOND
     1    1    2 1   
     2    2    3 1   
     3    2    4 1   
     4    4    5 1   
     5    4   11 2   
     6    5    6 1   
     7    5   36 1   
     8    6    7 2   
     9    6    8 1   
    10    8    9 1   
    11    8   24 1   
    12    9   10 2   
    13    9   11 1   
    14   11   12 1   
    15   12   13 1   
    16   12   25 1   
    17   12   26 1   
    18   13   14 1   
    19   13   27 1   
    20   13   28 1   
    21   14   15 ar  
    22   14   16 ar  
    23   15   19 ar  
    24   15   29 1   
    25   16   17 ar  
    26   16   30 1   
    27   17   18 ar  
    28   17   31 1   
    29   18   19 ar  
    30   18   32 1   
    31   19   20 1   
    32   20   21 2   
    33   20   22 1   
    34   22   23 1   
    35   23   33 1   
    36   23   34 1   
    37   23   35 1   
@<TRIPOS>SUBSTRUCTURE
     1 W85         1 TEMP              0 ****  ****    0 ROOT
