@<TRIPOS>MOLECULE
W85
   36    37     1     0     0
SMALL
bcc


@<TRIPOS>ATOM
      1 OAB         0.1600    0.0940    0.2740 o         1 W85     -0.795300
      2 CAP         1.3490   -0.3090    0.2150 c         1 W85      0.922800
      3 OAF         2.0140   -0.8150    1.1510 o         1 W85     -0.795300
      4 CAT         2.0430   -0.1830   -1.1750 cc        1 W85      0.045400
      5 NAM         1.2160   -0.4020   -2.2660 n         1 W85     -0.436100
      6 CAV         1.6700   -0.2610   -3.5840 c         1 W85      0.791500
      7 OAD         0.9000   -0.4290   -4.5630 o         1 W85     -0.694500
      8 NAN         3.0220    0.0540   -3.7830 n         1 W85     -0.592500
      9 CAW         3.9120    0.2770   -2.7120 c         1 W85      0.716700
     10 OAE         5.0860    0.5810   -3.0060 o         1 W85     -0.665500
     11 CAU         3.3670    0.1370   -1.3580 cd        1 W85     -0.293400
     12 CAL         4.3020    0.3640   -0.2290 c3        1 W85      0.009800
     13 CAK         4.9880   -0.9280    0.1960 c3        1 W85     -0.039100
     14 CAR         5.6480   -0.7850    1.5220 ca        1 W85     -0.075300
     15 CAJ         7.0390   -0.7770    1.6440 ca        1 W85     -0.079000
     16 CAH         4.8520   -0.6720    2.6730 ca        1 W85     -0.080000
     17 CAG         5.4460   -0.5490    3.9270 ca        1 W85     -0.161000
     18 CAI         6.8330   -0.5410    4.0530 ca        1 W85     -0.087000
     19 CAS         7.6330   -0.6570    2.9100 ca        1 W85     -0.155600
     20 CAQ         9.0940   -0.6580    3.0000 c         1 W85      0.652700
     21 OAC         9.9300   -0.7960    2.1000 o         1 W85     -0.560000
     22 OAO         9.5860   -0.4820    4.2750 os        1 W85     -0.446900
     23 CAA        11.0040   -0.4730    4.4120 c3        1 W85      0.130700
     24 H2          3.3400    0.1420   -4.7210 hn        1 W85      0.331500
     25 H4          5.0770    1.1180   -0.5310 hc        1 W85      0.058200
     26 H5          3.7270    0.7730    0.6470 hc        1 W85      0.058200
     27 H6          4.2020   -1.7310    0.2750 hc        1 W85      0.062200
     28 H7          5.7310   -1.2340   -0.5860 hc        1 W85      0.062200
     29 H8          7.6800   -0.8630    0.7520 ha        1 W85      0.151000
     30 H9          3.7480   -0.6840    2.5590 ha        1 W85      0.201000
     31 H10         4.8150   -0.4600    4.8230 ha        1 W85      0.131000
     32 H11         7.3060   -0.4450    5.0420 ha        1 W85      0.137000
     33 H12        11.4420    0.3590    3.8110 h1        1 W85      0.042700
     34 H13        11.4280   -1.4490    4.0730 h1        1 W85      0.042700
     35 H14        11.1660   -0.3160    5.5070 h1        1 W85      0.042700
     36 H15         0.2360   -0.5120   -2.1070 hn        1 W85      0.366500
@<TRIPOS>BOND
     1    1    2 1   
     2    2    3 1   
     3    2    4 1   
     4    4    5 1   
     5    4   11 2   
     6    5    6 1   
     7    5   36 1   
     8    6    7 2   
     9    6    8 1   
    10    8    9 1   
    11    8   24 1   
    12    9   10 2   
    13    9   11 1   
    14   11   12 1   
    15   12   13 1   
    16   12   25 1   
    17   12   26 1   
    18   13   14 1   
    19   13   27 1   
    20   13   28 1   
    21   14   15 ar  
    22   14   16 ar  
    23   15   19 ar  
    24   15   29 1   
    25   16   17 ar  
    26   16   30 1   
    27   17   18 ar  
    28   17   31 1   
    29   18   19 ar  
    30   18   32 1   
    31   19   20 1   
    32   20   21 2   
    33   20   22 1   
    34   22   23 1   
    35   23   33 1   
    36   23   34 1   
    37   23   35 1   
@<TRIPOS>SUBSTRUCTURE
     1 W85         1 TEMP              0 ****  ****    0 ROOT
