@<TRIPOS>MOLECULE
W85
   36    37     1     0     0
SMALL
bcc


@<TRIPOS>ATOM
      1 OAB         0.1610    0.0990    0.2710 o         1 W85     -0.795300
      2 CAP         1.3500   -0.3060    0.2130 c         1 W85      0.922800
      3 OAF         2.0130   -0.8110    1.1510 o         1 W85     -0.795300
      4 CAT         2.0440   -0.1830   -1.1770 cc        1 W85      0.045400
      5 NAM         1.2170   -0.4030   -2.2680 ns        1 W85     -0.436100
      6 CAV         1.6720   -0.2660   -3.5860 c         1 W85      0.791500
      7 OAD         0.9020   -0.4350   -4.5640 o         1 W85     -0.694500
      8 NAN         3.0240    0.0480   -3.7850 ns        1 W85     -0.592500
      9 CAW         3.9140    0.2720   -2.7140 c         1 W85      0.716700
     10 OAE         5.0890    0.5740   -3.0080 o         1 W85     -0.665500
     11 CAU         3.3680    0.1340   -1.3590 cd        1 W85     -0.293400
     12 CAL         4.3040    0.3630   -0.2310 c3        1 W85      0.009800
     13 CAK         4.9870   -0.9290    0.1970 c3        1 W85     -0.039100
     14 CAR         5.6470   -0.7840    1.5230 ca        1 W85     -0.075300
     15 CAJ         7.0380   -0.7770    1.6450 ca        1 W85     -0.079000
     16 CAH         4.8510   -0.6680    2.6730 ca        1 W85     -0.080000
     17 CAG         5.4440   -0.5440    3.9280 ca        1 W85     -0.161000
     18 CAI         6.8320   -0.5370    4.0540 ca        1 W85     -0.087000
     19 CAS         7.6310   -0.6550    2.9110 ca        1 W85     -0.155600
     20 CAQ         9.0930   -0.6580    3.0020 c         1 W85      0.652700
     21 OAC         9.9290   -0.7980    2.1020 o         1 W85     -0.560000
     22 OAO         9.5850   -0.4800    4.2770 os        1 W85     -0.446900
     23 CAA        11.0020   -0.4730    4.4150 c3        1 W85      0.130700
     24 H2          3.3430    0.1330   -4.7230 hn        1 W85      0.331500
     25 H4          5.0790    1.1160   -0.5340 hc        1 W85      0.058200
     26 H5          3.7280    0.7740    0.6440 hc        1 W85      0.058200
     27 H6          4.2000   -1.7310    0.2770 hc        1 W85      0.062200
     28 H7          5.7300   -1.2380   -0.5840 hc        1 W85      0.062200
     29 H8          7.6800   -0.8660    0.7530 ha        1 W85      0.151000
     30 H9          3.7470   -0.6790    2.5590 ha        1 W85      0.201000
     31 H10         4.8130   -0.4520    4.8230 ha        1 W85      0.131000
     32 H11         7.3040   -0.4390    5.0430 ha        1 W85      0.137000
     33 H12        11.4420    0.3590    3.8120 h1        1 W85      0.042700
     34 H13        11.4260   -1.4500    4.0780 h1        1 W85      0.042700
     35 H14        11.1640   -0.3130    5.5090 h1        1 W85      0.042700
     36 H15         0.2370   -0.5120   -2.1090 hn        1 W85      0.366500
@<TRIPOS>BOND
     1    1    2 1   
     2    2    3 1   
     3    2    4 1   
     4    4    5 1   
     5    4   11 2   
     6    5    6 1   
     7    5   36 1   
     8    6    7 2   
     9    6    8 1   
    10    8    9 1   
    11    8   24 1   
    12    9   10 2   
    13    9   11 1   
    14   11   12 1   
    15   12   13 1   
    16   12   25 1   
    17   12   26 1   
    18   13   14 1   
    19   13   27 1   
    20   13   28 1   
    21   14   15 ar  
    22   14   16 ar  
    23   15   19 ar  
    24   15   29 1   
    25   16   17 ar  
    26   16   30 1   
    27   17   18 ar  
    28   17   31 1   
    29   18   19 ar  
    30   18   32 1   
    31   19   20 1   
    32   20   21 2   
    33   20   22 1   
    34   22   23 1   
    35   23   33 1   
    36   23   34 1   
    37   23   35 1   
@<TRIPOS>SUBSTRUCTURE
     1 W85         1 TEMP              0 ****  ****    0 ROOT
