@<TRIPOS>MOLECULE
W86
   42    43     1     0     0
SMALL
bcc


@<TRIPOS>ATOM
      1 OAB         0.1710    0.9950    0.2290 o         1 W86     -0.790800
      2 CAR         1.2570    0.3720    0.2040 c         1 W86      0.919800
      3 OAF         1.8830   -0.0920    1.1910 o         1 W86     -0.790800
      4 CAV         1.9360    0.1650   -1.1860 cc        1 W86      0.044400
      5 NAO         3.3170    0.2900   -1.1880 n         1 W86     -0.435100
      6 CAX         4.0820    0.0710   -2.3410 c         1 W86      0.790500
      7 OAD         5.3350    0.1540   -2.3220 o         1 W86     -0.697500
      8 NAP         3.4040   -0.2240   -3.5330 n         1 W86     -0.592500
      9 CAY         2.0000   -0.3540   -3.5920 c         1 W86      0.716700
     10 OAE         1.5070   -0.6490   -4.7000 o         1 W86     -0.670500
     11 CAW         1.2610   -0.1360   -2.3440 cd        1 W86     -0.292400
     12 CAN        -0.2160   -0.2640   -2.4060 c3        1 W86      0.008800
     13 CAL        -0.8800    1.0700   -2.6950 c3        1 W86     -0.081400
     14 CAK        -2.3830    0.9140   -2.7870 c3        1 W86     -0.069400
     15 CAM        -3.0500    2.2600   -3.0050 c3        1 W86     -0.051100
     16 CAT        -4.5340    2.1600   -2.9780 ca        1 W86     -0.019300
     17 CAH        -5.2870    2.3720   -4.1410 ca        1 W86     -0.151500
     18 CAJ        -6.6760    2.2910   -4.1080 ca        1 W86     -0.071000
     19 CAG        -5.1970    1.8640   -1.7780 ca        1 W86     -0.151500
     20 CAI        -6.5850    1.7800   -1.7390 ca        1 W86     -0.071000
     21 CAU        -7.3310    1.9950   -2.9050 ca        1 W86     -0.156600
     22 CAS        -8.7950    1.9200   -2.9040 c         1 W86      0.651700
     23 OAC        -9.5750    2.0960   -3.8460 o         1 W86     -0.561000
     24 OAQ        -9.3480    1.6120   -1.6830 os        1 W86     -0.439900
     25 CAA       -10.7700    1.5220   -1.6350 c3        1 W86      0.129700
     26 H2          3.9510   -0.3670   -4.3490 hn        1 W86      0.330500
     27 H4         -0.5940   -0.6460   -1.4190 hc        1 W86      0.052200
     28 H5         -0.4910   -1.0040   -3.2050 hc        1 W86      0.052200
     29 H6         -0.6220    1.7790   -1.8610 hc        1 W86      0.055700
     30 H7         -0.4830    1.4930   -3.6540 hc        1 W86      0.055700
     31 H8         -2.6460    0.2220   -3.6290 hc        1 W86      0.040700
     32 H9         -2.7690    0.4540   -1.8390 hc        1 W86      0.040700
     33 H10        -2.7080    2.6900   -3.9840 hc        1 W86      0.054700
     34 H11        -2.7170    2.9670   -2.1960 hc        1 W86      0.054700
     35 H12        -4.7760    2.6000   -5.0880 ha        1 W86      0.146000
     36 H13        -7.2700    2.4550   -5.0210 ha        1 W86      0.148000
     37 H14        -4.6060    1.6930   -0.8640 ha        1 W86      0.146000
     38 H15        -7.1020    1.5450   -0.7960 ha        1 W86      0.148000
     39 H16       -11.2250    2.5020   -1.9170 h1        1 W86      0.046033
     40 H17       -11.1270    0.7230   -2.3290 h1        1 W86      0.046033
     41 H18       -10.9830    1.2640   -0.5690 h1        1 W86      0.046033
     42 H19         3.7890    0.3840   -0.3120 hn        1 W86      0.365500
@<TRIPOS>BOND
     1    1    2 1   
     2    2    3 1   
     3    2    4 1   
     4    4    5 1   
     5    4   11 2   
     6    5    6 1   
     7    5   42 1   
     8    6    7 2   
     9    6    8 1   
    10    8    9 1   
    11    8   26 1   
    12    9   10 2   
    13    9   11 1   
    14   11   12 1   
    15   12   13 1   
    16   12   27 1   
    17   12   28 1   
    18   13   14 1   
    19   13   29 1   
    20   13   30 1   
    21   14   15 1   
    22   14   31 1   
    23   14   32 1   
    24   15   16 1   
    25   15   33 1   
    26   15   34 1   
    27   16   17 ar  
    28   16   19 ar  
    29   17   18 ar  
    30   17   35 1   
    31   18   21 ar  
    32   18   36 1   
    33   19   20 ar  
    34   19   37 1   
    35   20   21 ar  
    36   20   38 1   
    37   21   22 1   
    38   22   23 2   
    39   22   24 1   
    40   24   25 1   
    41   25   39 1   
    42   25   40 1   
    43   25   41 1   
@<TRIPOS>SUBSTRUCTURE
     1 W86         1 TEMP              0 ****  ****    0 ROOT
