@<TRIPOS>MOLECULE
W86
   42    43     1     0     0
SMALL
bcc


@<TRIPOS>ATOM
      1 OAB         0.1630    0.9410    0.2320 o         1 W86     -0.790800
      2 CAR         1.2490    0.3190    0.1990 c         1 W86      0.919800
      3 OAF         1.8730   -0.1640    1.1790 o         1 W86     -0.790800
      4 CAV         1.9330    0.1370   -1.1920 cc        1 W86      0.044400
      5 NAO         3.3140    0.2620   -1.1880 n         1 W86     -0.435100
      6 CAX         4.0820    0.0660   -2.3420 c         1 W86      0.790500
      7 OAD         5.3350    0.1480   -2.3180 o         1 W86     -0.697500
      8 NAP         3.4070   -0.2070   -3.5410 n         1 W86     -0.592500
      9 CAY         2.0040   -0.3370   -3.6070 c         1 W86      0.716700
     10 OAE         1.5140   -0.6110   -4.7220 o         1 W86     -0.670500
     11 CAW         1.2620   -0.1420   -2.3570 cd        1 W86     -0.292400
     12 CAN        -0.2150   -0.2690   -2.4270 c3        1 W86      0.008800
     13 CAL        -0.8790    1.0700   -2.6940 c3        1 W86     -0.081400
     14 CAK        -2.3820    0.9160   -2.7920 c3        1 W86     -0.069400
     15 CAM        -3.0480    2.2650   -2.9880 c3        1 W86     -0.051100
     16 CAT        -4.5320    2.1660   -2.9650 ca        1 W86     -0.019300
     17 CAH        -5.2840    2.3960   -4.1240 ca        1 W86     -0.151500
     18 CAJ        -6.6730    2.3150   -4.0940 ca        1 W86     -0.071000
     19 CAG        -5.1960    1.8500   -1.7700 ca        1 W86     -0.151500
     20 CAI        -6.5840    1.7670   -1.7330 ca        1 W86     -0.071000
     21 CAU        -7.3300    2.0010   -2.8960 ca        1 W86     -0.156600
     22 CAS        -8.7930    1.9270   -2.8970 c         1 W86      0.651700
     23 OAC        -9.5730    2.1170   -3.8370 o         1 W86     -0.561000
     24 OAQ        -9.3470    1.6020   -1.6820 os        1 W86     -0.439900
     25 CAA       -10.7700    1.5120   -1.6360 c3        1 W86      0.129700
     26 H2          3.9580   -0.3360   -4.3590 hn        1 W86      0.330500
     27 H4         -0.4880   -0.9950   -3.2400 hc        1 W86      0.052200
     28 H5         -0.5970   -0.6690   -1.4480 hc        1 W86      0.052200
     29 H6         -0.6230    1.7630   -1.8460 hc        1 W86      0.055700
     30 H7         -0.4800    1.5100   -3.6430 hc        1 W86      0.055700
     31 H8         -2.7700    0.4400   -1.8520 hc        1 W86      0.040700
     32 H9         -2.6430    0.2370   -3.6460 hc        1 W86      0.040700
     33 H10        -2.7050    2.7100   -3.9600 hc        1 W86      0.054700
     34 H11        -2.7160    2.9590   -2.1680 hc        1 W86      0.054700
     35 H12        -4.7720    2.6390   -5.0670 ha        1 W86      0.146000
     36 H13        -7.2670    2.4950   -5.0040 ha        1 W86      0.148000
     37 H14        -4.6070    1.6650   -0.8580 ha        1 W86      0.146000
     38 H15        -7.1020    1.5170   -0.7940 ha        1 W86      0.148000
     39 H16       -10.9840    1.2380   -0.5740 h1        1 W86      0.046033
     40 H17       -11.2240    2.4960   -1.9050 h1        1 W86      0.046033
     41 H18       -11.1270    0.7230   -2.3420 h1        1 W86      0.046033
     42 H19         3.7830    0.3410   -0.3090 hn        1 W86      0.365500
@<TRIPOS>BOND
     1    1    2 1   
     2    2    3 1   
     3    2    4 1   
     4    4    5 1   
     5    4   11 2   
     6    5    6 1   
     7    5   42 1   
     8    6    7 2   
     9    6    8 1   
    10    8    9 1   
    11    8   26 1   
    12    9   10 2   
    13    9   11 1   
    14   11   12 1   
    15   12   13 1   
    16   12   27 1   
    17   12   28 1   
    18   13   14 1   
    19   13   29 1   
    20   13   30 1   
    21   14   15 1   
    22   14   31 1   
    23   14   32 1   
    24   15   16 1   
    25   15   33 1   
    26   15   34 1   
    27   16   17 ar  
    28   16   19 ar  
    29   17   18 ar  
    30   17   35 1   
    31   18   21 ar  
    32   18   36 1   
    33   19   20 ar  
    34   19   37 1   
    35   20   21 ar  
    36   20   38 1   
    37   21   22 1   
    38   22   23 2   
    39   22   24 1   
    40   24   25 1   
    41   25   39 1   
    42   25   40 1   
    43   25   41 1   
@<TRIPOS>SUBSTRUCTURE
     1 W86         1 TEMP              0 ****  ****    0 ROOT
