@<TRIPOS>MOLECULE
W86
   42    43     1     0     0
SMALL
bcc


@<TRIPOS>ATOM
      1 OAB         0.1660    0.9750    0.2320 o         1 W86     -0.790800
      2 CAR         1.2540    0.3550    0.2050 c         1 W86      0.919800
      3 OAF         1.8790   -0.1150    1.1900 o         1 W86     -0.790800
      4 CAV         1.9360    0.1600   -1.1850 cc        1 W86      0.044400
      5 NAO         3.3170    0.2870   -1.1840 ns        1 W86     -0.435100
      6 CAX         4.0840    0.0800   -2.3370 c         1 W86      0.790500
      7 OAD         5.3370    0.1650   -2.3150 o         1 W86     -0.697500
      8 NAP         3.4080   -0.2070   -3.5320 ns        1 W86     -0.592500
      9 CAY         2.0060   -0.3400   -3.5950 c         1 W86      0.716700
     10 OAE         1.5150   -0.6280   -4.7060 o         1 W86     -0.670500
     11 CAW         1.2640   -0.1340   -2.3460 cd        1 W86     -0.292400
     12 CAN        -0.2130   -0.2640   -2.4130 c3        1 W86      0.008800
     13 CAL        -0.8800    1.0710   -2.6930 c3        1 W86     -0.081400
     14 CAK        -2.3820    0.9120   -2.7890 c3        1 W86     -0.069400
     15 CAM        -3.0510    2.2590   -3.0000 c3        1 W86     -0.051100
     16 CAT        -4.5350    2.1560   -2.9750 ca        1 W86     -0.019300
     17 CAH        -5.2870    2.3720   -4.1370 ca        1 W86     -0.151500
     18 CAJ        -6.6760    2.2890   -4.1060 ca        1 W86     -0.071000
     19 CAG        -5.1980    1.8530   -1.7770 ca        1 W86     -0.151500
     20 CAI        -6.5860    1.7670   -1.7390 ca        1 W86     -0.071000
     21 CAU        -7.3320    1.9870   -2.9040 ca        1 W86     -0.156600
     22 CAS        -8.7950    1.9090   -2.9040 c         1 W86      0.651700
     23 OAC        -9.5760    2.0890   -3.8460 o         1 W86     -0.561000
     24 OAQ        -9.3480    1.5960   -1.6860 os        1 W86     -0.439900
     25 CAA       -10.7710    1.5040   -1.6390 c3        1 W86      0.129700
     26 H2          3.9580   -0.3440   -4.3490 hn        1 W86      0.330500
     27 H4         -0.4850   -0.9990   -3.2170 hc        1 W86      0.052200
     28 H5         -0.5930   -0.6540   -1.4290 hc        1 W86      0.052200
     29 H6         -0.6240    1.7740   -1.8540 hc        1 W86      0.055700
     30 H7         -0.4810    1.5020   -3.6480 hc        1 W86      0.055700
     31 H8         -2.7680    0.4470   -1.8440 hc        1 W86      0.040700
     32 H9         -2.6420    0.2250   -3.6350 hc        1 W86      0.040700
     33 H10        -2.7080    2.6940   -3.9770 hc        1 W86      0.054700
     34 H11        -2.7200    2.9620   -2.1870 hc        1 W86      0.054700
     35 H12        -4.7760    2.6070   -5.0820 ha        1 W86      0.146000
     36 H13        -7.2700    2.4580   -5.0180 ha        1 W86      0.148000
     37 H14        -4.6080    1.6780   -0.8630 ha        1 W86      0.146000
     38 H15        -7.1030    1.5260   -0.7970 ha        1 W86      0.148000
     39 H16       -10.9840    1.2410   -0.5730 h1        1 W86      0.046033
     40 H17       -11.2270    2.4850   -1.9170 h1        1 W86      0.046033
     41 H18       -11.1260    0.7080   -2.3360 h1        1 W86      0.046033
     42 H19         3.7860    0.3760   -0.3060 hn        1 W86      0.365500
@<TRIPOS>BOND
     1    1    2 1   
     2    2    3 1   
     3    2    4 1   
     4    4    5 1   
     5    4   11 2   
     6    5    6 1   
     7    5   42 1   
     8    6    7 2   
     9    6    8 1   
    10    8    9 1   
    11    8   26 1   
    12    9   10 2   
    13    9   11 1   
    14   11   12 1   
    15   12   13 1   
    16   12   27 1   
    17   12   28 1   
    18   13   14 1   
    19   13   29 1   
    20   13   30 1   
    21   14   15 1   
    22   14   31 1   
    23   14   32 1   
    24   15   16 1   
    25   15   33 1   
    26   15   34 1   
    27   16   17 ar  
    28   16   19 ar  
    29   17   18 ar  
    30   17   35 1   
    31   18   21 ar  
    32   18   36 1   
    33   19   20 ar  
    34   19   37 1   
    35   20   21 ar  
    36   20   38 1   
    37   21   22 1   
    38   22   23 2   
    39   22   24 1   
    40   24   25 1   
    41   25   39 1   
    42   25   40 1   
    43   25   41 1   
@<TRIPOS>SUBSTRUCTURE
     1 W86         1 TEMP              0 ****  ****    0 ROOT
