@<TRIPOS>MOLECULE
W87
   48    50     1     0     0
SMALL
bcc


@<TRIPOS>ATOM
      1 OAB        -0.0620   -0.2980    0.2110 o         1 W87     -0.791300
      2 CAT         1.1450   -0.6490    0.1840 c         1 W87      0.919800
      3 OAF         1.7830   -1.2180    1.1010 o         1 W87     -0.791300
      4 CAX         1.9020   -0.3660   -1.1510 cc        1 W87      0.044400
      5 NAQ         1.1530   -0.5570   -2.3020 n         1 W87     -0.435100
      6 CAZ         1.6640   -0.2840   -3.5760 c         1 W87      0.790500
      7 OAD         0.9630   -0.4280   -4.6090 o         1 W87     -0.697500
      8 NAR         2.9980    0.1390   -3.6720 n         1 W87     -0.592500
      9 CBA         3.8110    0.3410   -2.5370 c         1 W87      0.716700
     10 OAE         4.9730    0.7490   -2.7400 o         1 W87     -0.669500
     11 CAY         3.2060    0.0590   -1.2300 cd        1 W87     -0.291400
     12 CAP         4.0620    0.2620   -0.0360 c3        1 W87      0.007800
     13 CAN         4.7980   -1.0100    0.3470 c3        1 W87     -0.080400
     14 CAM         5.6480   -0.7890    1.5810 c3        1 W87     -0.070400
     15 CAO         6.3370   -2.0750    1.9990 c3        1 W87     -0.044100
     16 CAV         6.9950   -1.9550    3.3280 ca        1 W87     -0.057300
     17 CAL         6.2460   -1.7860    4.4740 ca        1 W87     -0.119000
     18 CAI         8.4090   -2.0270    3.4330 ca        1 W87     -0.109000
     19 CAK         9.0340   -1.9370    4.6530 ca        1 W87     -0.136000
     20 CBC         8.2840   -1.7660    5.8480 ca        1 W87     -0.001000
     21 CBB         6.8680   -1.6880    5.7470 ca        1 W87     -0.049000
     22 CAJ         6.0840   -1.5110    6.9190 ca        1 W87     -0.072000
     23 CAG         6.6810   -1.4250    8.1520 ca        1 W87     -0.164000
     24 CAH         8.0850   -1.5150    8.2670 ca        1 W87     -0.066000
     25 CAW         8.8770   -1.6770    7.1450 ca        1 W87     -0.123600
     26 CAU        10.3360   -1.7510    7.3160 c         1 W87      0.651700
     27 OAC        11.2520   -1.4780    6.5340 o         1 W87     -0.547000
     28 OAS        10.7130   -2.1840    8.5690 os        1 W87     -0.447900
     29 CAA        12.1130   -2.2680    8.8200 c3        1 W87      0.129700
     30 H2          3.3580    0.3210   -4.5800 hn        1 W87      0.330500
     31 H4          4.8040    1.0790   -0.2440 hc        1 W87      0.052700
     32 H5          3.4170    0.5770    0.8300 hc        1 W87      0.052700
     33 H6          5.4430   -1.3480   -0.5040 hc        1 W87      0.054200
     34 H7          4.0340   -1.8090    0.5530 hc        1 W87      0.054200
     35 H8          4.9960   -0.4240    2.4180 hc        1 W87      0.040200
     36 H9          6.4160    0.0030    1.3820 hc        1 W87      0.040200
     37 H10         7.0890   -2.3640    1.2180 hc        1 W87      0.051700
     38 H11         5.5730   -2.9000    2.0460 hc        1 W87      0.051700
     39 H12         5.1470   -1.7240    4.4130 ha        1 W87      0.152000
     40 H13         9.0030   -2.1530    2.5150 ha        1 W87      0.135000
     41 H14        10.1340   -1.9860    4.7130 ha        1 W87      0.157000
     42 H15         4.9890   -1.4430    6.8140 ha        1 W87      0.143000
     43 H16         6.0790   -1.2880    9.0620 ha        1 W87      0.134000
     44 H17         8.5470   -1.4560    9.2650 ha        1 W87      0.144000
     45 H18        12.5840   -1.2620    8.7100 h1        1 W87      0.046367
     46 H19        12.1720   -2.6360    9.8740 h1        1 W87      0.046367
     47 H20        12.5870   -2.9880    8.1090 h1        1 W87      0.046367
     48 H21         0.1750   -0.7430   -2.2080 hn        1 W87      0.365500
@<TRIPOS>BOND
     1    1    2 1   
     2    2    3 1   
     3    2    4 1   
     4    4    5 1   
     5    4   11 2   
     6    5    6 1   
     7    5   48 1   
     8    6    7 2   
     9    6    8 1   
    10    8    9 1   
    11    8   30 1   
    12    9   10 2   
    13    9   11 1   
    14   11   12 1   
    15   12   13 1   
    16   12   31 1   
    17   12   32 1   
    18   13   14 1   
    19   13   33 1   
    20   13   34 1   
    21   14   15 1   
    22   14   35 1   
    23   14   36 1   
    24   15   16 1   
    25   15   37 1   
    26   15   38 1   
    27   16   17 ar  
    28   16   18 ar  
    29   17   21 ar  
    30   17   39 1   
    31   18   19 ar  
    32   18   40 1   
    33   19   20 ar  
    34   19   41 1   
    35   20   21 ar  
    36   20   25 ar  
    37   21   22 ar  
    38   22   23 ar  
    39   22   42 1   
    40   23   24 ar  
    41   23   43 1   
    42   24   25 ar  
    43   24   44 1   
    44   25   26 1   
    45   26   27 2   
    46   26   28 1   
    47   28   29 1   
    48   29   45 1   
    49   29   46 1   
    50   29   47 1   
@<TRIPOS>SUBSTRUCTURE
     1 W87         1 TEMP              0 ****  ****    0 ROOT
