@<TRIPOS>MOLECULE
W87
   48    50     1     0     0
SMALL
bcc


@<TRIPOS>ATOM
      1 OAB        -0.0640   -0.3060    0.2110 o         1 W87     -0.791300
      2 CAT         1.1440   -0.6570    0.1840 c         1 W87      0.919800
      3 OAF         1.7820   -1.2230    1.1010 o         1 W87     -0.791300
      4 CAX         1.9010   -0.3740   -1.1510 cc        1 W87      0.044400
      5 NAQ         1.1510   -0.5670   -2.3020 n         1 W87     -0.435100
      6 CAZ         1.6630   -0.2950   -3.5770 c         1 W87      0.790500
      7 OAD         0.9620   -0.4410   -4.6100 o         1 W87     -0.697500
      8 NAR         2.9960    0.1280   -3.6730 n         1 W87     -0.592500
      9 CBA         3.8080    0.3320   -2.5380 c         1 W87      0.716700
     10 OAE         4.9700    0.7410   -2.7410 o         1 W87     -0.669500
     11 CAY         3.2040    0.0520   -1.2310 cd        1 W87     -0.291400
     12 CAP         4.0600    0.2560   -0.0370 c3        1 W87      0.007800
     13 CAN         4.7970   -1.0140    0.3480 c3        1 W87     -0.080400
     14 CAM         5.6460   -0.7910    1.5810 c3        1 W87     -0.070400
     15 CAO         6.3360   -2.0770    2.0000 c3        1 W87     -0.044100
     16 CAV         6.9950   -1.9540    3.3290 ca        1 W87     -0.057300
     17 CAL         6.2470   -1.7840    4.4750 ca        1 W87     -0.119000
     18 CAI         8.4090   -2.0240    3.4340 ca        1 W87     -0.109000
     19 CAK         9.0350   -1.9320    4.6530 ca        1 W87     -0.136000
     20 CBC         8.2860   -1.7610    5.8480 ca        1 W87     -0.001000
     21 CBB         6.8690   -1.6840    5.7470 ca        1 W87     -0.049000
     22 CAJ         6.0860   -1.5060    6.9200 ca        1 W87     -0.072000
     23 CAG         6.6840   -1.4180    8.1530 ca        1 W87     -0.164000
     24 CAH         8.0870   -1.5070    8.2670 ca        1 W87     -0.066000
     25 CAW         8.8790   -1.6700    7.1450 ca        1 W87     -0.123600
     26 CAU        10.3380   -1.7420    7.3150 c         1 W87      0.651700
     27 OAC        11.2530   -1.4710    6.5320 o         1 W87     -0.547000
     28 OAS        10.7160   -2.1720    8.5690 os        1 W87     -0.447900
     29 CAA        12.1170   -2.2550    8.8190 c3        1 W87      0.129700
     30 H2          3.3560    0.3090   -4.5820 hn        1 W87      0.330500
     31 H4          3.4140    0.5720    0.8280 hc        1 W87      0.052700
     32 H5          4.8010    1.0740   -0.2460 hc        1 W87      0.052700
     33 H6          5.4410   -1.3530   -0.5030 hc        1 W87      0.054200
     34 H7          4.0330   -1.8130    0.5540 hc        1 W87      0.054200
     35 H8          4.9940   -0.4250    2.4180 hc        1 W87      0.040200
     36 H9          6.4140    0.0010    1.3810 hc        1 W87      0.040200
     37 H10         5.5730   -2.9020    2.0490 hc        1 W87      0.051700
     38 H11         7.0890   -2.3660    1.2200 hc        1 W87      0.051700
     39 H12         5.1480   -1.7230    4.4150 ha        1 W87      0.152000
     40 H13         9.0030   -2.1520    2.5150 ha        1 W87      0.135000
     41 H14        10.1350   -1.9810    4.7120 ha        1 W87      0.157000
     42 H15         4.9910   -1.4390    6.8160 ha        1 W87      0.143000
     43 H16         6.0820   -1.2800    9.0630 ha        1 W87      0.134000
     44 H17         8.5500   -1.4460    9.2650 ha        1 W87      0.144000
     45 H18        12.1770   -2.6190    9.8740 h1        1 W87      0.046367
     46 H19        12.5860   -1.2480    8.7070 h1        1 W87      0.046367
     47 H20        12.5900   -2.9760    8.1110 h1        1 W87      0.046367
     48 H21         0.1740   -0.7540   -2.2080 hn        1 W87      0.365500
@<TRIPOS>BOND
     1    1    2 1   
     2    2    3 1   
     3    2    4 1   
     4    4    5 1   
     5    4   11 2   
     6    5    6 1   
     7    5   48 1   
     8    6    7 2   
     9    6    8 1   
    10    8    9 1   
    11    8   30 1   
    12    9   10 2   
    13    9   11 1   
    14   11   12 1   
    15   12   13 1   
    16   12   31 1   
    17   12   32 1   
    18   13   14 1   
    19   13   33 1   
    20   13   34 1   
    21   14   15 1   
    22   14   35 1   
    23   14   36 1   
    24   15   16 1   
    25   15   37 1   
    26   15   38 1   
    27   16   17 ar  
    28   16   18 ar  
    29   17   21 ar  
    30   17   39 1   
    31   18   19 ar  
    32   18   40 1   
    33   19   20 ar  
    34   19   41 1   
    35   20   21 ar  
    36   20   25 ar  
    37   21   22 ar  
    38   22   23 ar  
    39   22   42 1   
    40   23   24 ar  
    41   23   43 1   
    42   24   25 ar  
    43   24   44 1   
    44   25   26 1   
    45   26   27 2   
    46   26   28 1   
    47   28   29 1   
    48   29   45 1   
    49   29   46 1   
    50   29   47 1   
@<TRIPOS>SUBSTRUCTURE
     1 W87         1 TEMP              0 ****  ****    0 ROOT
