@<TRIPOS>MOLECULE
W87
   48    50     1     0     0
SMALL
bcc


@<TRIPOS>ATOM
      1 OAB        -0.0580   -0.2530    0.2150 o         1 W87     -0.791300
      2 CAT         1.1450   -0.6180    0.1890 c         1 W87      0.919800
      3 OAF         1.7780   -1.1850    1.1090 o         1 W87     -0.791300
      4 CAX         1.9030   -0.3530   -1.1490 cc        1 W87      0.044400
      5 NAQ         1.1490   -0.5460   -2.2980 ns        1 W87     -0.435100
      6 CAZ         1.6620   -0.2890   -3.5750 c         1 W87      0.790500
      7 OAD         0.9570   -0.4340   -4.6060 o         1 W87     -0.697500
      8 NAR         3.0000    0.1180   -3.6770 ns        1 W87     -0.592500
      9 CBA         3.8160    0.3210   -2.5450 c         1 W87      0.716700
     10 OAE         4.9830    0.7150   -2.7530 o         1 W87     -0.669500
     11 CAY         3.2110    0.0570   -1.2350 cd        1 W87     -0.291400
     12 CAP         4.0720    0.2600   -0.0430 c3        1 W87      0.007800
     13 CAN         4.7950   -1.0170    0.3490 c3        1 W87     -0.080400
     14 CAM         5.6490   -0.7950    1.5790 c3        1 W87     -0.070400
     15 CAO         6.3240   -2.0850    2.0060 c3        1 W87     -0.044100
     16 CAV         6.9870   -1.9610    3.3330 ca        1 W87     -0.057300
     17 CAL         6.2430   -1.7740    4.4790 ca        1 W87     -0.119000
     18 CAI         8.4000   -2.0490    3.4360 ca        1 W87     -0.109000
     19 CAK         9.0290   -1.9560    4.6530 ca        1 W87     -0.136000
     20 CBC         8.2840   -1.7660    5.8490 ca        1 W87     -0.001000
     21 CBB         6.8680   -1.6710    5.7500 ca        1 W87     -0.049000
     22 CAJ         6.0890   -1.4740    6.9220 ca        1 W87     -0.072000
     23 CAG         6.6900   -1.3850    8.1530 ca        1 W87     -0.164000
     24 CAH         8.0920   -1.4910    8.2660 ca        1 W87     -0.066000
     25 CAW         8.8800   -1.6730    7.1440 ca        1 W87     -0.123600
     26 CAU        10.3390   -1.7630    7.3120 c         1 W87      0.651700
     27 OAC        11.2560   -1.5080    6.5260 o         1 W87     -0.547000
     28 OAS        10.7120   -2.1890    8.5680 os        1 W87     -0.447900
     29 CAA        12.1130   -2.2880    8.8170 c3        1 W87      0.129700
     30 H2          3.3610    0.2890   -4.5870 hn        1 W87      0.330500
     31 H4          4.8220    1.0670   -0.2600 hc        1 W87      0.052700
     32 H5          3.4320    0.5890    0.8210 hc        1 W87      0.052700
     33 H6          5.4340   -1.3690   -0.5010 hc        1 W87      0.054200
     34 H7          4.0220   -1.8050    0.5620 hc        1 W87      0.054200
     35 H8          5.0030   -0.4150    2.4140 hc        1 W87      0.040200
     36 H9          6.4250   -0.0130    1.3720 hc        1 W87      0.040200
     37 H10         7.0720   -2.3890    1.2260 hc        1 W87      0.051700
     38 H11         5.5520   -2.9010    2.0620 hc        1 W87      0.051700
     39 H12         5.1440   -1.6990    4.4200 ha        1 W87      0.152000
     40 H13         8.9910   -2.1900    2.5180 ha        1 W87      0.135000
     41 H14        10.1280   -2.0170    4.7120 ha        1 W87      0.157000
     42 H15         4.9950   -1.3950    6.8190 ha        1 W87      0.143000
     43 H16         6.0910   -1.2330    9.0630 ha        1 W87      0.134000
     44 H17         8.5580   -1.4290    9.2630 ha        1 W87      0.144000
     45 H18        12.5950   -1.2880    8.6980 h1        1 W87      0.046367
     46 H19        12.1690   -2.6470    9.8740 h1        1 W87      0.046367
     47 H20        12.5760   -3.0200    8.1120 h1        1 W87      0.046367
     48 H21         0.1700   -0.7210   -2.2010 hn        1 W87      0.365500
@<TRIPOS>BOND
     1    1    2 1   
     2    2    3 1   
     3    2    4 1   
     4    4    5 1   
     5    4   11 2   
     6    5    6 1   
     7    5   48 1   
     8    6    7 2   
     9    6    8 1   
    10    8    9 1   
    11    8   30 1   
    12    9   10 2   
    13    9   11 1   
    14   11   12 1   
    15   12   13 1   
    16   12   31 1   
    17   12   32 1   
    18   13   14 1   
    19   13   33 1   
    20   13   34 1   
    21   14   15 1   
    22   14   35 1   
    23   14   36 1   
    24   15   16 1   
    25   15   37 1   
    26   15   38 1   
    27   16   17 ar  
    28   16   18 ar  
    29   17   21 ar  
    30   17   39 1   
    31   18   19 ar  
    32   18   40 1   
    33   19   20 ar  
    34   19   41 1   
    35   20   21 ar  
    36   20   25 ar  
    37   21   22 ar  
    38   22   23 ar  
    39   22   42 1   
    40   23   24 ar  
    41   23   43 1   
    42   24   25 ar  
    43   24   44 1   
    44   25   26 1   
    45   26   27 2   
    46   26   28 1   
    47   28   29 1   
    48   29   45 1   
    49   29   46 1   
    50   29   47 1   
@<TRIPOS>SUBSTRUCTURE
     1 W87         1 TEMP              0 ****  ****    0 ROOT
