@<TRIPOS>MOLECULE
W88
   44    46     1     0     0
SMALL
bcc


@<TRIPOS>ATOM
      1 OAB         1.1570   -0.0760    0.6450 o         1 W88     -0.791300
      2 CAT         2.1450   -0.5530    0.0440 c         1 W88      0.918800
      3 OAF         3.0170   -1.3260    0.5230 o         1 W88     -0.791300
      4 CAX         2.3650   -0.1360   -1.4440 cc        1 W88      0.038400
      5 NAQ         3.6950    0.0910   -1.7800 n         1 W88     -0.436100
      6 CAY         4.0950    0.3840   -3.0870 c         1 W88      0.789500
      7 OAC         5.3070    0.5500   -3.3820 o         1 W88     -0.711500
      8 NAR         3.0990    0.5110   -4.0630 n         1 W88     -0.594500
      9 CAZ         1.7310    0.3000   -3.7810 c         1 W88      0.713700
     10 OAD         0.9450    0.3920   -4.7450 o         1 W88     -0.663500
     11 CAW         1.3780   -0.0180   -2.3910 cd        1 W88     -0.276400
     12 CAP        -0.0660   -0.2160   -2.1060 c3        1 W88     -0.003200
     13 CAN        -0.8470    1.0850   -2.1830 c3        1 W88     -0.075400
     14 CAM        -2.3410    0.8350   -2.1410 c3        1 W88     -0.072400
     15 CAO        -3.1070    2.1440   -2.1820 c3        1 W88     -0.031100
     16 CAU        -4.5720    1.9620   -2.3800 ca        1 W88     -0.088300
     17 CAK        -5.4780    2.3210   -1.4060 ca        1 W88     -0.123000
     18 CBA        -6.8770    2.2050   -1.6250 ca        1 W88     -0.040000
     19 CAJ        -7.8260    2.5860   -0.6380 ca        1 W88     -0.170000
     20 CAH        -9.1730    2.4830   -0.8870 ca        1 W88     -0.088000
     21 CAV        -9.6490    1.9940   -2.1320 ca        1 W88     -0.127600
     22 CAS       -11.1480    1.9100   -2.3750 c         1 W88      0.907200
     23 OAE       -11.9230    2.2830   -1.4480 o         1 W88     -0.838300
     24 OAA       -11.5500    1.4740   -3.4920 o         1 W88     -0.838300
     25 CAL        -8.7460    1.6100   -3.0970 ca        1 W88     -0.110000
     26 CBB        -7.3470    1.7060   -2.8690 ca        1 W88     -0.051000
     27 CAI        -6.3940    1.3250   -3.8530 ca        1 W88     -0.118000
     28 CAG        -5.0480    1.4500   -3.6180 ca        1 W88     -0.145000
     29 H2          3.3860    0.7290   -4.9890 hn        1 W88      0.326500
     30 H4         -0.4830   -0.9400   -2.8580 hc        1 W88      0.060200
     31 H5         -0.1910   -0.6590   -1.0800 hc        1 W88      0.060200
     32 H6         -0.5850    1.6180   -3.1360 hc        1 W88      0.043200
     33 H7         -0.5480    1.7440   -1.3270 hc        1 W88      0.043200
     34 H8         -2.6410    0.1960   -3.0130 hc        1 W88      0.041700
     35 H9         -2.6050    0.2720   -1.2080 hc        1 W88      0.041700
     36 H10        -2.7100    2.7730   -3.0260 hc        1 W88      0.037700
     37 H11        -2.9150    2.7080   -1.2310 hc        1 W88      0.037700
     38 H12        -5.1310    2.7110   -0.4370 ha        1 W88      0.119000
     39 H13        -7.4570    2.9640    0.3260 ha        1 W88      0.108000
     40 H14        -9.9270    2.7750   -0.1380 ha        1 W88      0.149000
     41 H16        -9.1190    1.2260   -4.0600 ha        1 W88      0.147000
     42 H17        -6.7630    0.9290   -4.8110 ha        1 W88      0.119000
     43 H18        -4.3130    1.1570   -4.3820 ha        1 W88      0.121000
     44 H19         4.3960   -0.1330   -1.1050 hn        1 W88      0.362500
@<TRIPOS>BOND
     1    1    2 1   
     2    2    3 1   
     3    2    4 1   
     4    4    5 1   
     5    4   11 2   
     6    5    6 1   
     7    5   44 1   
     8    6    7 2   
     9    6    8 1   
    10    8    9 1   
    11    8   29 1   
    12    9   10 2   
    13    9   11 1   
    14   11   12 1   
    15   12   13 1   
    16   12   30 1   
    17   12   31 1   
    18   13   14 1   
    19   13   32 1   
    20   13   33 1   
    21   14   15 1   
    22   14   34 1   
    23   14   35 1   
    24   15   16 1   
    25   15   36 1   
    26   15   37 1   
    27   16   17 ar  
    28   16   28 ar  
    29   17   18 ar  
    30   17   38 1   
    31   18   19 ar  
    32   18   26 ar  
    33   19   20 ar  
    34   19   39 1   
    35   20   21 ar  
    36   20   40 1   
    37   21   22 1   
    38   21   25 ar  
    39   22   23 1   
    40   22   24 1   
    41   25   26 ar  
    42   25   41 1   
    43   26   27 ar  
    44   27   28 ar  
    45   27   42 1   
    46   28   43 1   
@<TRIPOS>SUBSTRUCTURE
     1 W88         1 TEMP              0 ****  ****    0 ROOT
