@<TRIPOS>MOLECULE
W88
   44    46     1     0     0
SMALL
bcc


@<TRIPOS>ATOM
      1 OAB         1.1650   -0.0660    0.6380 o         1 W88     -0.791300
      2 CAT         2.1550   -0.5360    0.0340 c         1 W88      0.918800
      3 OAF         3.0310   -1.3060    0.5100 o         1 W88     -0.791300
      4 CAX         2.3720   -0.1120   -1.4520 cc        1 W88      0.038400
      5 NAQ         3.7000    0.1230   -1.7880 ns        1 W88     -0.436100
      6 CAY         4.0980    0.4240   -3.0940 c         1 W88      0.789500
      7 OAC         5.3090    0.5970   -3.3890 o         1 W88     -0.711500
      8 NAR         3.1010    0.5490   -4.0690 ns        1 W88     -0.594500
      9 CAZ         1.7350    0.3300   -3.7870 c         1 W88      0.713700
     10 OAD         0.9470    0.4210   -4.7500 o         1 W88     -0.663500
     11 CAW         1.3840    0.0050   -2.3980 cd        1 W88     -0.276400
     12 CAP        -0.0590   -0.2010   -2.1130 c3        1 W88     -0.003200
     13 CAN        -0.8470    1.0950   -2.1860 c3        1 W88     -0.075400
     14 CAM        -2.3400    0.8370   -2.1430 c3        1 W88     -0.072400
     15 CAO        -3.1120    2.1420   -2.1800 c3        1 W88     -0.031100
     16 CAU        -4.5760    1.9530   -2.3760 ca        1 W88     -0.088300
     17 CAK        -5.4830    2.3060   -1.4010 ca        1 W88     -0.123000
     18 CBA        -6.8820    2.1840   -1.6190 ca        1 W88     -0.040000
     19 CAJ        -7.8320    2.5580   -0.6300 ca        1 W88     -0.170000
     20 CAH        -9.1780    2.4500   -0.8780 ca        1 W88     -0.088000
     21 CAV        -9.6540    1.9600   -2.1230 ca        1 W88     -0.127600
     22 CAS       -11.1520    1.8690   -2.3650 c         1 W88      0.907200
     23 OAE       -11.9280    2.2380   -1.4370 o         1 W88     -0.838300
     24 OAA       -11.5530    1.4330   -3.4820 o         1 W88     -0.838300
     25 CAL        -8.7490    1.5830   -3.0900 ca        1 W88     -0.110000
     26 CBB        -7.3510    1.6850   -2.8630 ca        1 W88     -0.051000
     27 CAI        -6.3960    1.3100   -3.8490 ca        1 W88     -0.118000
     28 CAG        -5.0510    1.4410   -3.6150 ca        1 W88     -0.145000
     29 H2          3.3870    0.7720   -4.9950 hn        1 W88      0.326500
     30 H4         -0.4720   -0.9250   -2.8680 hc        1 W88      0.060200
     31 H5         -0.1810   -0.6490   -1.0880 hc        1 W88      0.060200
     32 H6         -0.5890    1.6330   -3.1370 hc        1 W88      0.043200
     33 H7         -0.5510    1.7530   -1.3270 hc        1 W88      0.043200
     34 H8         -2.6370    0.1990   -3.0170 hc        1 W88      0.041700
     35 H9         -2.6000    0.2700   -1.2120 hc        1 W88      0.041700
     36 H10        -2.7200    2.7760   -3.0220 hc        1 W88      0.037700
     37 H11        -2.9220    2.7050   -1.2270 hc        1 W88      0.037700
     38 H12        -5.1370    2.6960   -0.4320 ha        1 W88      0.119000
     39 H13        -7.4640    2.9360    0.3340 ha        1 W88      0.108000
     40 H14        -9.9340    2.7360   -0.1280 ha        1 W88      0.149000
     41 H16        -9.1210    1.1990   -4.0540 ha        1 W88      0.147000
     42 H17        -6.7650    0.9150   -4.8070 ha        1 W88      0.119000
     43 H18        -4.3160    1.1540   -4.3800 ha        1 W88      0.121000
     44 H19         4.4040   -0.0990   -1.1140 hn        1 W88      0.362500
@<TRIPOS>BOND
     1    1    2 1   
     2    2    3 1   
     3    2    4 1   
     4    4    5 1   
     5    4   11 2   
     6    5    6 1   
     7    5   44 1   
     8    6    7 2   
     9    6    8 1   
    10    8    9 1   
    11    8   29 1   
    12    9   10 2   
    13    9   11 1   
    14   11   12 1   
    15   12   13 1   
    16   12   30 1   
    17   12   31 1   
    18   13   14 1   
    19   13   32 1   
    20   13   33 1   
    21   14   15 1   
    22   14   34 1   
    23   14   35 1   
    24   15   16 1   
    25   15   36 1   
    26   15   37 1   
    27   16   17 ar  
    28   16   28 ar  
    29   17   18 ar  
    30   17   38 1   
    31   18   19 ar  
    32   18   26 ar  
    33   19   20 ar  
    34   19   39 1   
    35   20   21 ar  
    36   20   40 1   
    37   21   22 1   
    38   21   25 ar  
    39   22   23 1   
    40   22   24 1   
    41   25   26 ar  
    42   25   41 1   
    43   26   27 ar  
    44   27   28 ar  
    45   27   42 1   
    46   28   43 1   
@<TRIPOS>SUBSTRUCTURE
     1 W88         1 TEMP              0 ****  ****    0 ROOT
