@<TRIPOS>MOLECULE
W88
   44    46     1     0     0
SMALL
bcc


@<TRIPOS>ATOM
      1 OAB         1.1490   -0.0880    0.6520 o         1 W88     -0.791300
      2 CAT         2.1390   -0.5620    0.0510 c         1 W88      0.918800
      3 OAF         3.0100   -1.3370    0.5290 o         1 W88     -0.791300
      4 CAX         2.3630   -0.1370   -1.4340 cc        1 W88      0.038400
      5 NAQ         3.6940    0.0920   -1.7650 n         1 W88     -0.436100
      6 CAY         4.0980    0.3920   -3.0690 c         1 W88      0.789500
      7 OAC         5.3100    0.5600   -3.3610 o         1 W88     -0.711500
      8 NAR         3.1040    0.5240   -4.0480 n         1 W88     -0.594500
      9 CAZ         1.7360    0.3110   -3.7710 c         1 W88      0.713700
     10 OAD         0.9520    0.4070   -4.7370 o         1 W88     -0.663500
     11 CAW         1.3790   -0.0140   -2.3830 cd        1 W88     -0.276400
     12 CAP        -0.0660   -0.2140   -2.1030 c3        1 W88     -0.003200
     13 CAN        -0.8470    1.0860   -2.1750 c3        1 W88     -0.075400
     14 CAM        -2.3410    0.8360   -2.1400 c3        1 W88     -0.072400
     15 CAO        -3.1080    2.1450   -2.1740 c3        1 W88     -0.031100
     16 CAU        -4.5720    1.9630   -2.3790 ca        1 W88     -0.088300
     17 CAK        -5.4820    2.3130   -1.4050 ca        1 W88     -0.123000
     18 CBA        -6.8800    2.1970   -1.6310 ca        1 W88     -0.040000
     19 CAJ        -7.8330    2.5680   -0.6440 ca        1 W88     -0.170000
     20 CAH        -9.1790    2.4660   -0.8990 ca        1 W88     -0.088000
     21 CAV        -9.6500    1.9880   -2.1500 ca        1 W88     -0.127600
     22 CAS       -11.1470    1.9030   -2.3990 c         1 W88      0.907200
     23 OAE       -11.9270    2.2680   -1.4720 o         1 W88     -0.838300
     24 OAA       -11.5440    1.4770   -3.5220 o         1 W88     -0.838300
     25 CAL        -8.7420    1.6130   -3.1150 ca        1 W88     -0.110000
     26 CBB        -7.3440    1.7090   -2.8800 ca        1 W88     -0.051000
     27 CAI        -6.3870    1.3370   -3.8640 ca        1 W88     -0.118000
     28 CAG        -5.0430    1.4610   -3.6230 ca        1 W88     -0.145000
     29 H2          3.3950    0.7460   -4.9720 hn        1 W88      0.326500
     30 H4         -0.1940   -0.6640   -1.0800 hc        1 W88      0.059700
     31 H5         -0.4800   -0.9340   -2.8610 hc        1 W88      0.059700
     32 H6         -0.5520    1.7410   -1.3140 hc        1 W88      0.043200
     33 H7         -0.5820    1.6260   -3.1240 hc        1 W88      0.043200
     34 H8         -2.6080    0.2660   -1.2120 hc        1 W88      0.041700
     35 H9         -2.6380    0.2030   -3.0180 hc        1 W88      0.041700
     36 H10        -2.9200    2.7020   -1.2180 hc        1 W88      0.037700
     37 H11        -2.7080    2.7810   -3.0110 hc        1 W88      0.037700
     38 H12        -5.1390    2.6950   -0.4320 ha        1 W88      0.119000
     39 H13        -7.4680    2.9380    0.3240 ha        1 W88      0.108000
     40 H14        -9.9360    2.7510   -0.1500 ha        1 W88      0.149000
     41 H16        -9.1110    1.2370   -4.0830 ha        1 W88      0.147000
     42 H17        -6.7520    0.9500   -4.8270 ha        1 W88      0.119000
     43 H18        -4.3050    1.1760   -4.3870 ha        1 W88      0.121000
     44 H19         4.3940   -0.1350   -1.0890 hn        1 W88      0.362500
@<TRIPOS>BOND
     1    1    2 1   
     2    2    3 1   
     3    2    4 1   
     4    4    5 1   
     5    4   11 2   
     6    5    6 1   
     7    5   44 1   
     8    6    7 2   
     9    6    8 1   
    10    8    9 1   
    11    8   29 1   
    12    9   10 2   
    13    9   11 1   
    14   11   12 1   
    15   12   13 1   
    16   12   30 1   
    17   12   31 1   
    18   13   14 1   
    19   13   32 1   
    20   13   33 1   
    21   14   15 1   
    22   14   34 1   
    23   14   35 1   
    24   15   16 1   
    25   15   36 1   
    26   15   37 1   
    27   16   17 ar  
    28   16   28 ar  
    29   17   18 ar  
    30   17   38 1   
    31   18   19 ar  
    32   18   26 ar  
    33   19   20 ar  
    34   19   39 1   
    35   20   21 ar  
    36   20   40 1   
    37   21   22 1   
    38   21   25 ar  
    39   22   23 1   
    40   22   24 1   
    41   25   26 ar  
    42   25   41 1   
    43   26   27 ar  
    44   27   28 ar  
    45   27   42 1   
    46   28   43 1   
@<TRIPOS>SUBSTRUCTURE
     1 W88         1 TEMP              0 ****  ****    0 ROOT
