@<TRIPOS>MOLECULE
W8G
   29    31     1     0     0
SMALL
bcc


@<TRIPOS>ATOM
      1 N1          0.0790   -0.2320   -0.0490 nb        1 W8G     -0.812000
      2 C2          1.4730   -0.1740    0.0270 ca        1 W8G      0.894900
      3 N3          2.2320   -0.0170    1.1680 nb        1 W8G     -0.777000
      4 C4          1.4880    0.0490    2.3080 ca        1 W8G      0.491800
      5 C5          0.0340   -0.0160    2.3520 ca        1 W8G     -0.367400
      6 C6         -0.6330   -0.1530    1.1020 ca        1 W8G      0.727200
      7 NAA         2.1670   -0.3680   -1.1800 nh        1 W8G     -0.921500
      8 CAB         0.8280    0.2550    4.4690 cc        1 W8G     -0.132100
      9 CAC        -0.3440    0.1240    3.7340 cd        1 W8G     -0.137200
     10 CAD        -4.1530    0.5630   -0.0380 c3        1 W8G     -0.017300
     11 CAE        -4.1030   -1.0230    2.1810 c3        1 W8G     -0.017300
     12 CAF        -2.6930    0.1590   -0.1940 c3        1 W8G      0.182300
     13 CAG        -2.6580   -1.2790    1.7820 c3        1 W8G      0.182300
     14 NAJ         1.9440    0.2110    3.6200 na        1 W8G     -0.290100
     15 SAK        -5.1310   -0.6490    0.7950 ss        1 W8G     -0.299200
     16 NAP        -2.0600   -0.1410    1.0860 nh        1 W8G     -0.740300
     17 HNAA        1.6500   -0.1950   -2.0110 hn        1 W8G      0.420800
     18 HNAB        3.1120   -0.0580   -1.1910 hn        1 W8G      0.420800
     19 HAB         0.9670    0.3820    5.5440 h4        1 W8G      0.169000
     20 HAC        -1.3600    0.1430    4.1190 ha        1 W8G      0.161000
     21 HADA       -4.2260    1.5420    0.4950 h1        1 W8G      0.078450
     22 HAE        -4.1570   -0.2000    2.9350 h1        1 W8G      0.078450
     23 HAEA       -4.5250   -1.9510    2.6400 h1        1 W8G      0.078450
     24 HAF        -2.6280   -0.7210   -0.8990 h1        1 W8G      0.059450
     25 HAFA       -2.1450    1.0240   -0.6660 h1        1 W8G      0.059450
     26 HAG        -2.0590   -1.4840    2.7150 h1        1 W8G      0.059450
     27 HAGA       -2.6200   -2.2050    1.1350 h1        1 W8G      0.059450
     28 HNAJ        2.8890    0.2770    3.8930 hn        1 W8G      0.310700
     29 HAD        -4.6060    0.6790   -1.0530 h1        1 W8G      0.078450
@<TRIPOS>BOND
     1    1    2 ar  
     2    1    6 ar  
     3    2    3 ar  
     4    2    7 1   
     5    3    4 ar  
     6    4    5 ar  
     7    4   14 1   
     8    5    6 ar  
     9    5    9 1   
    10    6   16 1   
    11    7   17 1   
    12    7   18 1   
    13    8    9 2   
    14    8   14 1   
    15    8   19 1   
    16    9   20 1   
    17   10   12 1   
    18   10   15 1   
    19   10   21 1   
    20   10   29 1   
    21   11   13 1   
    22   11   15 1   
    23   11   22 1   
    24   11   23 1   
    25   12   16 1   
    26   12   24 1   
    27   12   25 1   
    28   13   16 1   
    29   13   26 1   
    30   13   27 1   
    31   14   28 1   
@<TRIPOS>SUBSTRUCTURE
     1 W8G         1 TEMP              0 ****  ****    0 ROOT
