@<TRIPOS>MOLECULE
W8G
   29    31     1     0     0
SMALL
bcc


@<TRIPOS>ATOM
      1 N1          0.0800   -0.2040   -0.0510 nb        1 W8G     -0.813000
      2 C2          1.4720   -0.1210    0.0230 ca        1 W8G      0.894900
      3 N3          2.2340   -0.0450    1.1710 nb        1 W8G     -0.778000
      4 C4          1.4900    0.0210    2.3110 ca        1 W8G      0.491800
      5 C5          0.0350   -0.0130    2.3520 ca        1 W8G     -0.367400
      6 C6         -0.6330   -0.1310    1.1010 ca        1 W8G      0.729200
      7 NAA         2.1560   -0.0590   -1.2030 nv        1 W8G     -0.919500
      8 CAB         0.8310    0.1990    4.4750 cc        1 W8G     -0.132100
      9 CAC        -0.3430    0.1100    3.7360 cd        1 W8G     -0.138200
     10 CAD        -4.1510    0.6020   -0.0310 c3        1 W8G     -0.017300
     11 CAE        -4.1050   -1.0020    2.1740 c3        1 W8G     -0.017300
     12 CAF        -2.6930    0.1930   -0.1920 c3        1 W8G      0.183300
     13 CAG        -2.6610   -1.2610    1.7710 c3        1 W8G      0.183300
     14 NAJ         1.9480    0.1360    3.6270 na        1 W8G     -0.290100
     15 SAK        -5.1320   -0.6150    0.7920 ss        1 W8G     -0.300200
     16 NAP        -2.0590   -0.1220    1.0830 nh        1 W8G     -0.740300
     17 HNAA        1.6590   -0.3990   -1.9940 hn        1 W8G      0.419800
     18 HNAB        3.1220   -0.2950   -1.1730 hn        1 W8G      0.419800
     19 HAB         0.9710    0.3020    5.5520 h4        1 W8G      0.169000
     20 HAC        -1.3590    0.1470    4.1190 ha        1 W8G      0.161000
     21 HADA       -4.2190    1.5760    0.5130 h1        1 W8G      0.078950
     22 HAE        -4.1550   -0.1850    2.9340 h1        1 W8G      0.078950
     23 HAEA       -4.5300   -1.9320    2.6270 h1        1 W8G      0.078950
     24 HAF        -2.1410    1.0600   -0.6580 h1        1 W8G      0.058950
     25 HAFA       -2.6330   -0.6790   -0.9060 h1        1 W8G      0.058950
     26 HAG        -2.6270   -2.1830    1.1190 h1        1 W8G      0.058950
     27 HAGA       -2.0620   -1.4750    2.7030 h1        1 W8G      0.058950
     28 HNAJ        2.8920    0.2050    3.9000 hn        1 W8G      0.309700
     29 HAD        -4.6050    0.7310   -1.0440 h1        1 W8G      0.078950
@<TRIPOS>BOND
     1    1    2 ar  
     2    1    6 ar  
     3    2    3 ar  
     4    2    7 1   
     5    3    4 ar  
     6    4    5 ar  
     7    4   14 1   
     8    5    6 ar  
     9    5    9 1   
    10    6   16 1   
    11    7   17 1   
    12    7   18 1   
    13    8    9 2   
    14    8   14 1   
    15    8   19 1   
    16    9   20 1   
    17   10   12 1   
    18   10   15 1   
    19   10   21 1   
    20   10   29 1   
    21   11   13 1   
    22   11   15 1   
    23   11   22 1   
    24   11   23 1   
    25   12   16 1   
    26   12   24 1   
    27   12   25 1   
    28   13   16 1   
    29   13   26 1   
    30   13   27 1   
    31   14   28 1   
@<TRIPOS>SUBSTRUCTURE
     1 W8G         1 TEMP              0 ****  ****    0 ROOT
