@<TRIPOS>MOLECULE
W8L
   31    33     1     0     0
SMALL
bcc


@<TRIPOS>ATOM
      1 CAH         0.0130    0.0760   -0.0040 cc        1 W8L     -0.200200
      2 CAG         1.4510    0.0410    0.0070 ca        1 W8L      0.014200
      3 CAB         2.2020    0.2480    1.1890 ca        1 W8L     -0.088300
      4 CAA         1.5200    0.5140    2.4770 c3        1 W8L     -0.052800
      5 CAC         3.5920    0.2010    1.1300 ca        1 W8L     -0.096000
      6 CAD         4.2580   -0.0480   -0.0770 ca        1 W8L     -0.149000
      7 CAE         3.5330   -0.2510   -1.2410 ca        1 W8L     -0.068000
      8 CAF         2.1310   -0.2070   -1.2030 ca        1 W8L     -0.151600
      9 CAK         1.3720   -0.4260   -2.4480 c         1 W8L      0.707100
     10 OAL         1.8870   -0.6530   -3.5600 o         1 W8L     -0.638500
     11 NAJ        -0.0250   -0.3710   -2.3680 ns        1 W8L     -0.451100
     12 CAI        -0.6830   -0.1260   -1.1690 cd        1 W8L      0.107400
     13 CAM        -2.1560   -0.0850   -1.1820 ca        1 W8L     -0.076800
     14 CAN        -2.8470    0.6190   -2.1770 ca        1 W8L     -0.101500
     15 CAO        -4.2390    0.6630   -2.1690 ca        1 W8L     -0.125000
     16 CAP        -4.9470   -0.0030   -1.1630 ca        1 W8L      0.027400
     17 Cl         -6.6440    0.0470   -1.1510 cl        1 W8L     -0.083400
     18 CAR        -4.2660   -0.7090   -0.1650 ca        1 W8L     -0.125000
     19 CAS        -2.8740   -0.7480   -0.1780 ca        1 W8L     -0.101500
     20 HAH        -0.5250    0.2790    0.9310 ha        1 W8L      0.152000
     21 HAA1        0.8960    1.4400    2.4040 hc        1 W8L      0.045700
     22 HAA2        2.2590    0.6550    3.3040 hc        1 W8L      0.045700
     23 HAA3        0.8510   -0.3410    2.7480 hc        1 W8L      0.045700
     24 HAC         4.1820    0.3610    2.0460 ha        1 W8L      0.134000
     25 HAD         5.3570   -0.0800   -0.0970 ha        1 W8L      0.138000
     26 HAE         4.0360   -0.4480   -2.2020 ha        1 W8L      0.159000
     27 HAJ        -0.5590   -0.5330   -3.1930 hn        1 W8L      0.334500
     28 HAN        -2.2960    1.1570   -2.9640 ha        1 W8L      0.146500
     29 HAS        -2.3340   -1.3060    0.6030 ha        1 W8L      0.146500
     30 HAO        -4.7770    1.2220   -2.9510 ha        1 W8L      0.153000
     31 HAR        -4.8250   -1.2330    0.6250 ha        1 W8L      0.153000
@<TRIPOS>BOND
     1    1    2 1   
     2    1   12 2   
     3    1   20 1   
     4    2    3 ar  
     5    2    8 ar  
     6    3    4 1   
     7    3    5 ar  
     8    4   21 1   
     9    4   22 1   
    10    4   23 1   
    11    5    6 ar  
    12    5   24 1   
    13    6    7 ar  
    14    6   25 1   
    15    7    8 ar  
    16    7   26 1   
    17    8    9 1   
    18    9   10 2   
    19    9   11 1   
    20   11   12 1   
    21   11   27 1   
    22   12   13 1   
    23   13   14 ar  
    24   13   19 ar  
    25   14   15 ar  
    26   14   28 1   
    27   15   16 ar  
    28   15   30 1   
    29   16   17 1   
    30   16   18 ar  
    31   18   19 ar  
    32   18   31 1   
    33   19   29 1   
@<TRIPOS>SUBSTRUCTURE
     1 W8L         1 TEMP              0 ****  ****    0 ROOT
