@<TRIPOS>MOLECULE
W8L
   31    33     1     0     0
SMALL
bcc


@<TRIPOS>ATOM
      1 CAH         0.0140    0.0750   -0.0040 cc        1 W8L     -0.200200
      2 CAG         1.4520    0.0360    0.0040 ca        1 W8L      0.014200
      3 CAB         2.2060    0.2370    1.1850 ca        1 W8L     -0.088300
      4 CAA         1.5280    0.5010    2.4750 c3        1 W8L     -0.052800
      5 CAC         3.5960    0.1870    1.1230 ca        1 W8L     -0.096000
      6 CAD         4.2580   -0.0600   -0.0860 ca        1 W8L     -0.149000
      7 CAE         3.5310   -0.2580   -1.2500 ca        1 W8L     -0.068000
      8 CAF         2.1290   -0.2110   -1.2080 ca        1 W8L     -0.151600
      9 CAK         1.3670   -0.4230   -2.4520 c         1 W8L      0.707100
     10 OAL         1.8790   -0.6490   -3.5670 o         1 W8L     -0.638500
     11 NAJ        -0.0300   -0.3660   -2.3690 n         1 W8L     -0.451100
     12 CAI        -0.6850   -0.1220   -1.1680 cd        1 W8L      0.107400
     13 CAM        -2.1580   -0.0770   -1.1780 ca        1 W8L     -0.076800
     14 CAN        -2.8490    0.6310   -2.1700 ca        1 W8L     -0.101500
     15 CAO        -4.2410    0.6780   -2.1590 ca        1 W8L     -0.125000
     16 CAP        -4.9480    0.0120   -1.1530 ca        1 W8L      0.027400
     17 CL         -6.6450    0.0660   -1.1380 cl        1 W8L     -0.083400
     18 CAR        -4.2670   -0.6990   -0.1580 ca        1 W8L     -0.125000
     19 CAS        -2.8750   -0.7410   -0.1740 ca        1 W8L     -0.101500
     20 HAH        -0.5210    0.2760    0.9330 ha        1 W8L      0.152000
     21 HAA1        0.9050    1.4290    2.4060 hc        1 W8L      0.045700
     22 HAA2        0.8570   -0.3530    2.7440 hc        1 W8L      0.045700
     23 HAA3        2.2690    0.6370    3.3010 hc        1 W8L      0.045700
     24 HAC         4.1880    0.3430    2.0380 ha        1 W8L      0.134000
     25 HAD         5.3570   -0.0950   -0.1080 ha        1 W8L      0.138000
     26 HAE         4.0310   -0.4530   -2.2120 ha        1 W8L      0.159000
     27 HAJ        -0.5660   -0.5230   -3.1940 hn        1 W8L      0.334500
     28 HAN        -2.2980    1.1690   -2.9570 ha        1 W8L      0.146500
     29 HAS        -2.3350   -1.3030    0.6040 ha        1 W8L      0.146500
     30 HAO        -4.7790    1.2400   -2.9380 ha        1 W8L      0.153000
     31 HAR        -4.8250   -1.2240    0.6320 ha        1 W8L      0.153000
@<TRIPOS>BOND
     1    1    2 1   
     2    1   12 2   
     3    1   20 1   
     4    2    3 ar  
     5    2    8 ar  
     6    3    4 1   
     7    3    5 ar  
     8    4   21 1   
     9    4   22 1   
    10    4   23 1   
    11    5    6 ar  
    12    5   24 1   
    13    6    7 ar  
    14    6   25 1   
    15    7    8 ar  
    16    7   26 1   
    17    8    9 1   
    18    9   10 2   
    19    9   11 1   
    20   11   12 1   
    21   11   27 1   
    22   12   13 1   
    23   13   14 ar  
    24   13   19 ar  
    25   14   15 ar  
    26   14   28 1   
    27   15   16 ar  
    28   15   30 1   
    29   16   17 1   
    30   16   18 ar  
    31   18   19 ar  
    32   18   31 1   
    33   19   29 1   
@<TRIPOS>SUBSTRUCTURE
     1 W8L         1 TEMP              0 ****  ****    0 ROOT
