@<TRIPOS>MOLECULE
W8R
   54    56     1     0     0
SMALL
bcc


@<TRIPOS>ATOM
      1 O1          0.1420    0.6400    0.0570 os        1 W8R     -0.122100
      2 N2          1.4340    0.7390   -0.1800 nc        1 W8R     -0.362300
      3 C3          2.1160    0.4730    0.9540 cd        1 W8R      0.319600
      4 C31         3.5790    0.4730    1.1260 c3        1 W8R     -0.132400
      5 C4          1.1550    0.1760    2.0200 cd        1 W8R     -0.364600
      6 C5         -0.0790    0.2930    1.4150 cc        1 W8R      0.265000
      7 C1C        -1.4740    0.1310    1.8420 c3        1 W8R     -0.117700
      8 C2C        -2.1970    1.4640    1.9220 c3        1 W8R     -0.078400
      9 C3C        -3.6440    1.2660    2.3220 c3        1 W8R     -0.079400
     10 C4C        -4.3680    2.5920    2.4160 c3        1 W8R     -0.078400
     11 C5C        -5.8160    2.3970    2.8110 c3        1 W8R     -0.078400
     12 C6C        -6.5340    3.7250    2.9090 c3        1 W8R     -0.086400
     13 C7C        -7.9850    3.5090    3.3030 c3        1 W8R      0.128400
     14 O1B        -8.5650    4.8190    3.3800 os        1 W8R     -0.327900
     15 C1B        -9.8970    4.8710    3.7270 ca        1 W8R      0.153100
     16 C2B       -10.4360    6.1730    3.7930 ca        1 W8R     -0.198000
     17 C3B       -11.7700    6.3400    4.1340 ca        1 W8R     -0.049500
     18 C4B       -12.5780    5.2240    4.4120 ca        1 W8R     -0.168900
     19 C5B       -12.0340    3.9360    4.3440 ca        1 W8R     -0.049500
     20 C6B       -10.6950    3.7540    4.0020 ca        1 W8R     -0.198000
     21 C2A       -13.9810    5.4090    4.7700 ce        1 W8R      0.642200
     22 N3A       -14.8890    4.5190    5.0760 n2        1 W8R     -0.634900
     23 C4A       -16.1450    5.2200    5.3750 c3        1 W8R      0.089500
     24 CM1       -17.3190    4.7900    4.5150 c3        1 W8R     -0.086100
     25 C5A       -15.8160    6.7320    5.1760 c3        1 W8R      0.089400
     26 O1A       -14.4210    6.7530    4.7980 os        1 W8R     -0.458400
     27 H311        3.8630    1.2230    1.9070 hc        1 W8R      0.057367
     28 H312        4.1130    0.7280    0.1770 hc        1 W8R      0.057367
     29 H313        3.9150   -0.5390    1.4640 hc        1 W8R      0.057367
     30 H4          1.3980   -0.0760    3.0460 ha        1 W8R      0.173000
     31 H1C1       -2.0070   -0.5400    1.1130 hc        1 W8R      0.066700
     32 H1C2       -1.4870   -0.3720    2.8460 hc        1 W8R      0.066700
     33 H2C1       -1.6850    2.1270    2.6670 hc        1 W8R      0.053700
     34 H2C2       -2.1430    1.9760    0.9250 hc        1 W8R      0.053700
     35 H3C1       -3.6930    0.7390    3.3120 hc        1 W8R      0.041200
     36 H3C2       -4.1570    0.6090    1.5710 hc        1 W8R      0.041200
     37 H4C1       -4.3150    3.1200    1.4280 hc        1 W8R      0.045200
     38 H4C2       -3.8570    3.2480    3.1700 hc        1 W8R      0.045200
     39 H5C1       -6.3280    1.7460    2.0540 hc        1 W8R      0.041700
     40 H5C2       -5.8690    1.8640    3.7970 hc        1 W8R      0.041700
     41 H6C1       -6.4910    4.2640    1.9270 hc        1 W8R      0.059200
     42 H6C2       -6.0350    4.3810    3.6690 hc        1 W8R      0.059200
     43 H7C1       -8.0630    3.0070    4.3030 h1        1 W8R      0.041200
     44 H7C2       -8.5290    2.9040    2.5320 h1        1 W8R      0.041200
     45 H2B        -9.7920    7.0360    3.5720 ha        1 W8R      0.147500
     46 H3B       -12.2030    7.3520    4.1890 ha        1 W8R      0.156500
     47 H5B       -12.6620    3.0570    4.5600 ha        1 W8R      0.156500
     48 H6B       -10.2850    2.7360    3.9540 ha        1 W8R      0.147500
     49 H4A       -16.3960    5.0200    6.4560 h1        1 W8R      0.073700
     50 HM11      -17.5220    3.7000    4.6480 hc        1 W8R      0.044367
     51 HM12      -18.2250    5.3650    4.8220 hc        1 W8R      0.044367
     52 HM13      -17.1210    4.9840    3.4340 hc        1 W8R      0.044367
     53 H5A1      -16.3920    7.1990    4.3420 h1        1 W8R      0.062700
     54 H5A2      -15.9110    7.3240    6.1160 h1        1 W8R      0.062700
@<TRIPOS>BOND
     1    1    2 1   
     2    1    6 1   
     3    2    3 2   
     4    3    4 1   
     5    3    5 1   
     6    4   27 1   
     7    4   28 1   
     8    4   29 1   
     9    5    6 2   
    10    5   30 1   
    11    6    7 1   
    12    7    8 1   
    13    7   31 1   
    14    7   32 1   
    15    8    9 1   
    16    8   33 1   
    17    8   34 1   
    18    9   10 1   
    19    9   35 1   
    20    9   36 1   
    21   10   11 1   
    22   10   37 1   
    23   10   38 1   
    24   11   12 1   
    25   11   39 1   
    26   11   40 1   
    27   12   13 1   
    28   12   41 1   
    29   12   42 1   
    30   13   14 1   
    31   13   43 1   
    32   13   44 1   
    33   14   15 1   
    34   15   16 ar  
    35   15   20 ar  
    36   16   17 ar  
    37   16   45 1   
    38   17   18 ar  
    39   17   46 1   
    40   18   19 ar  
    41   18   21 1   
    42   19   20 ar  
    43   19   47 1   
    44   20   48 1   
    45   21   22 2   
    46   21   26 1   
    47   22   23 1   
    48   23   24 1   
    49   23   25 1   
    50   23   49 1   
    51   24   50 1   
    52   24   51 1   
    53   24   52 1   
    54   25   26 1   
    55   25   53 1   
    56   25   54 1   
@<TRIPOS>SUBSTRUCTURE
     1 W8R         1 TEMP              0 ****  ****    0 ROOT
