@<TRIPOS>MOLECULE
W8R
   54    56     1     0     0
SMALL
bcc


@<TRIPOS>ATOM
      1 O1          0.1440    0.6660    0.0500 os        1 W8R     -0.122100
      2 N2          1.4370    0.7640   -0.1810 nc        1 W8R     -0.362300
      3 C3          2.1140    0.4800    0.9520 cd        1 W8R      0.319600
      4 C31         3.5770    0.4730    1.1290 c3        1 W8R     -0.132400
      5 C4          1.1490    0.1700    2.0100 cd        1 W8R     -0.364600
      6 C5         -0.0830    0.2980    1.4020 cc        1 W8R      0.265000
      7 C1C        -1.4800    0.1340    1.8210 c3        1 W8R     -0.117700
      8 C2C        -2.2000    1.4670    1.9190 c3        1 W8R     -0.078400
      9 C3C        -3.6480    1.2670    2.3110 c3        1 W8R     -0.079400
     10 C4C        -4.3690    2.5940    2.4220 c3        1 W8R     -0.078400
     11 C5C        -5.8200    2.3970    2.8070 c3        1 W8R     -0.078400
     12 C6C        -6.5340    3.7250    2.9240 c3        1 W8R     -0.086400
     13 C7C        -7.9870    3.5080    3.3080 c3        1 W8R      0.128400
     14 O1B        -8.5640    4.8170    3.4020 os        1 W8R     -0.327900
     15 C1B        -9.8980    4.8680    3.7420 ca        1 W8R      0.153100
     16 C2B       -10.4340    6.1700    3.8250 ca        1 W8R     -0.198000
     17 C3B       -11.7690    6.3350    4.1620 ca        1 W8R     -0.049500
     18 C4B       -12.5820    5.2180    4.4180 ca        1 W8R     -0.168900
     19 C5B       -12.0410    3.9300    4.3340 ca        1 W8R     -0.049500
     20 C6B       -10.7000    3.7490    3.9970 ca        1 W8R     -0.198000
     21 C2A       -13.9860    5.4010    4.7710 ce        1 W8R      0.642200
     22 N3A       -14.8980    4.5100    5.0590 n2        1 W8R     -0.634900
     23 C4A       -16.1540    5.2090    5.3620 c3        1 W8R      0.089500
     24 CM1       -17.3240    4.7950    4.4890 c3        1 W8R     -0.086100
     25 C5A       -15.8190    6.7230    5.1880 c3        1 W8R      0.089400
     26 O1A       -14.4220    6.7460    4.8180 os        1 W8R     -0.458400
     27 H311        4.1150    0.7420    0.1860 hc        1 W8R      0.057367
     28 H312        3.8590    1.2090    1.9230 hc        1 W8R      0.057367
     29 H313        3.9090   -0.5450    1.4520 hc        1 W8R      0.057367
     30 H4          1.3870   -0.0980    3.0320 ha        1 W8R      0.173000
     31 H1C1       -2.0120   -0.5240    1.0810 hc        1 W8R      0.066700
     32 H1C2       -1.4980   -0.3850    2.8170 hc        1 W8R      0.066700
     33 H2C1       -1.6890    2.1180    2.6760 hc        1 W8R      0.053700
     34 H2C2       -2.1400    1.9940    0.9300 hc        1 W8R      0.053700
     35 H3C1       -4.1600    0.6240    1.5470 hc        1 W8R      0.041200
     36 H3C2       -3.7030    0.7250    3.2920 hc        1 W8R      0.041200
     37 H4C1       -4.3100    3.1380    1.4420 hc        1 W8R      0.045200
     38 H4C2       -3.8600    3.2360    3.1880 hc        1 W8R      0.045200
     39 H5C1       -6.3300    1.7590    2.0380 hc        1 W8R      0.041700
     40 H5C2       -5.8780    1.8490    3.7850 hc        1 W8R      0.041700
     41 H6C1       -6.4850    4.2800    1.9500 hc        1 W8R      0.059200
     42 H6C2       -6.0370    4.3680    3.6970 hc        1 W8R      0.059200
     43 H7C1       -8.5290    2.9160    2.5240 h1        1 W8R      0.041200
     44 H7C2       -8.0710    2.9900    4.2990 h1        1 W8R      0.041200
     45 H2B        -9.7870    7.0340    3.6210 ha        1 W8R      0.147500
     46 H3B       -12.2000    7.3480    4.2290 ha        1 W8R      0.156500
     47 H5B       -12.6720    3.0490    4.5330 ha        1 W8R      0.156500
     48 H6B       -10.2930    2.7310    3.9350 ha        1 W8R      0.147500
     49 H4A       -16.4110    4.9940    6.4380 h1        1 W8R      0.073700
     50 HM11      -17.5300    3.7040    4.6050 hc        1 W8R      0.044367
     51 HM12      -18.2300    5.3680    4.8010 hc        1 W8R      0.044367
     52 HM13      -17.1200    5.0050    3.4120 hc        1 W8R      0.044367
     53 H5A1      -15.9180    7.3010    6.1360 h1        1 W8R      0.062700
     54 H5A2      -16.3900    7.2040    4.3580 h1        1 W8R      0.062700
@<TRIPOS>BOND
     1    1    2 1   
     2    1    6 1   
     3    2    3 2   
     4    3    4 1   
     5    3    5 1   
     6    4   27 1   
     7    4   28 1   
     8    4   29 1   
     9    5    6 2   
    10    5   30 1   
    11    6    7 1   
    12    7    8 1   
    13    7   31 1   
    14    7   32 1   
    15    8    9 1   
    16    8   33 1   
    17    8   34 1   
    18    9   10 1   
    19    9   35 1   
    20    9   36 1   
    21   10   11 1   
    22   10   37 1   
    23   10   38 1   
    24   11   12 1   
    25   11   39 1   
    26   11   40 1   
    27   12   13 1   
    28   12   41 1   
    29   12   42 1   
    30   13   14 1   
    31   13   43 1   
    32   13   44 1   
    33   14   15 1   
    34   15   16 ar  
    35   15   20 ar  
    36   16   17 ar  
    37   16   45 1   
    38   17   18 ar  
    39   17   46 1   
    40   18   19 ar  
    41   18   21 1   
    42   19   20 ar  
    43   19   47 1   
    44   20   48 1   
    45   21   22 2   
    46   21   26 1   
    47   22   23 1   
    48   23   24 1   
    49   23   25 1   
    50   23   49 1   
    51   24   50 1   
    52   24   51 1   
    53   24   52 1   
    54   25   26 1   
    55   25   53 1   
    56   25   54 1   
@<TRIPOS>SUBSTRUCTURE
     1 W8R         1 TEMP              0 ****  ****    0 ROOT
