@<TRIPOS>MOLECULE
W8R
   54    56     1     0     0
SMALL
bcc


@<TRIPOS>ATOM
      1 O1          0.0540    1.1590    8.4310 os        1 W8R     -0.122100
      2 N2         -0.4750    1.1450    9.6380 nc        1 W8R     -0.362300
      3 C3         -0.5080   -0.1240   10.0950 cd        1 W8R      0.319600
      4 C31        -1.0200   -0.5810   11.3990 c3        1 W8R     -0.132400
      5 C4          0.0590   -1.0060    9.0710 cd        1 W8R     -0.364600
      6 C5          0.4010   -0.1590    8.0370 cc        1 W8R      0.265000
      7 C1C         1.0170   -0.3180    6.7140 c3        1 W8R     -0.117700
      8 C2C         0.0140   -0.0990    5.5950 c3        1 W8R     -0.078400
      9 C3C         0.6830   -0.2250    4.2430 c3        1 W8R     -0.079400
     10 C4C        -0.3140   -0.0200    3.1230 c3        1 W8R     -0.078400
     11 C5C         0.3530   -0.1400    1.7690 c3        1 W8R     -0.078400
     12 C6C        -0.6480    0.0600    0.6530 c3        1 W8R     -0.086400
     13 C7C         0.0390   -0.0610   -0.6960 c3        1 W8R      0.128400
     14 O1B        -0.9910    0.1310   -1.6760 os        1 W8R     -0.327900
     15 C1B        -0.5950    0.0640   -2.9930 ca        1 W8R      0.153100
     16 C2B        -1.6310    0.2580   -3.9290 ca        1 W8R     -0.198000
     17 C3B        -1.3400    0.2100   -5.2840 ca        1 W8R     -0.049500
     18 C4B        -0.0270   -0.0280   -5.7220 ca        1 W8R     -0.168900
     19 C5B         0.9960   -0.2190   -4.7850 ca        1 W8R     -0.049500
     20 C6B         0.7180   -0.1740   -3.4210 ca        1 W8R     -0.198000
     21 C2A         0.2700   -0.0760   -7.1510 ce        1 W8R      0.642200
     22 N3A         1.4060   -0.2960   -7.7610 n2        1 W8R     -0.634900
     23 C4A         1.1710   -0.2560   -9.2100 c3        1 W8R      0.089500
     24 CM1         2.0140    0.7650   -9.9510 c3        1 W8R     -0.086100
     25 C5A        -0.3520    0.0470   -9.3590 c3        1 W8R      0.089400
     26 O1A        -0.8390    0.1390   -8.0010 os        1 W8R     -0.458400
     27 H311       -1.8500   -1.3140   11.2370 hc        1 W8R      0.057367
     28 H312       -0.1990   -1.0890   11.9640 hc        1 W8R      0.057367
     29 H313       -1.4080    0.2670   12.0170 hc        1 W8R      0.057367
     30 H4          0.1690   -2.0810    9.1460 ha        1 W8R      0.173000
     31 H1C1        1.4520   -1.3510    6.6410 hc        1 W8R      0.066700
     32 H1C2        1.8600    0.4190    6.6100 hc        1 W8R      0.066700
     33 H2C1       -0.4440    0.9190    5.7020 hc        1 W8R      0.053700
     34 H2C2       -0.8150   -0.8490    5.6790 hc        1 W8R      0.053700
     35 H3C1        1.1540   -1.2390    4.1470 hc        1 W8R      0.041200
     36 H3C2        1.5060    0.5320    4.1570 hc        1 W8R      0.041200
     37 H4C1       -0.7880    0.9920    3.2210 hc        1 W8R      0.045200
     38 H4C2       -1.1360   -0.7800    3.2050 hc        1 W8R      0.045200
     39 H5C1        0.8310   -1.1500    1.6730 hc        1 W8R      0.041700
     40 H5C2        1.1710    0.6240    1.6840 hc        1 W8R      0.041700
     41 H6C1       -1.1290    1.0690    0.7370 hc        1 W8R      0.059200
     42 H6C2       -1.4660   -0.7040    0.7230 hc        1 W8R      0.059200
     43 H7C1        0.4970   -1.0760   -0.8290 h1        1 W8R      0.041200
     44 H7C2        0.8260    0.7280   -0.8220 h1        1 W8R      0.041200
     45 H2B        -2.6540    0.4440   -3.5720 ha        1 W8R      0.147500
     46 H3B        -2.1420    0.3600   -6.0260 ha        1 W8R      0.156500
     47 H5B         2.0280   -0.4060   -5.1220 ha        1 W8R      0.156500
     48 H6B         1.5320   -0.3260   -2.6990 ha        1 W8R      0.147500
     49 H4A         1.4010   -1.2810   -9.6190 h1        1 W8R      0.073700
     50 HM11        3.1010    0.5500   -9.8090 hc        1 W8R      0.044367
     51 HM12        1.7760    0.7130  -11.0400 hc        1 W8R      0.044367
     52 HM13        1.8080    1.8000   -9.5880 hc        1 W8R      0.044367
     53 H5A1       -0.5570    1.0270   -9.8520 h1        1 W8R      0.062700
     54 H5A2       -0.9130   -0.7810   -9.8540 h1        1 W8R      0.062700
@<TRIPOS>BOND
     1    1    2 1   
     2    1    6 1   
     3    2    3 2   
     4    3    4 1   
     5    3    5 1   
     6    4   27 1   
     7    4   28 1   
     8    4   29 1   
     9    5    6 2   
    10    5   30 1   
    11    6    7 1   
    12    7    8 1   
    13    7   31 1   
    14    7   32 1   
    15    8    9 1   
    16    8   33 1   
    17    8   34 1   
    18    9   10 1   
    19    9   35 1   
    20    9   36 1   
    21   10   11 1   
    22   10   37 1   
    23   10   38 1   
    24   11   12 1   
    25   11   39 1   
    26   11   40 1   
    27   12   13 1   
    28   12   41 1   
    29   12   42 1   
    30   13   14 1   
    31   13   43 1   
    32   13   44 1   
    33   14   15 1   
    34   15   16 ar  
    35   15   20 ar  
    36   16   17 ar  
    37   16   45 1   
    38   17   18 ar  
    39   17   46 1   
    40   18   19 ar  
    41   18   21 1   
    42   19   20 ar  
    43   19   47 1   
    44   20   48 1   
    45   21   22 2   
    46   21   26 1   
    47   22   23 1   
    48   23   24 1   
    49   23   25 1   
    50   23   49 1   
    51   24   50 1   
    52   24   51 1   
    53   24   52 1   
    54   25   26 1   
    55   25   53 1   
    56   25   54 1   
@<TRIPOS>SUBSTRUCTURE
     1 W8R         1 TEMP              0 ****  ****    0 ROOT
