@<TRIPOS>MOLECULE
W8R
   54    50     1     0     0
SMALL
bcc


@<TRIPOS>ATOM
      1 O1         -0.4780    7.6710   -0.5460 os        1 W8R     -0.067000
      2 N2         -1.1480    8.8860   -0.6450 n2        1 W8R     -0.027000
      3 C3         -1.1130    9.4810    0.5650 c1        1 W8R     -0.102000
      4 C31        -1.7510   10.8060    0.9230 c2        1 W8R     -0.156000
      5 C4         -0.4260    8.6520    1.4280 c1        1 W8R     -0.235000
      6 C5         -0.0400    7.5370    0.7270 c1        1 W8R     -0.022000
      7 C1C         0.7730    6.3810    1.2710 c2        1 W8R     -0.105000
      8 C2C         0.6480    5.1930    0.3400 c3        1 W8R     -0.155000
      9 C3C         0.1990    3.9790    1.1280 c3        1 W8R     -0.159000
     10 C4C         0.2520    2.7510    0.2400 c3        1 W8R     -0.157000
     11 C5C         0.7610    1.5680    1.0400 c3        1 W8R     -0.157000
     12 C6C        -0.0270    0.3280    0.6670 c3        1 W8R     -0.165000
     13 C7C         0.8940   -0.8770    0.6720 c3        1 W8R     -0.022000
     14 O1B         0.2670   -1.9460    1.3500 os        1 W8R     -0.211000
     15 C1B         0.2120   -3.1410    0.6040 c2        1 W8R      0.107000
     16 C2B        -1.0150   -3.6650    0.2270 c2        1 W8R     -0.174000
     17 C3B        -1.0760   -4.8850   -0.4300 c1        1 W8R     -0.051000
     18 C4B         0.0910   -5.5820   -0.7090 c1        1 W8R     -0.085000
     19 C5B         1.3180   -5.0580   -0.3320 c1        1 W8R     -0.048000
     20 C6B         1.3790   -3.8370    0.3250 c1        1 W8R     -0.221000
     21 C2A         0.0300   -6.8780   -1.4930 c2        1 W8R      0.137000
     22 N3A        -0.3420   -8.0300   -0.8740 n1        1 W8R     -0.220000
     23 C4A        -0.6520   -9.0610   -1.7530 c2        1 W8R     -0.075000
     24 CM1         0.2130  -10.2410   -1.4810 c3        1 W8R     -0.204000
     25 C5A        -0.3770   -8.3510   -3.0970 c3        1 W8R     -0.061000
     26 O1A        -0.2420   -6.8580   -2.7220 os        1 W8R     -0.255000
     27 H311       -2.2810   10.7030    1.7420 ha        1 W8R      0.096667
     28 H312       -1.0510   11.4760    1.0690 ha        1 W8R      0.096667
     29 H313       -2.3340   11.0960    0.1920 ha        1 W8R      0.096667
     30 H4         -0.2470    8.8280    2.3720 DU        1 W8R      0.173000
     31 H1C1        0.4400    6.1370    2.1580 ha        1 W8R      0.110000
     32 H1C2        1.7130    6.6460    1.3370 ha        1 W8R      0.110000
     33 H2C1        1.5150    5.0100   -0.0750 hc        1 W8R      0.088500
     34 H2C2       -0.0110    5.3920   -0.3560 hc        1 W8R      0.088500
     35 H3C1       -0.7170    4.1140    1.4420 hc        1 W8R      0.082000
     36 H3C2        0.7910    3.8510    1.8970 hc        1 W8R      0.082000
     37 H4C1        0.8540    2.9190   -0.5140 hc        1 W8R      0.083500
     38 H4C2       -0.6450    2.5540   -0.0980 hc        1 W8R      0.083500
     39 H5C1        1.7090    1.4250    0.8430 hc        1 W8R      0.081500
     40 H5C2        0.6510    1.7500    1.9950 hc        1 W8R      0.081500
     41 H6C1       -0.7470    0.1910    1.3150 hc        1 W8R      0.098500
     42 H6C2       -0.4100    0.4410   -0.2260 hc        1 W8R      0.098500
     43 H7C1        1.7300   -0.6470    1.1290 h1        1 W8R      0.081000
     44 H7C2        1.0880   -1.1440   -0.2490 h1        1 W8R      0.081000
     45 H2B        -1.8360   -3.1740    0.4230 ha        1 W8R      0.154000
     46 H3B        -1.9380   -5.2540   -0.6950 ha        1 W8R      0.159000
     47 H5B         2.1400   -5.5490   -0.5280 ha        1 W8R      0.154000
     48 H6B         2.2420   -3.4690    0.5890 ha        1 W8R      0.141000
     49 H4A        -1.5460   -9.4560   -1.7220 ha        1 W8R      0.113000
     50 HM11        1.1510   -9.9590   -1.4550 hc        1 W8R      0.084000
     51 HM12       -0.0340  -10.6350   -0.6180 hc        1 W8R      0.084000
     52 HM13        0.0910  -10.9060   -2.1910 hc        1 W8R      0.084000
     53 H5A1        0.4550   -8.6810   -3.4930 h1        1 W8R      0.102000
     54 H5A2       -1.1250   -8.4830   -3.7120 h1        1 W8R      0.102000
@<TRIPOS>BOND
     1    1    2 1   
     2    1    6 1   
     3    2    3 1   
     4    3    5 1   
     5    4   27 1   
     6    4   28 1   
     7    4   29 1   
     8    5    6 1   
     9    7    8 1   
    10    7   31 1   
    11    7   32 1   
    12    8    9 1   
    13    8   33 1   
    14    8   34 1   
    15    9   10 1   
    16    9   35 1   
    17    9   36 1   
    18   10   11 1   
    19   10   37 1   
    20   10   38 1   
    21   11   12 1   
    22   11   39 1   
    23   11   40 1   
    24   12   13 1   
    25   12   41 1   
    26   12   42 1   
    27   13   14 1   
    28   13   43 1   
    29   13   44 1   
    30   14   15 1   
    31   15   16 1   
    32   15   20 1   
    33   16   17 1   
    34   16   45 1   
    35   17   46 1   
    36   18   19 1   
    37   18   21 1   
    38   19   47 1   
    39   20   48 1   
    40   21   22 1   
    41   21   26 1   
    42   23   24 1   
    43   23   25 1   
    44   23   49 1   
    45   24   50 1   
    46   24   51 1   
    47   24   52 1   
    48   25   26 1   
    49   25   53 1   
    50   25   54 1   
@<TRIPOS>SUBSTRUCTURE
     1 W8R         1 TEMP              0 ****  ****    0 ROOT
