@<TRIPOS>MOLECULE
W8X
   36    37     1     0     0
SMALL
bcc


@<TRIPOS>ATOM
      1 O23         1.7550    1.5030    0.8170 o         1 W8X     -0.483000
      2 C21         2.7880    1.0030    0.3730 c         1 W8X      0.629100
      3 O22         3.6000    0.4470    1.3080 oh        1 W8X     -0.568100
      4 C20         3.1570    0.9770   -1.0900 c3        1 W8X      0.031400
      5 O19         4.5420    0.6240   -1.1710 os        1 W8X     -0.356900
      6 C12         4.9480    0.0460   -2.3630 ca        1 W8X      0.154100
      7 C15         4.3150    0.3530   -3.5760 ca        1 W8X     -0.197000
      8 C17         4.7950   -0.2190   -4.7560 ca        1 W8X      0.065400
      9 CL1         4.0370    0.1510   -6.2280 cl        1 W8X     -0.068400
     10 C16         5.8880   -1.0910   -4.7350 ca        1 W8X     -0.153000
     11 C14         6.5050   -1.3850   -3.5230 ca        1 W8X     -0.046000
     12 C13         6.0550   -0.8210   -2.3210 ca        1 W8X     -0.162600
     13 C10         6.7880   -1.2180   -1.0820 c         1 W8X      0.673700
     14 O11         7.2430   -2.3760   -0.9630 o         1 W8X     -0.603100
     15 N9          6.9420   -0.2810   -0.0770 n         1 W8X     -0.553900
     16 C8          7.7790   -0.5260    1.0670 c3        1 W8X      0.128300
     17 C2          9.2100   -0.0950    0.9040 ca        1 W8X     -0.113300
     18 C3          9.6920    1.0390    1.5620 ca        1 W8X     -0.116500
     19 C5         11.0280    1.4150    1.4270 ca        1 W8X     -0.106500
     20 C6         11.8890    0.6580    0.6280 ca        1 W8X     -0.020900
     21 BR7        13.6820    1.1630    0.4430 br        1 W8X     -0.086100
     22 C4         11.4100   -0.4780   -0.0330 ca        1 W8X     -0.106500
     23 C1         10.0750   -0.8510    0.1060 ca        1 W8X     -0.116500
     24 H2          3.0170    1.9990   -1.5340 h1        1 W8X      0.089700
     25 H3          2.5120    0.2290   -1.6230 h1        1 W8X      0.089700
     26 H4          3.4580    1.0420   -3.6020 ha        1 W8X      0.159000
     27 H5          6.2580   -1.5460   -5.6670 ha        1 W8X      0.161000
     28 H6          7.3570   -2.0860   -3.4910 ha        1 W8X      0.169000
     29 H7          4.3860    0.0580    0.8930 ho        1 W8X      0.450000
     30 H8          7.7620   -1.6350    1.2900 h1        1 W8X      0.074200
     31 H9          7.3210    0.0200    1.9420 h1        1 W8X      0.074200
     32 H10         9.0200    1.6390    2.1950 ha        1 W8X      0.147500
     33 H11        11.3960    2.3090    1.9540 ha        1 W8X      0.148500
     34 H12        12.0810   -1.0830   -0.6620 ha        1 W8X      0.148500
     35 H13         9.6910   -1.7480   -0.4090 ha        1 W8X      0.147500
     36 H92         6.7160    0.6650   -0.2810 hn        1 W8X      0.317500
@<TRIPOS>BOND
     1    1    2 2   
     2    2    3 1   
     3    2    4 1   
     4    3   29 1   
     5    4    5 1   
     6    4   24 1   
     7    4   25 1   
     8    5    6 1   
     9    6    7 ar  
    10    6   12 ar  
    11    7    8 ar  
    12    7   26 1   
    13    8    9 1   
    14    8   10 ar  
    15   10   11 ar  
    16   10   27 1   
    17   11   12 ar  
    18   11   28 1   
    19   12   13 1   
    20   13   14 2   
    21   13   15 1   
    22   15   16 1   
    23   15   36 1   
    24   16   17 1   
    25   16   30 1   
    26   16   31 1   
    27   17   18 ar  
    28   17   23 ar  
    29   18   19 ar  
    30   18   32 1   
    31   19   20 ar  
    32   19   33 1   
    33   20   21 1   
    34   20   22 ar  
    35   22   23 ar  
    36   22   34 1   
    37   23   35 1   
@<TRIPOS>SUBSTRUCTURE
     1 W8X         1 TEMP              0 ****  ****    0 ROOT
