@<TRIPOS>MOLECULE
W8X
   36    37     1     0     0
SMALL
bcc


@<TRIPOS>ATOM
      1 O23         1.7660    1.6720    0.6950 o         1 W8X     -0.483000
      2 C21         2.7940    1.1360    0.2810 c         1 W8X      0.629100
      3 O22         3.5800    0.5910    1.2440 oh        1 W8X     -0.568100
      4 C20         3.1830    1.0570   -1.1750 c3        1 W8X      0.031400
      5 O19         4.5610    0.6710   -1.2240 os        1 W8X     -0.356900
      6 C12         4.9700    0.0490   -2.3920 ca        1 W8X      0.154100
      7 C15         4.3620    0.3330   -3.6230 ca        1 W8X     -0.197000
      8 C17         4.8450   -0.2860   -4.7790 ca        1 W8X      0.065400
      9 CL1         4.1170    0.0570   -6.2720 cl        1 W8X     -0.068400
     10 C16         5.9170   -1.1820   -4.7150 ca        1 W8X     -0.153000
     11 C14         6.5100   -1.4530   -3.4850 ca        1 W8X     -0.046000
     12 C13         6.0560   -0.8420   -2.3080 ca        1 W8X     -0.162600
     13 C10         6.7620   -1.2190   -1.0470 c         1 W8X      0.673700
     14 O11         7.1870   -2.3820   -0.8860 o         1 W8X     -0.603100
     15 N9          6.9240   -0.2550   -0.0690 n         1 W8X     -0.553900
     16 C8          7.7390   -0.4840    1.0950 c3        1 W8X      0.128300
     17 C2          9.1820   -0.0930    0.9390 ca        1 W8X     -0.113300
     18 C3          9.6820    1.0500    1.5680 ca        1 W8X     -0.116500
     19 C5         11.0290    1.3890    1.4410 ca        1 W8X     -0.106500
     20 C6         11.8820    0.5850    0.6790 ca        1 W8X     -0.020900
     21 BR7        13.6900    1.0410    0.5050 br        1 W8X     -0.086100
     22 C4         11.3850   -0.5590    0.0480 ca        1 W8X     -0.106500
     23 C1         10.0390   -0.8960    0.1790 ca        1 W8X     -0.116500
     24 H2          3.0730    2.0680   -1.6500 h1        1 W8X      0.089700
     25 H3          2.5290    0.3090   -1.6950 h1        1 W8X      0.089700
     26 H4          3.5220    1.0400   -3.6830 ha        1 W8X      0.159000
     27 H5          6.2890   -1.6730   -5.6270 ha        1 W8X      0.161000
     28 H6          7.3440   -2.1730   -3.4190 ha        1 W8X      0.169000
     29 H7          6.7240    0.6900   -0.3050 hn        1 W8X      0.317500
     30 H8          7.2820    0.1000    1.9450 h1        1 W8X      0.074200
     31 H9          7.6910   -1.5840    1.3510 h1        1 W8X      0.074200
     32 H10         9.0170    1.6860    2.1710 ha        1 W8X      0.147500
     33 H11        11.4120    2.2900    1.9440 ha        1 W8X      0.148500
     34 H12        12.0500   -1.2000   -0.5520 ha        1 W8X      0.148500
     35 H13         9.6400   -1.7990   -0.3130 ha        1 W8X      0.147500
     36 H92         4.3630    0.1710    0.8530 ho        1 W8X      0.450000
@<TRIPOS>BOND
     1    1    2 2   
     2    2    3 1   
     3    2    4 1   
     4    3   36 1   
     5    4    5 1   
     6    4   24 1   
     7    4   25 1   
     8    5    6 1   
     9    6    7 ar  
    10    6   12 ar  
    11    7    8 ar  
    12    7   26 1   
    13    8    9 1   
    14    8   10 ar  
    15   10   11 ar  
    16   10   27 1   
    17   11   12 ar  
    18   11   28 1   
    19   12   13 1   
    20   13   14 2   
    21   13   15 1   
    22   15   16 1   
    23   15   29 1   
    24   16   17 1   
    25   16   30 1   
    26   16   31 1   
    27   17   18 ar  
    28   17   23 ar  
    29   18   19 ar  
    30   18   32 1   
    31   19   20 ar  
    32   19   33 1   
    33   20   21 1   
    34   20   22 ar  
    35   22   23 ar  
    36   22   34 1   
    37   23   35 1   
@<TRIPOS>SUBSTRUCTURE
     1 W8X         1 TEMP              0 ****  ****    0 ROOT
