@<TRIPOS>MOLECULE
W8X
   36    37     1     0     0
SMALL
bcc


@<TRIPOS>ATOM
      1 O23         1.6090    2.1740   -0.4370 o         1 W8X     -0.478000
      2 C21         2.7960    1.9110   -0.6270 c         1 W8X      0.597100
      3 O22         3.5670    2.9840   -0.9540 oh        1 W8X     -0.572100
      4 C20         3.4110    0.5380   -0.5150 c3        1 W8X      0.033400
      5 O19         4.7830    0.5620   -0.9110 os        1 W8X     -0.355900
      6 C12         5.0290    0.1280   -2.2100 ca        1 W8X      0.117100
      7 C15         4.3450    0.7190   -3.2820 ca        1 W8X     -0.181000
      8 C17         4.6600    0.3340   -4.5850 ca        1 W8X      0.057400
      9 Cl1         3.8450    1.0470   -5.8890 cl        1 W8X     -0.064400
     10 C16         5.6420   -0.6360   -4.8220 ca        1 W8X     -0.140000
     11 C14         6.3070   -1.2180   -3.7470 ca        1 W8X     -0.056000
     12 C13         6.0160   -0.8480   -2.4250 ca        1 W8X     -0.142600
     13 C10         6.7750   -1.5560   -1.3500 c         1 W8X      0.678700
     14 O11         7.0890   -2.7570   -1.4900 o         1 W8X     -0.608100
     15 N9          7.1230   -0.8490   -0.2210 ns        1 W8X     -0.554900
     16 C8          7.9640   -1.4000    0.8060 c3        1 W8X      0.132300
     17 C2          9.2800   -0.6880    0.9550 ca        1 W8X     -0.103300
     18 C3          9.3260    0.5910    1.5180 ca        1 W8X     -0.117500
     19 C5         10.5440    1.2470    1.6790 ca        1 W8X     -0.104000
     20 C6         11.7300    0.6250    1.2750 ca        1 W8X     -0.021900
     21 Br7        13.3690    1.5030    1.4900 br        1 W8X     -0.084100
     22 C4         11.6880   -0.6530    0.7100 ca        1 W8X     -0.104000
     23 C1         10.4660   -1.3050    0.5490 ca        1 W8X     -0.117500
     24 H2          2.8110   -0.1980   -1.1090 h1        1 W8X      0.104700
     25 H3          3.4360    0.2320    0.5680 h1        1 W8X      0.104700
     26 H4          3.5730    1.4810   -3.0850 ha        1 W8X      0.164000
     27 H5          5.8850   -0.9420   -5.8510 ha        1 W8X      0.161000
     28 H6          7.0670   -1.9990   -3.9210 ha        1 W8X      0.170000
     29 H7          4.4910    2.7080   -1.0630 ho        1 W8X      0.441000
     30 H8          8.1440   -2.4930    0.5850 h1        1 W8X      0.071700
     31 H9          7.4100   -1.3290    1.7890 h1        1 W8X      0.071700
     32 H10         8.3960    1.0810    1.8420 ha        1 W8X      0.141000
     33 H11        10.5660    2.2530    2.1250 ha        1 W8X      0.149000
     34 H12        12.6160   -1.1520    0.3880 ha        1 W8X      0.149000
     35 H13        10.4390   -2.3100    0.0990 ha        1 W8X      0.141000
     36 H92         6.8970    0.1160   -0.1620 hn        1 W8X      0.321500
@<TRIPOS>BOND
     1    1    2 2   
     2    2    3 1   
     3    2    4 1   
     4    3   29 1   
     5    4    5 1   
     6    4   24 1   
     7    4   25 1   
     8    5    6 1   
     9    6    7 ar  
    10    6   12 ar  
    11    7    8 ar  
    12    7   26 1   
    13    8    9 1   
    14    8   10 ar  
    15   10   11 ar  
    16   10   27 1   
    17   11   12 ar  
    18   11   28 1   
    19   12   13 1   
    20   13   14 2   
    21   13   15 1   
    22   15   16 1   
    23   15   36 1   
    24   16   17 1   
    25   16   30 1   
    26   16   31 1   
    27   17   18 ar  
    28   17   23 ar  
    29   18   19 ar  
    30   18   32 1   
    31   19   20 ar  
    32   19   33 1   
    33   20   21 1   
    34   20   22 ar  
    35   22   23 ar  
    36   22   34 1   
    37   23   35 1   
@<TRIPOS>SUBSTRUCTURE
     1 W8X         1 TEMP              0 ****  ****    0 ROOT
