@<TRIPOS>MOLECULE
W8Z
   44    46     1     0     0
SMALL
bcc


@<TRIPOS>ATOM
      1 OAB         0.5370   -1.3620    0.3940 o         1 W8Z     -0.793800
      2 CAS         1.3270   -0.3980    0.2470 c         1 W8Z      0.922800
      3 OAE         1.6950    0.4130    1.1330 o         1 W8Z     -0.793800
      4 CAV         1.9600   -0.2010   -1.1610 cc        1 W8Z      0.055400
      5 NAO         3.3420   -0.0820   -1.1630 n         1 W8Z     -0.437100
      6 CAX         4.0680    0.1410   -2.3400 c         1 W8Z      0.791500
      7 OAC         5.3170    0.2800   -2.3220 o         1 W8Z     -0.696500
      8 NAP         3.3600    0.1860   -3.5490 n         1 W8Z     -0.592500
      9 CAY         1.9560    0.0650   -3.6080 c         1 W8Z      0.717700
     10 OAD         1.4310    0.1360   -4.7390 o         1 W8Z     -0.671500
     11 CAW         1.2520   -0.1340   -2.3360 cd        1 W8Z     -0.290400
     12 CAM        -0.2230   -0.2780   -2.4010 c3        1 W8Z     -0.001200
     13 CAL        -0.8950    1.0410   -2.7600 c3        1 W8Z     -0.038100
     14 CAT        -2.3780    0.9210   -2.7590 ca        1 W8Z     -0.061300
     15 CAJ        -3.0960    0.8380   -3.9270 ca        1 W8Z     -0.113000
     16 CAZ        -4.5140    0.7280   -3.9250 ca        1 W8Z     -0.062000
     17 CAH        -5.2570    0.6500   -5.1320 ca        1 W8Z     -0.105000
     18 CAF        -6.6260    0.5360   -5.1060 ca        1 W8Z     -0.155000
     19 CAG        -7.3130    0.4920   -3.8700 ca        1 W8Z     -0.137000
     20 CAI        -6.6190    0.5660   -2.6870 ca        1 W8Z     -0.125000
     21 CBA        -5.2030    0.6880   -2.6860 ca        1 W8Z     -0.006000
     22 CAK        -4.4660    0.7680   -1.4750 ca        1 W8Z     -0.217000
     23 CAU        -3.0930    0.8930   -1.5110 ca        1 W8Z      0.155100
     24 OAR        -2.2840    1.0030   -0.4020 os        1 W8Z     -0.335900
     25 CAN        -2.8870    1.1070    0.8780 c3        1 W8Z      0.319200
     26 OAQ        -3.4340   -0.1450    1.1950 os        1 W8Z     -0.460600
     27 CAA        -2.4620   -1.1390    1.5210 c3        1 W8Z      0.098700
     28 H2          3.8210   -0.0110   -0.2890 hn        1 W8Z      0.362500
     29 H3          3.8830    0.3250   -4.3830 hn        1 W8Z      0.330500
     30 H4         -0.6140   -0.6390   -1.4090 hc        1 W8Z      0.070200
     31 H5         -0.4810   -1.0450   -3.1800 hc        1 W8Z      0.070200
     32 H6         -0.5930    1.8210   -2.0100 hc        1 W8Z      0.058200
     33 H7         -0.5340    1.3730   -3.7710 hc        1 W8Z      0.058200
     34 H8         -2.5710    0.8530   -4.8960 ha        1 W8Z      0.139000
     35 H9         -4.7120    0.6800   -6.0880 ha        1 W8Z      0.126000
     36 H10        -7.2020    0.4740   -6.0400 ha        1 W8Z      0.118000
     37 H11        -8.4080    0.3980   -3.8720 ha        1 W8Z      0.117000
     38 H12        -7.1440    0.5290   -1.7210 ha        1 W8Z      0.126000
     39 H13        -5.0030    0.6970   -0.5180 ha        1 W8Z      0.147000
     40 H14        -2.0290    1.3990    1.5440 h2        1 W8Z      0.070200
     41 H15        -3.7380    1.8370    0.8970 h2        1 W8Z      0.070200
     42 H16        -2.1250   -0.9830    2.5750 h1        1 W8Z      0.056367
     43 H17        -3.0120   -2.1060    1.4220 h1        1 W8Z      0.056367
     44 H18        -1.5840   -1.1010    0.8240 h1        1 W8Z      0.056367
@<TRIPOS>BOND
     1    1    2 1   
     2    2    3 1   
     3    2    4 1   
     4    4    5 1   
     5    4   11 2   
     6    5    6 1   
     7    5   28 1   
     8    6    7 2   
     9    6    8 1   
    10    8    9 1   
    11    8   29 1   
    12    9   10 2   
    13    9   11 1   
    14   11   12 1   
    15   12   13 1   
    16   12   30 1   
    17   12   31 1   
    18   13   14 1   
    19   13   32 1   
    20   13   33 1   
    21   14   15 ar  
    22   14   23 ar  
    23   15   16 ar  
    24   15   34 1   
    25   16   17 ar  
    26   16   21 ar  
    27   17   18 ar  
    28   17   35 1   
    29   18   19 ar  
    30   18   36 1   
    31   19   20 ar  
    32   19   37 1   
    33   20   21 ar  
    34   20   38 1   
    35   21   22 ar  
    36   22   23 ar  
    37   22   39 1   
    38   23   24 1   
    39   24   25 1   
    40   25   26 1   
    41   25   40 1   
    42   25   41 1   
    43   26   27 1   
    44   27   42 1   
    45   27   43 1   
    46   27   44 1   
@<TRIPOS>SUBSTRUCTURE
     1 W8Z         1 TEMP              0 ****  ****    0 ROOT
