@<TRIPOS>MOLECULE
W8Z
   44    46     1     0     0
SMALL
bcc


@<TRIPOS>ATOM
      1 OAB         0.5360   -1.3720    0.3870 o         1 W8Z     -0.793800
      2 CAS         1.3280   -0.4090    0.2420 c         1 W8Z      0.922800
      3 OAE         1.6980    0.3990    1.1310 o         1 W8Z     -0.793800
      4 CAV         1.9600   -0.2080   -1.1660 cc        1 W8Z      0.055400
      5 NAO         3.3430   -0.0920   -1.1680 ns        1 W8Z     -0.437100
      6 CAX         4.0680    0.1340   -2.3450 c         1 W8Z      0.791500
      7 OAC         5.3170    0.2710   -2.3280 o         1 W8Z     -0.696500
      8 NAP         3.3590    0.1830   -3.5530 ns        1 W8Z     -0.592500
      9 CAY         1.9540    0.0640   -3.6120 c         1 W8Z      0.717700
     10 OAD         1.4290    0.1400   -4.7420 o         1 W8Z     -0.671500
     11 CAW         1.2510   -0.1370   -2.3400 cd        1 W8Z     -0.290400
     12 CAM        -0.2240   -0.2780   -2.4040 c3        1 W8Z     -0.001200
     13 CAL        -0.8940    1.0430   -2.7580 c3        1 W8Z     -0.038100
     14 CAT        -2.3770    0.9240   -2.7560 ca        1 W8Z     -0.061300
     15 CAJ        -3.0970    0.8470   -3.9250 ca        1 W8Z     -0.113000
     16 CAZ        -4.5150    0.7380   -3.9210 ca        1 W8Z     -0.062000
     17 CAH        -5.2590    0.6650   -5.1280 ca        1 W8Z     -0.105000
     18 CAF        -6.6280    0.5530   -5.1010 ca        1 W8Z     -0.155000
     19 CAG        -7.3140    0.5070   -3.8650 ca        1 W8Z     -0.137000
     20 CAI        -6.6190    0.5760   -2.6820 ca        1 W8Z     -0.125000
     21 CBA        -5.2030    0.6950   -2.6820 ca        1 W8Z     -0.006000
     22 CAK        -4.4650    0.7700   -1.4710 ca        1 W8Z     -0.217000
     23 CAU        -3.0920    0.8940   -1.5080 ca        1 W8Z      0.155100
     24 OAR        -2.2820    0.9990   -0.3990 os        1 W8Z     -0.335900
     25 CAN        -2.8840    1.1000    0.8820 c3        1 W8Z      0.319200
     26 OAQ        -3.4320   -0.1520    1.1950 os        1 W8Z     -0.460600
     27 CAA        -2.4620   -1.1490    1.5170 c3        1 W8Z      0.098700
     28 H2          3.8210   -0.0240   -0.2950 hn        1 W8Z      0.362500
     29 H3          3.8810    0.3240   -4.3870 hn        1 W8Z      0.330500
     30 H4         -0.6150   -0.6430   -1.4130 hc        1 W8Z      0.070200
     31 H5         -0.4840   -1.0420   -3.1850 hc        1 W8Z      0.070200
     32 H6         -0.5900    1.8200   -2.0050 hc        1 W8Z      0.058200
     33 H7         -0.5340    1.3770   -3.7680 hc        1 W8Z      0.058200
     34 H8         -2.5730    0.8630   -4.8930 ha        1 W8Z      0.139000
     35 H9         -4.7150    0.6980   -6.0840 ha        1 W8Z      0.126000
     36 H10        -7.2040    0.4960   -6.0350 ha        1 W8Z      0.118000
     37 H11        -8.4100    0.4140   -3.8660 ha        1 W8Z      0.117000
     38 H12        -7.1440    0.5360   -1.7160 ha        1 W8Z      0.126000
     39 H13        -5.0010    0.6970   -0.5140 ha        1 W8Z      0.147000
     40 H14        -2.0250    1.3880    1.5480 h2        1 W8Z      0.070200
     41 H15        -3.7340    1.8300    0.9040 h2        1 W8Z      0.070200
     42 H16        -2.1230   -0.9970    2.5710 h1        1 W8Z      0.056367
     43 H17        -3.0130   -2.1150    1.4150 h1        1 W8Z      0.056367
     44 H18        -1.5840   -1.1100    0.8200 h1        1 W8Z      0.056367
@<TRIPOS>BOND
     1    1    2 1   
     2    2    3 1   
     3    2    4 1   
     4    4    5 1   
     5    4   11 2   
     6    5    6 1   
     7    5   28 1   
     8    6    7 2   
     9    6    8 1   
    10    8    9 1   
    11    8   29 1   
    12    9   10 2   
    13    9   11 1   
    14   11   12 1   
    15   12   13 1   
    16   12   30 1   
    17   12   31 1   
    18   13   14 1   
    19   13   32 1   
    20   13   33 1   
    21   14   15 ar  
    22   14   23 ar  
    23   15   16 ar  
    24   15   34 1   
    25   16   17 ar  
    26   16   21 ar  
    27   17   18 ar  
    28   17   35 1   
    29   18   19 ar  
    30   18   36 1   
    31   19   20 ar  
    32   19   37 1   
    33   20   21 ar  
    34   20   38 1   
    35   21   22 ar  
    36   22   23 ar  
    37   22   39 1   
    38   23   24 1   
    39   24   25 1   
    40   25   26 1   
    41   25   40 1   
    42   25   41 1   
    43   26   27 1   
    44   27   42 1   
    45   27   43 1   
    46   27   44 1   
@<TRIPOS>SUBSTRUCTURE
     1 W8Z         1 TEMP              0 ****  ****    0 ROOT
