@<TRIPOS>MOLECULE
W8Z
   44    46     1     0     0
SMALL
bcc


@<TRIPOS>ATOM
      1 OAB         0.5300   -1.3670    0.3970 o         1 W8Z     -0.793800
      2 CAS         1.3240   -0.4060    0.2500 c         1 W8Z      0.922800
      3 OAE         1.6940    0.4050    1.1360 o         1 W8Z     -0.793800
      4 CAV         1.9590   -0.2110   -1.1580 cc        1 W8Z      0.055400
      5 NAO         3.3410   -0.0960   -1.1580 n         1 W8Z     -0.437100
      6 CAX         4.0680    0.1230   -2.3350 c         1 W8Z      0.791500
      7 OAC         5.3170    0.2590   -2.3170 o         1 W8Z     -0.696500
      8 NAP         3.3610    0.1700   -3.5450 n         1 W8Z     -0.592500
      9 CAY         1.9560    0.0530   -3.6050 c         1 W8Z      0.717700
     10 OAD         1.4330    0.1250   -4.7360 o         1 W8Z     -0.671500
     11 CAW         1.2510   -0.1430   -2.3330 cd        1 W8Z     -0.290400
     12 CAM        -0.2240   -0.2820   -2.4000 c3        1 W8Z     -0.001200
     13 CAL        -0.8920    1.0390   -2.7590 c3        1 W8Z     -0.038100
     14 CAT        -2.3750    0.9220   -2.7600 ca        1 W8Z     -0.061300
     15 CAJ        -3.0920    0.8420   -3.9290 ca        1 W8Z     -0.113000
     16 CAZ        -4.5110    0.7350   -3.9270 ca        1 W8Z     -0.062000
     17 CAH        -5.2530    0.6590   -5.1360 ca        1 W8Z     -0.105000
     18 CAF        -6.6220    0.5490   -5.1100 ca        1 W8Z     -0.155000
     19 CAG        -7.3110    0.5080   -3.8760 ca        1 W8Z     -0.137000
     20 CAI        -6.6180    0.5800   -2.6910 ca        1 W8Z     -0.125000
     21 CBA        -5.2010    0.6980   -2.6890 ca        1 W8Z     -0.006000
     22 CAK        -4.4650    0.7760   -1.4780 ca        1 W8Z     -0.217000
     23 CAU        -3.0920    0.8980   -1.5130 ca        1 W8Z      0.155100
     24 OAR        -2.2840    1.0050   -0.4030 os        1 W8Z     -0.335900
     25 CAN        -2.8870    1.1110    0.8770 c3        1 W8Z      0.319200
     26 OAQ        -3.4380   -0.1390    1.1940 os        1 W8Z     -0.460600
     27 CAA        -2.4700   -1.1350    1.5210 c3        1 W8Z      0.098700
     28 H2          3.8190   -0.0260   -0.2850 hn        1 W8Z      0.362500
     29 H3          3.8850    0.3070   -4.3790 hn        1 W8Z      0.330500
     30 H4         -0.6170   -0.6420   -1.4070 hc        1 W8Z      0.070200
     31 H5         -0.4840   -1.0490   -3.1780 hc        1 W8Z      0.070200
     32 H6         -0.5880    1.8180   -2.0090 hc        1 W8Z      0.058200
     33 H7         -0.5290    1.3680   -3.7700 hc        1 W8Z      0.058200
     34 H8         -2.5670    0.8540   -4.8970 ha        1 W8Z      0.139000
     35 H9         -4.7070    0.6880   -6.0900 ha        1 W8Z      0.126000
     36 H10        -7.1970    0.4890   -6.0450 ha        1 W8Z      0.118000
     37 H11        -8.4060    0.4170   -3.8780 ha        1 W8Z      0.117000
     38 H12        -7.1440    0.5450   -1.7260 ha        1 W8Z      0.126000
     39 H13        -5.0030    0.7070   -0.5210 ha        1 W8Z      0.147000
     40 H14        -3.7360    1.8430    0.8950 h2        1 W8Z      0.070200
     41 H15        -2.0290    1.4010    1.5440 h2        1 W8Z      0.070200
     42 H16        -1.5910   -1.1000    0.8250 h1        1 W8Z      0.056367
     43 H17        -2.1330   -0.9810    2.5750 h1        1 W8Z      0.056367
     44 H18        -3.0220   -2.1010    1.4210 h1        1 W8Z      0.056367
@<TRIPOS>BOND
     1    1    2 1   
     2    2    3 1   
     3    2    4 1   
     4    4    5 1   
     5    4   11 2   
     6    5    6 1   
     7    5   28 1   
     8    6    7 2   
     9    6    8 1   
    10    8    9 1   
    11    8   29 1   
    12    9   10 2   
    13    9   11 1   
    14   11   12 1   
    15   12   13 1   
    16   12   30 1   
    17   12   31 1   
    18   13   14 1   
    19   13   32 1   
    20   13   33 1   
    21   14   15 ar  
    22   14   23 ar  
    23   15   16 ar  
    24   15   34 1   
    25   16   17 ar  
    26   16   21 ar  
    27   17   18 ar  
    28   17   35 1   
    29   18   19 ar  
    30   18   36 1   
    31   19   20 ar  
    32   19   37 1   
    33   20   21 ar  
    34   20   38 1   
    35   21   22 ar  
    36   22   23 ar  
    37   22   39 1   
    38   23   24 1   
    39   24   25 1   
    40   25   26 1   
    41   25   40 1   
    42   25   41 1   
    43   26   27 1   
    44   27   42 1   
    45   27   43 1   
    46   27   44 1   
@<TRIPOS>SUBSTRUCTURE
     1 W8Z         1 TEMP              0 ****  ****    0 ROOT
