@<TRIPOS>MOLECULE
W91
   39    41     1     0     0
SMALL
bcc


@<TRIPOS>ATOM
      1 C3         -0.1340    0.0680   -0.0970 cc        1 W91      0.321600
      2 C31        -1.1810    0.7060   -0.9140 c3        1 W91     -0.132400
      3 C4          1.0710    0.7500    0.3870 cc        1 W91     -0.361600
      4 C5          1.7520   -0.2170    1.0970 cd        1 W91      0.264000
      5 O1          0.9880   -1.4110    1.0360 os        1 W91     -0.125100
      6 N2         -0.1070   -1.2110    0.3310 nd        1 W91     -0.361300
      7 C1C         3.0060   -0.2920    1.8550 c3        1 W91     -0.117700
      8 C2C         3.7520    1.0260    1.8330 c3        1 W91     -0.084400
      9 C3C         5.0380    0.9030    2.6290 c3        1 W91      0.131400
     10 O1B         5.6670    2.1980    2.5450 os        1 W91     -0.329900
     11 C1B         6.8700    2.2640    3.2270 ca        1 W91      0.124100
     12 C2B         8.0800    2.0040    2.5550 ca        1 W91     -0.004100
     13 CL2         8.0930    1.4590    0.9480 cl        1 W91     -0.062400
     14 C3B         9.3000    2.1970    3.2060 ca        1 W91     -0.075500
     15 C4B         9.3210    2.6420    4.5330 ca        1 W91     -0.112900
     16 C5B         8.1250    2.8950    5.2140 ca        1 W91     -0.075500
     17 C6B         6.9020    2.7030    4.5640 ca        1 W91     -0.004100
     18 CL1         5.4710    3.0150    5.4210 cl        1 W91     -0.062400
     19 C2A        10.6010    2.8420    5.2120 ce        1 W91      0.626200
     20 N3A        10.8450    3.2380    6.4340 n2        1 W91     -0.617900
     21 C4A        12.2900    3.2760    6.6230 c3        1 W91      0.069800
     22 C5A        12.8980    2.8230    5.2690 c3        1 W91      0.090400
     23 O1A        11.7460    2.5660    4.4300 os        1 W91     -0.456400
     24 H311       -2.0060   -0.0040   -1.1660 hc        1 W91      0.058367
     25 H312       -1.6140    1.5730   -0.3540 hc        1 W91      0.058367
     26 H313       -0.7310    1.0850   -1.8660 hc        1 W91      0.058367
     27 H4          1.3360    1.7850    0.2080 ha        1 W91      0.175000
     28 H1C1        3.6490   -1.1070    1.4190 hc        1 W91      0.072700
     29 H1C2        2.7740   -0.5870    2.9160 hc        1 W91      0.072700
     30 H2C1        3.1170    1.8410    2.2710 hc        1 W91      0.066700
     31 H2C2        3.9910    1.3220    0.7780 hc        1 W91      0.066700
     32 H3C1        4.8340    0.6610    3.7040 h1        1 W91      0.045200
     33 H3C2        5.7210    0.1320    2.1870 h1        1 W91      0.045200
     34 H3B        10.2500    2.0020    2.6790 ha        1 W91      0.176000
     35 H5B         8.1430    3.2470    6.2600 ha        1 W91      0.176000
     36 H4A1       12.5790    2.5860    7.4580 h1        1 W91      0.076700
     37 H4A2       12.6070    4.3170    6.8910 h1        1 W91      0.076700
     38 H5A1       13.4980    3.6180    4.7680 h1        1 W91      0.066200
     39 H5A2       13.4710    1.8680    5.3410 h1        1 W91      0.066200
@<TRIPOS>BOND
     1    1    2 1   
     2    1    3 1   
     3    1    6 2   
     4    2   24 1   
     5    2   25 1   
     6    2   26 1   
     7    3    4 2   
     8    3   27 1   
     9    4    5 1   
    10    4    7 1   
    11    5    6 1   
    12    7    8 1   
    13    7   28 1   
    14    7   29 1   
    15    8    9 1   
    16    8   30 1   
    17    8   31 1   
    18    9   10 1   
    19    9   32 1   
    20    9   33 1   
    21   10   11 1   
    22   11   12 ar  
    23   11   17 ar  
    24   12   13 1   
    25   12   14 ar  
    26   14   15 ar  
    27   14   34 1   
    28   15   16 ar  
    29   15   19 1   
    30   16   17 ar  
    31   16   35 1   
    32   17   18 1   
    33   19   20 2   
    34   19   23 1   
    35   20   21 1   
    36   21   22 1   
    37   21   36 1   
    38   21   37 1   
    39   22   23 1   
    40   22   38 1   
    41   22   39 1   
@<TRIPOS>SUBSTRUCTURE
     1 W91         1 TEMP              0 ****  ****    0 ROOT
