@<TRIPOS>MOLECULE
W91
   39    41     1     0     0
SMALL
bcc


@<TRIPOS>ATOM
      1 C3         -0.1450    0.0820   -0.0860 cc        1 W91      0.321600
      2 C31        -1.1850    0.7160   -0.9160 c3        1 W91     -0.132400
      3 C4          1.0670    0.7570    0.3860 cc        1 W91     -0.361600
      4 C5          1.7360   -0.2040    1.1130 cd        1 W91      0.264000
      5 O1          0.9590   -1.3910    1.0730 os        1 W91     -0.125100
      6 N2         -0.1340   -1.1910    0.3640 nd        1 W91     -0.361300
      7 C1C         2.9900   -0.2810    1.8730 c3        1 W91     -0.117700
      8 C2C         3.7420    1.0330    1.8410 c3        1 W91     -0.084400
      9 C3C         5.0290    0.9080    2.6360 c3        1 W91      0.131400
     10 O1B         5.6650    2.1990    2.5440 os        1 W91     -0.329900
     11 C1B         6.8690    2.2630    3.2230 ca        1 W91      0.124100
     12 C2B         8.0760    1.9930    2.5490 ca        1 W91     -0.004100
     13 Cl2         8.0820    1.4410    0.9440 cl        1 W91     -0.062400
     14 C3B         9.2990    2.1840    3.1950 ca        1 W91     -0.075500
     15 C4B         9.3260    2.6340    4.5210 ca        1 W91     -0.112900
     16 C5B         8.1330    2.8970    5.2030 ca        1 W91     -0.075500
     17 C6B         6.9080    2.7070    4.5580 ca        1 W91     -0.004100
     18 Cl1         5.4800    3.0300    5.4180 cl        1 W91     -0.062400
     19 C2A        10.6090    2.8310    5.1940 ce        1 W91      0.626200
     20 N3A        10.8590    3.2310    6.4150 n2        1 W91     -0.617900
     21 C4A        12.3050    3.2630    6.5990 c3        1 W91      0.069800
     22 C5A        12.9060    2.8010    5.2460 c3        1 W91      0.090400
     23 O1A        11.7500    2.5460    4.4110 os        1 W91     -0.456400
     24 H311       -1.6010    1.6040   -0.3770 hc        1 W91      0.058367
     25 H312       -0.7320    1.0630   -1.8790 hc        1 W91      0.058367
     26 H313       -2.0230    0.0140   -1.1480 hc        1 W91      0.058367
     27 H4          1.3440    1.7860    0.1890 ha        1 W91      0.175000
     28 H1C1        3.6280   -1.1020    1.4430 hc        1 W91      0.072700
     29 H1C2        2.7560   -0.5670    2.9360 hc        1 W91      0.072700
     30 H2C1        3.9820    1.3210    0.7840 hc        1 W91      0.066700
     31 H2C2        3.1130    1.8540    2.2750 hc        1 W91      0.066700
     32 H3C1        5.7080    0.1310    2.1980 h1        1 W91      0.045200
     33 H3C2        4.8250    0.6730    3.7130 h1        1 W91      0.045200
     34 H3B        10.2470    1.9810    2.6670 ha        1 W91      0.176000
     35 H5B         8.1560    3.2530    6.2470 ha        1 W91      0.176000
     36 H4A1       12.6270    4.3040    6.8620 h1        1 W91      0.076700
     37 H4A2       12.5920    2.5750    7.4360 h1        1 W91      0.076700
     38 H5A1       13.5090    3.5910    4.7390 h1        1 W91      0.066200
     39 H5A2       13.4740    1.8440    5.3210 h1        1 W91      0.066200
@<TRIPOS>BOND
     1    1    2 1   
     2    1    3 1   
     3    1    6 2   
     4    2   24 1   
     5    2   25 1   
     6    2   26 1   
     7    3    4 2   
     8    3   27 1   
     9    4    5 1   
    10    4    7 1   
    11    5    6 1   
    12    7    8 1   
    13    7   28 1   
    14    7   29 1   
    15    8    9 1   
    16    8   30 1   
    17    8   31 1   
    18    9   10 1   
    19    9   32 1   
    20    9   33 1   
    21   10   11 1   
    22   11   12 ar  
    23   11   17 ar  
    24   12   13 1   
    25   12   14 ar  
    26   14   15 ar  
    27   14   34 1   
    28   15   16 ar  
    29   15   19 1   
    30   16   17 ar  
    31   16   35 1   
    32   17   18 1   
    33   19   20 2   
    34   19   23 1   
    35   20   21 1   
    36   21   22 1   
    37   21   36 1   
    38   21   37 1   
    39   22   23 1   
    40   22   38 1   
    41   22   39 1   
@<TRIPOS>SUBSTRUCTURE
     1 W91         1 TEMP              0 ****  ****    0 ROOT
