@<TRIPOS>MOLECULE
W91
   39    41     1     0     0
SMALL
bcc


@<TRIPOS>ATOM
      1 C3          0.4050    0.1670    7.1940 cc        1 W91      0.321600
      2 C31         0.7510   -0.7360    8.3050 c3        1 W91     -0.132400
      3 C4          0.4570   -0.2020    5.7770 cc        1 W91     -0.361600
      4 C5          0.0560    0.9350    5.1090 cd        1 W91      0.264000
      5 O1         -0.2210    1.9290    6.0830 os        1 W91     -0.125100
      6 N2         -0.0070    1.4490    7.2920 nd        1 W91     -0.361300
      7 C1C        -0.1410    1.3320    3.7100 c3        1 W91     -0.117700
      8 C2C         0.2050    0.2060    2.7570 c3        1 W91     -0.084400
      9 C3C        -0.0140    0.6600    1.3250 c3        1 W91      0.131400
     10 O1B         0.3420   -0.4720    0.5050 os        1 W91     -0.329900
     11 C1B         0.1990   -0.2290   -0.8500 ca        1 W91      0.124100
     12 C2B         1.2930    0.2370   -1.6050 ca        1 W91     -0.004100
     13 CL2         2.7600    0.6550   -0.8610 cl        1 W91     -0.062400
     14 C3B         1.1880    0.3570   -2.9920 ca        1 W91     -0.075500
     15 C4B        -0.0110    0.0240   -3.6340 ca        1 W91     -0.112900
     16 C5B        -1.1070   -0.4310   -2.8930 ca        1 W91     -0.075500
     17 C6B        -1.0050   -0.5530   -1.5050 ca        1 W91     -0.004100
     18 CL1        -2.3560   -1.1040   -0.6370 cl        1 W91     -0.062400
     19 C2A        -0.1170    0.1530   -5.0870 ce        1 W91      0.626200
     20 N3A        -1.1310   -0.0930   -5.8750 n2        1 W91     -0.617900
     21 C4A        -0.7250    0.1950   -7.2460 c3        1 W91      0.069800
     22 C5A         0.7480    0.6700   -7.1520 c3        1 W91      0.090400
     23 O1A         1.0510    0.6120   -5.7370 os        1 W91     -0.456400
     24 H311        1.8120   -1.0740    8.1940 hc        1 W91      0.058367
     25 H312        0.6370   -0.2400    9.3010 hc        1 W91      0.058367
     26 H313        0.0850   -1.6350    8.2760 hc        1 W91      0.058367
     27 H4          0.7510   -1.1660    5.3770 ha        1 W91      0.175000
     28 H1C1       -1.2120    1.6450    3.5660 hc        1 W91      0.072700
     29 H1C2        0.4980    2.2330    3.4920 hc        1 W91      0.072700
     30 H2C1        1.2740   -0.1050    2.8920 hc        1 W91      0.066700
     31 H2C2       -0.4330   -0.6920    2.9660 hc        1 W91      0.066700
     32 H3C1       -1.0860    0.9280    1.1380 h1        1 W91      0.045200
     33 H3C2        0.6480    1.5260    1.0630 h1        1 W91      0.045200
     34 H3B         2.0460    0.7140   -3.5870 ha        1 W91      0.176000
     35 H5B        -2.0510   -0.6950   -3.4010 ha        1 W91      0.176000
     36 H4A1       -0.8220   -0.7320   -7.8690 h1        1 W91      0.076700
     37 H4A2       -1.3900    0.9880   -7.6760 h1        1 W91      0.076700
     38 H5A1        1.4640   -0.0110   -7.6690 h1        1 W91      0.066200
     39 H5A2        0.8910    1.7280   -7.4750 h1        1 W91      0.066200
@<TRIPOS>BOND
     1    1    2 1   
     2    1    3 1   
     3    1    6 2   
     4    2   24 1   
     5    2   25 1   
     6    2   26 1   
     7    3    4 2   
     8    3   27 1   
     9    4    5 1   
    10    4    7 1   
    11    5    6 1   
    12    7    8 1   
    13    7   28 1   
    14    7   29 1   
    15    8    9 1   
    16    8   30 1   
    17    8   31 1   
    18    9   10 1   
    19    9   32 1   
    20    9   33 1   
    21   10   11 1   
    22   11   12 ar  
    23   11   17 ar  
    24   12   13 1   
    25   12   14 ar  
    26   14   15 ar  
    27   14   34 1   
    28   15   16 ar  
    29   15   19 1   
    30   16   17 ar  
    31   16   35 1   
    32   17   18 1   
    33   19   20 2   
    34   19   23 1   
    35   20   21 1   
    36   21   22 1   
    37   21   36 1   
    38   21   37 1   
    39   22   23 1   
    40   22   38 1   
    41   22   39 1   
@<TRIPOS>SUBSTRUCTURE
     1 W91         1 TEMP              0 ****  ****    0 ROOT
