@<TRIPOS>MOLECULE
W94
   61    65     1     0     0
SMALL
bcc


@<TRIPOS>ATOM
      1 C1         -0.0790   -0.1420   -0.0290 cc        1 W94     -0.078600
      2 C2          1.3090   -0.0710    0.1770 cd        1 W94     -0.245300
      3 C3          1.4680   -0.0370    1.6090 cd        1 W94      0.207600
      4 N4          0.2550   -0.0860    2.2310 nc        1 W94     -0.443800
      5 N5         -0.6640   -0.1550    1.2610 na        1 W94      0.171300
      6 C6         -2.0650   -0.2210    1.5440 ca        1 W94      0.003800
      7 C7         -2.8610   -1.2140    0.9400 ca        1 W94     -0.116500
      8 C8         -4.2250   -1.2660    1.2190 ca        1 W94     -0.123500
      9 C9         -4.8030   -0.3540    2.1010 ca        1 W94     -0.121000
     10 C10        -4.0120    0.6190    2.7100 ca        1 W94     -0.123500
     11 C11        -2.6470    0.6950    2.4420 ca        1 W94     -0.116500
     12 C12         2.7780    0.0430    2.3580 c3        1 W94      0.632600
     13 F13         2.9030    1.1480    3.1630 f         1 W94     -0.232300
     14 F14         3.0200   -1.0180    3.1940 f         1 W94     -0.232300
     15 F15         3.8790    0.0910    1.5390 f         1 W94     -0.232300
     16 C16        -0.8180   -0.1720   -1.3160 c3        1 W94     -0.005400
     17 C17        -0.3990    1.0030   -2.1920 c3        1 W94     -0.070900
     18 C18        -1.0750    0.9330   -3.5600 c3        1 W94      0.165800
     19 N19        -0.8550   -0.3400   -4.2360 n3        1 W94     -0.728600
     20 C20        -1.2480   -1.4760   -3.4140 c3        1 W94      0.165800
     21 C21        -0.5530   -1.4810   -2.0540 c3        1 W94     -0.070900
     22 C22        -1.3700   -0.3460   -5.5940 c3        1 W94      0.177500
     23 C23        -0.8920   -1.5420   -6.4490 c3        1 W94     -0.096400
     24 C24        -2.1640   -2.2150   -7.0040 c3        1 W94      0.097500
     25 N25        -3.3150   -1.3460   -6.7410 n3        1 W94     -0.797200
     26 C26        -2.9250   -0.3400   -5.7650 c3        1 W94      0.109800
     27 C27        -2.3660   -3.6080   -6.3760 c         1 W94      0.681100
     28 N28        -3.4590   -4.3630   -6.7610 n         1 W94     -0.469800
     29 C29        -3.6320   -5.7170   -6.2660 c3        1 W94      0.090000
     30 C30        -4.4770   -6.5450   -7.2310 c3        1 W94     -0.013300
     31 S31        -5.2590   -5.4250   -8.3690 ss        1 W94     -0.327200
     32 C32        -4.4250   -3.9530   -7.7390 c3        1 W94      0.194100
     33 O33        -1.5580   -4.0760   -5.5500 o         1 W94     -0.613100
     34 H2          2.0990   -0.0470   -0.5660 ha        1 W94      0.183000
     35 H7         -2.4140   -1.9520    0.2540 ha        1 W94      0.153500
     36 H8         -4.8440   -2.0410    0.7440 ha        1 W94      0.141500
     37 H9         -5.8800   -0.4050    2.3180 ha        1 W94      0.140000
     38 H10        -4.4640    1.3350    3.4130 ha        1 W94      0.141500
     39 H11        -2.0330    1.4620    2.9390 ha        1 W94      0.153500
     40 H16        -1.9280   -0.0900   -1.1270 hc        1 W94      0.064700
     41 H17         0.7150    1.0000   -2.3160 hc        1 W94      0.056200
     42 H17A       -0.6890    1.9680   -1.7030 hc        1 W94      0.056200
     43 H18        -2.1780    1.1440   -3.4290 h1        1 W94      0.040950
     44 H18A       -0.6460    1.7500   -4.2070 h1        1 W94      0.040950
     45 H20        -2.3650   -1.4930   -3.2340 h1        1 W94      0.040950
     46 H20A       -0.9810   -2.4250   -3.9620 h1        1 W94      0.040950
     47 H21        -0.9440   -2.3450   -1.4590 hc        1 W94      0.056200
     48 H21A        0.5520   -1.6230   -2.1830 hc        1 W94      0.056200
     49 H22        -0.9730    0.5980   -6.0740 h1        1 W94      0.056700
     50 H23        -0.2620   -2.2670   -5.8770 hc        1 W94      0.078700
     51 H23A       -0.2750   -1.1590   -7.2990 hc        1 W94      0.078700
     52 H24        -2.0370   -2.3880   -8.1140 h1        1 W94      0.062700
     53 HN25       -3.6160   -0.9160   -7.5960 hn        1 W94      0.358800
     54 H26        -3.4400   -0.5970   -4.7990 h1        1 W94      0.054700
     55 H26A       -3.2700    0.6820   -6.0730 h1        1 W94      0.054700
     56 H29        -4.1370   -5.6720   -5.2590 h1        1 W94      0.070200
     57 H29A       -2.6180   -6.1870   -6.1200 h1        1 W94      0.070200
     58 H30        -5.2580   -7.1180   -6.6790 h1        1 W94      0.080200
     59 H30A       -3.8460   -7.2680   -7.7990 h1        1 W94      0.080200
     60 H32        -3.9430   -3.4200   -8.5990 h2        1 W94      0.072200
     61 H32A       -5.2000   -3.2810   -7.2830 h2        1 W94      0.072200
@<TRIPOS>BOND
     1    1    2 2   
     2    1    5 1   
     3    1   16 1   
     4    2    3 1   
     5    2   34 1   
     6    3    4 2   
     7    3   12 1   
     8    4    5 1   
     9    5    6 1   
    10    6    7 ar  
    11    6   11 ar  
    12    7    8 ar  
    13    7   35 1   
    14    8    9 ar  
    15    8   36 1   
    16    9   10 ar  
    17    9   37 1   
    18   10   11 ar  
    19   10   38 1   
    20   11   39 1   
    21   12   13 1   
    22   12   14 1   
    23   12   15 1   
    24   16   17 1   
    25   16   21 1   
    26   16   40 1   
    27   17   18 1   
    28   17   41 1   
    29   17   42 1   
    30   18   19 1   
    31   18   43 1   
    32   18   44 1   
    33   19   20 1   
    34   19   22 1   
    35   20   21 1   
    36   20   45 1   
    37   20   46 1   
    38   21   47 1   
    39   21   48 1   
    40   22   23 1   
    41   22   26 1   
    42   22   49 1   
    43   23   24 1   
    44   23   50 1   
    45   23   51 1   
    46   24   25 1   
    47   24   27 1   
    48   24   52 1   
    49   25   26 1   
    50   25   53 1   
    51   26   54 1   
    52   26   55 1   
    53   27   28 1   
    54   27   33 2   
    55   28   29 1   
    56   28   32 1   
    57   29   30 1   
    58   29   56 1   
    59   29   57 1   
    60   30   31 1   
    61   30   58 1   
    62   30   59 1   
    63   31   32 1   
    64   32   60 1   
    65   32   61 1   
@<TRIPOS>SUBSTRUCTURE
     1 W94         1 TEMP              0 ****  ****    0 ROOT
