@<TRIPOS>MOLECULE
W94
   61    65     1     0     0
SMALL
bcc


@<TRIPOS>ATOM
      1 C1         -0.0550   -0.1460   -0.0410 cc        1 W94     -0.078600
      2 C2          1.3340   -0.0690    0.1500 cd        1 W94     -0.245300
      3 C3          1.5080   -0.0410    1.5810 cd        1 W94      0.207600
      4 N4          0.3020   -0.0990    2.2160 nc        1 W94     -0.443800
      5 N5         -0.6270   -0.1670    1.2550 na        1 W94      0.171300
      6 C6         -2.0240   -0.2410    1.5520 ca        1 W94      0.003800
      7 C7         -2.8220   -1.2350    0.9520 ca        1 W94     -0.116500
      8 C8         -4.1830   -1.2940    1.2450 ca        1 W94     -0.123500
      9 C9         -4.7560   -0.3880    2.1370 ca        1 W94     -0.121000
     10 C10        -3.9630    0.5850    2.7430 ca        1 W94     -0.123500
     11 C11        -2.6010    0.6680    2.4600 ca        1 W94     -0.116500
     12 C12         2.8250    0.0410    2.3170 c3        1 W94      0.632600
     13 F13         2.9550    1.1430    3.1250 f         1 W94     -0.232300
     14 F14         3.0800   -1.0230    3.1460 f         1 W94     -0.232300
     15 F15         3.9180    0.0980    1.4870 f         1 W94     -0.232300
     16 C16        -0.8070   -0.1730   -1.3210 c3        1 W94     -0.005400
     17 C17        -0.4030    1.0090   -2.1950 c3        1 W94     -0.070900
     18 C18        -1.0930    0.9420   -3.5570 c3        1 W94      0.165800
     19 N19        -0.8740   -0.3270   -4.2410 n3        1 W94     -0.728600
     20 C20        -1.2540   -1.4680   -3.4200 c3        1 W94      0.165800
     21 C21        -0.5440   -1.4760   -2.0670 c3        1 W94     -0.070900
     22 C22        -1.4030   -0.3290   -5.5940 c3        1 W94      0.177500
     23 C23        -0.9280   -1.5180   -6.4590 c3        1 W94     -0.096400
     24 C24        -2.2030   -2.1950   -7.0040 c3        1 W94      0.097500
     25 N25        -3.3550   -1.3330   -6.7250 n7        1 W94     -0.797200
     26 C26        -2.9590   -0.3290   -5.7480 c3        1 W94      0.109800
     27 C27        -2.3920   -3.5920   -6.3800 c         1 W94      0.681100
     28 N28        -3.4860   -4.3500   -6.7570 n         1 W94     -0.469800
     29 C29        -3.6470   -5.7070   -6.2670 c3        1 W94      0.090000
     30 C30        -4.4980   -6.5350   -7.2260 c3        1 W94     -0.013300
     31 S31        -5.2970   -5.4130   -8.3510 ss        1 W94     -0.327200
     32 C32        -4.4640   -3.9400   -7.7230 c3        1 W94      0.194100
     33 O33        -1.5730   -4.0600   -5.5650 o         1 W94     -0.613100
     34 H2          2.1160   -0.0380   -0.6010 ha        1 W94      0.183000
     35 H7         -2.3790   -1.9670    0.2580 ha        1 W94      0.153500
     36 H8         -4.8040   -2.0700    0.7720 ha        1 W94      0.141500
     37 H9         -5.8300   -0.4460    2.3660 ha        1 W94      0.140000
     38 H10        -4.4110    1.2960    3.4540 ha        1 W94      0.141500
     39 H11        -1.9850    1.4360    2.9550 ha        1 W94      0.153500
     40 H16        -1.9160   -0.0960   -1.1200 hc        1 W94      0.064700
     41 H17        -0.6920    1.9700   -1.6980 hc        1 W94      0.056200
     42 H17A        0.7100    1.0110   -2.3310 hc        1 W94      0.056200
     43 H18        -0.6740    1.7640   -4.2040 h1        1 W94      0.040950
     44 H18A       -2.1950    1.1470   -3.4130 h1        1 W94      0.040950
     45 H20        -0.9880   -2.4140   -3.9750 h1        1 W94      0.040950
     46 H20A       -2.3680   -1.4920   -3.2290 h1        1 W94      0.040950
     47 H21         0.5590   -1.6130   -2.2090 hc        1 W94      0.056200
     48 H21A       -0.9250   -2.3460   -1.4720 hc        1 W94      0.056200
     49 H22        -1.0150    0.6190   -6.0730 h1        1 W94      0.056700
     50 H23        -0.2880   -2.2430   -5.8970 hc        1 W94      0.078700
     51 H23A       -0.3210   -1.1290   -7.3140 hc        1 W94      0.078700
     52 H24        -2.0870   -2.3620   -8.1160 h1        1 W94      0.062700
     53 HN25       -3.6670   -0.9000   -7.5750 hn        1 W94      0.358800
     54 H26        -3.4640   -0.5920   -4.7780 h1        1 W94      0.054700
     55 H26A       -3.3120    0.6930   -6.0490 h1        1 W94      0.054700
     56 H29        -2.6290   -6.1730   -6.1330 h1        1 W94      0.070200
     57 H29A       -4.1420   -5.6690   -5.2540 h1        1 W94      0.070200
     58 H30        -3.8690   -7.2510   -7.8050 h1        1 W94      0.080200
     59 H30A       -5.2710   -7.1140   -6.6690 h1        1 W94      0.080200
     60 H32        -3.9930   -3.4010   -8.5860 h2        1 W94      0.072200
     61 H32A       -5.2370   -3.2740   -7.2560 h2        1 W94      0.072200
@<TRIPOS>BOND
     1    1    2 2   
     2    1    5 1   
     3    1   16 1   
     4    2    3 1   
     5    2   34 1   
     6    3    4 2   
     7    3   12 1   
     8    4    5 1   
     9    5    6 1   
    10    6    7 ar  
    11    6   11 ar  
    12    7    8 ar  
    13    7   35 1   
    14    8    9 ar  
    15    8   36 1   
    16    9   10 ar  
    17    9   37 1   
    18   10   11 ar  
    19   10   38 1   
    20   11   39 1   
    21   12   13 1   
    22   12   14 1   
    23   12   15 1   
    24   16   17 1   
    25   16   21 1   
    26   16   40 1   
    27   17   18 1   
    28   17   41 1   
    29   17   42 1   
    30   18   19 1   
    31   18   43 1   
    32   18   44 1   
    33   19   20 1   
    34   19   22 1   
    35   20   21 1   
    36   20   45 1   
    37   20   46 1   
    38   21   47 1   
    39   21   48 1   
    40   22   23 1   
    41   22   26 1   
    42   22   49 1   
    43   23   24 1   
    44   23   50 1   
    45   23   51 1   
    46   24   25 1   
    47   24   27 1   
    48   24   52 1   
    49   25   26 1   
    50   25   53 1   
    51   26   54 1   
    52   26   55 1   
    53   27   28 1   
    54   27   33 2   
    55   28   29 1   
    56   28   32 1   
    57   29   30 1   
    58   29   56 1   
    59   29   57 1   
    60   30   31 1   
    61   30   58 1   
    62   30   59 1   
    63   31   32 1   
    64   32   60 1   
    65   32   61 1   
@<TRIPOS>SUBSTRUCTURE
     1 W94         1 TEMP              0 ****  ****    0 ROOT
