@<TRIPOS>MOLECULE
W94
   61    65     1     0     0
SMALL
bcc


@<TRIPOS>ATOM
      1 C1          2.9300   -0.1350   -0.1520 cc        1 W94     -0.078600
      2 C2          3.6270   -1.3520   -0.2340 cd        1 W94     -0.245300
      3 C3          4.8960   -1.0940    0.3990 cd        1 W94      0.207600
      4 N4          4.9640    0.1960    0.8370 nc        1 W94     -0.443800
      5 N5          3.7960    0.7650    0.5160 na        1 W94      0.171300
      6 C6          3.5050    2.1310    0.8250 ca        1 W94      0.003800
      7 C7          2.3030    2.4680    1.4780 ca        1 W94     -0.116500
      8 C8          2.0300    3.8020    1.7690 ca        1 W94     -0.123500
      9 C9          2.9400    4.8030    1.4320 ca        1 W94     -0.121000
     10 C10         4.1370    4.4680    0.8000 ca        1 W94     -0.123500
     11 C11         4.4300    3.1410    0.4930 ca        1 W94     -0.116500
     12 C12         6.0230   -2.0850    0.5730 c3        1 W94      0.632600
     13 F13         7.2000   -1.7150   -0.0280 f         1 W94     -0.232300
     14 F14         6.3670   -2.3300    1.8790 f         1 W94     -0.232300
     15 F15         5.7500   -3.3270    0.0530 f         1 W94     -0.232300
     16 C16         1.5770    0.1870   -0.6710 c3        1 W94     -0.005400
     17 C17         1.4830   -0.1670   -2.1520 c3        1 W94     -0.070900
     18 C18         0.0680    0.0650   -2.6790 c3        1 W94      0.165800
     19 N19        -0.9480   -0.6310   -1.8990 n3        1 W94     -0.728600
     20 C20        -0.8730   -0.3060   -0.4810 c3        1 W94      0.165800
     21 C21         0.5110   -0.5760    0.1060 c3        1 W94     -0.070900
     22 C22        -2.2710   -0.5310   -2.4920 c3        1 W94      0.177500
     23 C23        -3.3120   -1.4980   -1.8860 c3        1 W94     -0.096400
     24 C24        -4.5110   -0.6290   -1.4510 c3        1 W94      0.097500
     25 N25        -4.3400    0.7220   -1.9930 n3        1 W94     -0.797200
     26 C26        -2.9650    0.8700   -2.4480 c3        1 W94      0.109800
     27 C27        -4.6370   -0.5980    0.0850 c         1 W94      0.681100
     28 N28        -5.6620    0.1330    0.6570 n         1 W94     -0.469800
     29 C29        -5.8730    0.1090    2.0940 c3        1 W94      0.090000
     30 C30        -7.3260    0.4290    2.4360 c3        1 W94     -0.013300
     31 S31        -8.0910    1.1060    0.9810 ss        1 W94     -0.327200
     32 C32        -6.6540    0.8570   -0.0840 c3        1 W94      0.194100
     33 O33        -3.8520   -1.2320    0.8180 o         1 W94     -0.613100
     34 H2          3.2970   -2.2890   -0.6710 ha        1 W94      0.183000
     35 H7          1.5820    1.6860    1.7650 ha        1 W94      0.153500
     36 H8          1.0880    4.0620    2.2770 ha        1 W94      0.141500
     37 H9          2.7170    5.8540    1.6700 ha        1 W94      0.140000
     38 H10         4.8620    5.2550    0.5410 ha        1 W94      0.141500
     39 H11         5.3840    2.8910    0.0030 ha        1 W94      0.153500
     40 H16         1.3740    1.2930   -0.5620 hc        1 W94      0.064700
     41 H17         2.1910    0.4690   -2.7440 hc        1 W94      0.056200
     42 H17A        1.7750   -1.2390   -2.3000 hc        1 W94      0.056200
     43 H18        -0.1280    1.1780   -2.7100 h1        1 W94      0.040950
     44 H18A        0.0200   -0.3190   -3.7370 h1        1 W94      0.040950
     45 H20        -1.1280    0.7790   -0.2880 h1        1 W94      0.040950
     46 H20A       -1.6310   -0.9330    0.0710 h1        1 W94      0.040950
     47 H21         0.7370   -1.6740    0.0780 hc        1 W94      0.056200
     48 H21A        0.5100   -0.2530    1.1790 hc        1 W94      0.056200
     49 H22        -2.1380   -0.8090   -3.5800 h1        1 W94      0.056700
     50 H23        -3.6450   -2.2180   -2.6740 hc        1 W94      0.078700
     51 H23A       -2.9100   -2.0980   -1.0320 hc        1 W94      0.078700
     52 H24        -5.4650   -1.0970   -1.8330 h1        1 W94      0.062700
     53 HN25       -4.9830    0.8660   -2.7490 hn        1 W94      0.358800
     54 H26        -2.4480    1.5580   -1.7240 h1        1 W94      0.054700
     55 H26A       -2.9210    1.3490   -3.4620 h1        1 W94      0.054700
     56 H29        -5.5850   -0.9060    2.4910 h1        1 W94      0.070200
     57 H29A       -5.1920    0.8700    2.5720 h1        1 W94      0.070200
     58 H30        -7.8770   -0.4880    2.7490 h1        1 W94      0.080200
     59 H30A       -7.3810    1.1730    3.2640 h1        1 W94      0.080200
     60 H32        -6.2700    1.8650   -0.3930 h2        1 W94      0.072200
     61 H32A       -6.9810    0.2960   -0.9970 h2        1 W94      0.072200
@<TRIPOS>BOND
     1    1    2 2   
     2    1    5 1   
     3    1   16 1   
     4    2    3 1   
     5    2   34 1   
     6    3    4 2   
     7    3   12 1   
     8    4    5 1   
     9    5    6 1   
    10    6    7 ar  
    11    6   11 ar  
    12    7    8 ar  
    13    7   35 1   
    14    8    9 ar  
    15    8   36 1   
    16    9   10 ar  
    17    9   37 1   
    18   10   11 ar  
    19   10   38 1   
    20   11   39 1   
    21   12   13 1   
    22   12   14 1   
    23   12   15 1   
    24   16   17 1   
    25   16   21 1   
    26   16   40 1   
    27   17   18 1   
    28   17   41 1   
    29   17   42 1   
    30   18   19 1   
    31   18   43 1   
    32   18   44 1   
    33   19   20 1   
    34   19   22 1   
    35   20   21 1   
    36   20   45 1   
    37   20   46 1   
    38   21   47 1   
    39   21   48 1   
    40   22   23 1   
    41   22   26 1   
    42   22   49 1   
    43   23   24 1   
    44   23   50 1   
    45   23   51 1   
    46   24   25 1   
    47   24   27 1   
    48   24   52 1   
    49   25   26 1   
    50   25   53 1   
    51   26   54 1   
    52   26   55 1   
    53   27   28 1   
    54   27   33 2   
    55   28   29 1   
    56   28   32 1   
    57   29   30 1   
    58   29   56 1   
    59   29   57 1   
    60   30   31 1   
    61   30   58 1   
    62   30   59 1   
    63   31   32 1   
    64   32   60 1   
    65   32   61 1   
@<TRIPOS>SUBSTRUCTURE
     1 W94         1 TEMP              0 ****  ****    0 ROOT
