@<TRIPOS>MOLECULE
W94
   61    65     1     0     0
SMALL
bcc


@<TRIPOS>ATOM
      1 C1         -0.0620   -0.1710   -0.0250 cc        1 W94     -0.078600
      2 C2          1.3270   -0.1140    0.1770 cd        1 W94     -0.245300
      3 C3          1.4910   -0.0880    1.6090 cd        1 W94      0.207600
      4 N4          0.2790   -0.1280    2.2340 nc        1 W94     -0.443800
      5 N5         -0.6440   -0.1830    1.2670 na        1 W94      0.171300
      6 C6         -2.0440   -0.2370    1.5520 ca        1 W94      0.003800
      7 C7         -2.8520   -1.2200    0.9470 ca        1 W94     -0.116500
      8 C8         -4.2150   -1.2600    1.2300 ca        1 W94     -0.123500
      9 C9         -4.7820   -0.3450    2.1160 ca        1 W94     -0.121000
     10 C10        -3.9800    0.6180    2.7270 ca        1 W94     -0.123500
     11 C11        -2.6150    0.6810    2.4550 ca        1 W94     -0.116500
     12 C12         2.8030   -0.0240    2.3550 c3        1 W94      0.632600
     13 F13         2.9420    1.0770    3.1630 f         1 W94     -0.232300
     14 F14         3.0360   -1.0910    3.1860 f         1 W94     -0.232300
     15 F15         3.9030    0.0150    1.5330 f         1 W94     -0.232300
     16 C16        -0.8050   -0.1880   -1.3100 c3        1 W94     -0.005400
     17 C17        -0.3770    0.9890   -2.1810 c3        1 W94     -0.070900
     18 C18        -1.0570    0.9310   -3.5480 c3        1 W94      0.165800
     19 N19        -0.8500   -0.3400   -4.2310 n3        1 W94     -0.728600
     20 C20        -1.2520   -1.4770   -3.4140 c3        1 W94      0.165800
     21 C21        -0.5530   -1.4940   -2.0550 c3        1 W94     -0.070900
     22 C22        -1.3670   -0.3350   -5.5880 c3        1 W94      0.177500
     23 C23        -0.9010   -1.5300   -6.4500 c3        1 W94     -0.096400
     24 C24        -2.1790   -2.1890   -7.0070 c3        1 W94      0.097500
     25 N25        -3.3220   -1.3120   -6.7380 n3        1 W94     -0.797200
     26 C26        -2.9220   -0.3150   -5.7560 c3        1 W94      0.109800
     27 C27        -2.3920   -3.5840   -6.3870 c         1 W94      0.681100
     28 N28        -3.4910   -4.3270   -6.7750 n         1 W94     -0.469800
     29 C29        -3.6750   -5.6830   -6.2880 c3        1 W94      0.090000
     30 C30        -4.5270   -6.4990   -7.2560 c3        1 W94     -0.013300
     31 S31        -5.3010   -5.3660   -8.3880 ss        1 W94     -0.327200
     32 C32        -4.4550   -3.9040   -7.7500 c3        1 W94      0.194100
     33 O33        -1.5870   -4.0630   -5.5640 o         1 W94     -0.613100
     34 H2          2.1150   -0.0940   -0.5680 ha        1 W94      0.183000
     35 H7         -2.4140   -1.9590    0.2570 ha        1 W94      0.153500
     36 H8         -4.8430   -2.0270    0.7520 ha        1 W94      0.141500
     37 H9         -5.8590   -0.3860    2.3360 ha        1 W94      0.140000
     38 H10        -4.4230    1.3360    3.4340 ha        1 W94      0.141500
     39 H11        -1.9920    1.4400    2.9540 ha        1 W94      0.153500
     40 H16        -1.9140   -0.0960   -1.1180 hc        1 W94      0.064700
     41 H17         0.7370    0.9760   -2.3080 hc        1 W94      0.056200
     42 H17A       -0.6580    1.9540   -1.6860 hc        1 W94      0.056200
     43 H18        -2.1580    1.1510   -3.4130 h1        1 W94      0.040950
     44 H18A       -0.6230    1.7480   -4.1910 h1        1 W94      0.040950
     45 H20        -2.3680   -1.4850   -3.2320 h1        1 W94      0.040950
     46 H20A       -0.9940   -2.4250   -3.9670 h1        1 W94      0.040950
     47 H21        -0.9500   -2.3590   -1.4640 hc        1 W94      0.056200
     48 H21A        0.5500   -1.6460   -2.1880 hc        1 W94      0.056200
     49 H22        -0.9630    0.6090   -6.0640 h1        1 W94      0.056700
     50 H23        -0.2810   -1.1480   -7.2990 hc        1 W94      0.078700
     51 H23A       -0.2760   -2.2630   -5.8830 hc        1 W94      0.078700
     52 H24        -2.0550   -2.3560   -8.1180 h1        1 W94      0.062700
     53 HN25       -3.6210   -0.8750   -7.5900 hn        1 W94      0.358800
     54 H26        -3.4380   -0.5730   -4.7910 h1        1 W94      0.054700
     55 H26A       -3.2590    0.7120   -6.0580 h1        1 W94      0.054700
     56 H29        -4.1790   -5.6400   -5.2800 h1        1 W94      0.070200
     57 H29A       -2.6640   -6.1620   -6.1450 h1        1 W94      0.070200
     58 H30        -3.9020   -7.2230   -7.8300 h1        1 W94      0.080200
     59 H30A       -5.3130   -7.0680   -6.7070 h1        1 W94      0.080200
     60 H32        -3.9690   -3.3700   -8.6080 h2        1 W94      0.072200
     61 H32A       -5.2240   -3.2290   -7.2890 h2        1 W94      0.072200
@<TRIPOS>BOND
     1    1    2 2   
     2    1    5 1   
     3    1   16 1   
     4    2    3 1   
     5    2   34 1   
     6    3    4 2   
     7    3   12 1   
     8    4    5 1   
     9    5    6 1   
    10    6    7 ar  
    11    6   11 ar  
    12    7    8 ar  
    13    7   35 1   
    14    8    9 ar  
    15    8   36 1   
    16    9   10 ar  
    17    9   37 1   
    18   10   11 ar  
    19   10   38 1   
    20   11   39 1   
    21   12   13 1   
    22   12   14 1   
    23   12   15 1   
    24   16   17 1   
    25   16   21 1   
    26   16   40 1   
    27   17   18 1   
    28   17   41 1   
    29   17   42 1   
    30   18   19 1   
    31   18   43 1   
    32   18   44 1   
    33   19   20 1   
    34   19   22 1   
    35   20   21 1   
    36   20   45 1   
    37   20   46 1   
    38   21   47 1   
    39   21   48 1   
    40   22   23 1   
    41   22   26 1   
    42   22   49 1   
    43   23   24 1   
    44   23   50 1   
    45   23   51 1   
    46   24   25 1   
    47   24   27 1   
    48   24   52 1   
    49   25   26 1   
    50   25   53 1   
    51   26   54 1   
    52   26   55 1   
    53   27   28 1   
    54   27   33 2   
    55   28   29 1   
    56   28   32 1   
    57   29   30 1   
    58   29   56 1   
    59   29   57 1   
    60   30   31 1   
    61   30   58 1   
    62   30   59 1   
    63   31   32 1   
    64   32   60 1   
    65   32   61 1   
@<TRIPOS>SUBSTRUCTURE
     1 W94         1 TEMP              0 ****  ****    0 ROOT
