@<TRIPOS>MOLECULE
W9L
   30    31     1     0     0
SMALL
bcc


@<TRIPOS>ATOM
      1 C1         -0.0920    0.1440    0.0450 c         1 W9L      0.749100
      2 N1          1.3010    0.3710    0.1210 n         1 W9L     -0.464100
      3 O1         -0.8150    0.0940    1.0660 o         1 W9L     -0.618100
      4 C2          2.0140    0.2830    1.3340 ca        1 W9L      0.064600
      5 N2         -0.6560   -0.0390   -1.2350 n         1 W9L     -0.549900
      6 C3          3.3320   -0.3110    1.3520 ca        1 W9L     -0.055000
      7 C4          4.0760   -0.2720    2.5610 ca        1 W9L     -0.021000
      8 C5          3.5120    0.3040    3.7300 ca        1 W9L     -0.141000
      9 C6          2.2450    0.8280    3.6970 ca        1 W9L     -0.105000
     10 C7          1.4940    0.8270    2.5050 ca        1 W9L     -0.134000
     11 C8         -2.0990    0.0110   -1.3310 c3        1 W9L      0.082000
     12 C9         -2.6090   -0.2460   -2.7380 c3        1 W9L     -0.106100
     13 C11         5.9340   -1.4110    1.4850 ca        1 W9L     -0.128000
     14 C12         5.1880   -1.4750    0.2860 ca        1 W9L     -0.127000
     15 C40         3.9230   -0.9420    0.2220 ca        1 W9L     -0.126000
     16 C80         5.3860   -0.8260    2.5980 ca        1 W9L     -0.115000
     17 HN1         1.8370    0.1950   -0.7000 hn        1 W9L      0.308500
     18 HN2        -0.1670    0.3310   -2.0180 hn        1 W9L      0.290500
     19 H5          4.1070    0.3150    4.6540 ha        1 W9L      0.134000
     20 H6          1.7940    1.2650    4.6010 ha        1 W9L      0.136000
     21 H7          0.4760    1.2530    2.5220 ha        1 W9L      0.166000
     22 H8         -2.4820    1.0120   -0.9750 h1        1 W9L      0.054200
     23 H8A        -2.5100   -0.7700   -0.6270 h1        1 W9L      0.054200
     24 H9         -2.2880   -1.2490   -3.1090 hc        1 W9L      0.043700
     25 H9A        -2.2430    0.5310   -3.4520 hc        1 W9L      0.043700
     26 H9B        -3.7250   -0.2140   -2.7200 hc        1 W9L      0.043700
     27 H11         6.9470   -1.8380    1.5110 ha        1 W9L      0.134000
     28 H12         5.6320   -1.9620   -0.5950 ha        1 W9L      0.132000
     29 H40         3.3700   -1.0330   -0.7250 ha        1 W9L      0.120000
     30 H80         5.9490   -0.7740    3.5430 ha        1 W9L      0.134000
@<TRIPOS>BOND
     1    1    2 1   
     2    1    3 2   
     3    1    5 1   
     4    2    4 1   
     5    2   17 1   
     6    4    6 ar  
     7    4   10 ar  
     8    5   11 1   
     9    5   18 1   
    10    6    7 ar  
    11    6   15 ar  
    12    7    8 ar  
    13    7   16 ar  
    14    8    9 ar  
    15    8   19 1   
    16    9   10 ar  
    17    9   20 1   
    18   10   21 1   
    19   11   12 1   
    20   11   22 1   
    21   11   23 1   
    22   12   24 1   
    23   12   25 1   
    24   12   26 1   
    25   13   14 ar  
    26   13   16 ar  
    27   13   27 1   
    28   14   15 ar  
    29   14   28 1   
    30   15   29 1   
    31   16   30 1   
@<TRIPOS>SUBSTRUCTURE
     1 W9L         1 TEMP              0 ****  ****    0 ROOT
