@<TRIPOS>MOLECULE
W9L
   31    32     1     0     0
SMALL
bcc


@<TRIPOS>ATOM
      1 C1         -0.2690   -0.6560    0.3710 c         1 W9L      0.635100
      2 N1          0.9530   -0.0470    0.3430 ns        1 W9L     -0.399100
      3 O1         -0.9540   -1.0220    1.3300 o         1 W9L     -0.481100
      4 C2          1.7860   -0.0070    1.5020 ca        1 W9L     -0.020400
      5 N2         -0.9950   -0.8530   -0.9790 ny        1 W9L     -0.678800
      6 C3          3.1920   -0.2800    1.3590 ca        1 W9L     -0.026000
      7 C4          4.0120   -0.1380    2.5100 ca        1 W9L     -0.034000
      8 C5          3.4370    0.2330    3.7560 ca        1 W9L     -0.073000
      9 C6          2.0880    0.4570    3.8640 ca        1 W9L     -0.128000
     10 C7          1.2500    0.3390    2.7360 ca        1 W9L     -0.081000
     11 C8         -1.4030    0.4440   -1.5920 c3        1 W9L      0.109800
     12 C9         -2.2570    0.2620   -2.8290 c3        1 W9L     -0.139100
     13 C11         5.9730   -0.7520    1.2120 ca        1 W9L     -0.118000
     14 C12         5.1560   -0.9080    0.0680 ca        1 W9L     -0.083000
     15 C40         3.8020   -0.6800    0.1390 ca        1 W9L     -0.160000
     16 C80         5.4110   -0.3770    2.4070 ca        1 W9L     -0.093000
     17 HN1         1.4060    0.1460   -0.5260 hn        1 W9L      0.345500
     18 HN2        -1.8380   -1.4100   -0.7720 hn        1 W9L      0.461300
     19 H5          4.0970    0.3310    4.6340 ha        1 W9L      0.158000
     20 H6          1.6350    0.7350    4.8300 ha        1 W9L      0.161000
     21 H7          0.1690    0.5180    2.8610 ha        1 W9L      0.157000
     22 H8         -1.9730    1.0230   -0.8070 hx        1 W9L      0.107700
     23 H8A        -0.4670    1.0190   -1.8510 hx        1 W9L      0.107700
     24 H9         -3.2100   -0.2760   -2.5980 hc        1 W9L      0.082367
     25 H9A        -2.5210    1.2790   -3.2200 hc        1 W9L      0.082367
     26 H9B        -1.7130   -0.2900   -3.6330 hc        1 W9L      0.082367
     27 H11         7.0550   -0.9360    1.1300 ha        1 W9L      0.156000
     28 H12         5.6210   -1.2200   -0.8810 ha        1 W9L      0.148000
     29 H40         3.2020   -0.8270   -0.7700 ha        1 W9L      0.106000
     30 H80         6.0320   -0.2560    3.3090 ha        1 W9L      0.154000
     31 H22        -0.4130   -1.3840   -1.6310 hn        1 W9L      0.461300
@<TRIPOS>BOND
     1    1    2 1   
     2    1    3 2   
     3    1    5 1   
     4    2    4 1   
     5    2   17 1   
     6    4    6 ar  
     7    4   10 ar  
     8    5   11 1   
     9    5   18 1   
    10    5   31 1   
    11    6    7 ar  
    12    6   15 ar  
    13    7    8 ar  
    14    7   16 ar  
    15    8    9 ar  
    16    8   19 1   
    17    9   10 ar  
    18    9   20 1   
    19   10   21 1   
    20   11   12 1   
    21   11   22 1   
    22   11   23 1   
    23   12   24 1   
    24   12   25 1   
    25   12   26 1   
    26   13   14 ar  
    27   13   16 ar  
    28   13   27 1   
    29   14   15 ar  
    30   14   28 1   
    31   15   29 1   
    32   16   30 1   
@<TRIPOS>SUBSTRUCTURE
     1 W9L         1 TEMP              0 ****  ****    0 ROOT
