@<TRIPOS>MOLECULE
W9L
   31    32     1     0     0
SMALL
bcc


@<TRIPOS>ATOM
      1 C1         -0.2720   -0.6430    0.3750 c         1 W9L      0.635100
      2 N1          0.9550   -0.0430    0.3420 n         1 W9L     -0.399100
      3 O1         -0.9590   -0.9990    1.3370 o         1 W9L     -0.481100
      4 C2          1.7880   -0.0020    1.5000 ca        1 W9L     -0.020400
      5 N2         -1.0010   -0.8430   -0.9730 n4        1 W9L     -0.678800
      6 C3          3.1920   -0.2880    1.3580 ca        1 W9L     -0.026000
      7 C4          4.0140   -0.1440    2.5080 ca        1 W9L     -0.034000
      8 C5          3.4430    0.2390    3.7520 ca        1 W9L     -0.073000
      9 C6          2.0960    0.4760    3.8590 ca        1 W9L     -0.128000
     10 C7          1.2560    0.3570    2.7320 ca        1 W9L     -0.081000
     11 C8         -1.4010    0.4540   -1.5930 c3        1 W9L      0.109800
     12 C9         -2.2570    0.2710   -2.8280 c3        1 W9L     -0.139100
     13 C11         5.9680   -0.7830    1.2120 ca        1 W9L     -0.118000
     14 C12         5.1500   -0.9410    0.0700 ca        1 W9L     -0.083000
     15 C40         3.7980   -0.7010    0.1400 ca        1 W9L     -0.160000
     16 C80         5.4110   -0.3960    2.4050 ca        1 W9L     -0.093000
     17 HN1         1.4080    0.1410   -0.5280 hn        1 W9L      0.345500
     18 HN2        -0.4230   -1.3810   -1.6230 hn        1 W9L      0.461300
     19 H5          4.1050    0.3380    4.6290 ha        1 W9L      0.158000
     20 H6          1.6470    0.7640    4.8240 ha        1 W9L      0.161000
     21 H7          0.1770    0.5450    2.8570 ha        1 W9L      0.156000
     22 H8         -0.4620    1.0210   -1.8550 hx        1 W9L      0.107700
     23 H8A        -1.9670    1.0400   -0.8110 hx        1 W9L      0.107700
     24 H9         -3.2130   -0.2600   -2.5940 hc        1 W9L      0.082367
     25 H9A        -2.5140    1.2870   -3.2250 hc        1 W9L      0.082367
     26 H9B        -1.7160   -0.2890   -3.6290 hc        1 W9L      0.082367
     27 H11         7.0500   -0.9770    1.1310 ha        1 W9L      0.156000
     28 H12         5.6110   -1.2630   -0.8770 ha        1 W9L      0.148000
     29 H40         3.1960   -0.8500   -0.7670 ha        1 W9L      0.106000
     30 H80         6.0340   -0.2730    3.3060 ha        1 W9L      0.154000
     31 H22        -1.8480   -1.3930   -0.7630 hn        1 W9L      0.461300
@<TRIPOS>BOND
     1    1    2 1   
     2    1    3 2   
     3    1    5 1   
     4    2    4 1   
     5    2   17 1   
     6    4    6 ar  
     7    4   10 ar  
     8    5   11 1   
     9    5   18 1   
    10    5   31 1   
    11    6    7 ar  
    12    6   15 ar  
    13    7    8 ar  
    14    7   16 ar  
    15    8    9 ar  
    16    8   19 1   
    17    9   10 ar  
    18    9   20 1   
    19   10   21 1   
    20   11   12 1   
    21   11   22 1   
    22   11   23 1   
    23   12   24 1   
    24   12   25 1   
    25   12   26 1   
    26   13   14 ar  
    27   13   16 ar  
    28   13   27 1   
    29   14   15 ar  
    30   14   28 1   
    31   15   29 1   
    32   16   30 1   
@<TRIPOS>SUBSTRUCTURE
     1 W9L         1 TEMP              0 ****  ****    0 ROOT
