@<TRIPOS>MOLECULE
W9M
   25    25     1     0     0
SMALL
bcc


@<TRIPOS>ATOM
      1 C1          0.0870    0.5810   -0.0290 ca        1 W9M      0.033400
      2 C2          1.3790    0.0370   -0.1470 ca        1 W9M      0.032400
      3 C3         -0.5350    0.6510    1.2200 ca        1 W9M     -0.134000
      4 CL4        -0.7460    1.1580   -1.3810 cl        1 W9M     -0.019400
      5 C5          2.0360   -0.4310    0.9960 ca        1 W9M     -0.094000
      6 CL6         2.1500   -0.0620   -1.6430 cl        1 W9M     -0.011400
      7 C7          0.1400    0.1830    2.3650 ca        1 W9M      0.002600
      8 C8          1.4310   -0.3630    2.2470 ca        1 W9M     -0.111000
      9 N9         -0.5080    0.3270    3.6270 n         1 W9M     -0.411100
     10 C10        -0.3250   -0.5670    4.6450 c         1 W9M      0.642100
     11 N11        -1.2200   -0.3900    5.9050 n4        1 W9M     -0.581200
     12 O12         0.5030   -1.4760    4.7480 o         1 W9M     -0.482100
     13 C13        -0.3550   -0.0020    7.0490 c3        1 W9M      0.085100
     14 C14        -1.9250   -1.6710    6.1690 c3        1 W9M      0.085100
     15 H3         -1.5480    1.0810    1.2880 ha        1 W9M      0.157000
     16 H5          3.0490   -0.8610    0.9100 ha        1 W9M      0.176000
     17 H8          1.9730   -0.7470    3.1270 ha        1 W9M      0.168000
     18 H9         -1.2630    0.9810    3.6480 hn        1 W9M      0.345500
     19 H131        0.4430   -0.7830    7.1910 hx        1 W9M      0.112200
     20 H132        0.1250    0.9890    6.8300 hx        1 W9M      0.112200
     21 H133       -0.9800    0.0730    7.9790 hx        1 W9M      0.112200
     22 H141       -1.1670   -2.4950    6.2830 hx        1 W9M      0.112200
     23 H142       -2.5250   -1.5760    7.1130 hx        1 W9M      0.112200
     24 H143       -2.6030   -1.9040    5.3050 hx        1 W9M      0.112200
     25 H111       -1.9210    0.3440    5.7640 hn        1 W9M      0.442800
@<TRIPOS>BOND
     1    1    2 ar  
     2    1    3 ar  
     3    1    4 1   
     4    2    5 ar  
     5    2    6 1   
     6    3    7 ar  
     7    3   15 1   
     8    5    8 ar  
     9    5   16 1   
    10    7    8 ar  
    11    7    9 1   
    12    8   17 1   
    13    9   10 1   
    14    9   18 1   
    15   10   11 1   
    16   10   12 2   
    17   11   13 1   
    18   11   14 1   
    19   11   25 1   
    20   13   19 1   
    21   13   20 1   
    22   13   21 1   
    23   14   22 1   
    24   14   23 1   
    25   14   24 1   
@<TRIPOS>SUBSTRUCTURE
     1 W9M         1 TEMP              0 ****  ****    0 ROOT
