@<TRIPOS>MOLECULE
W9M
   25    25     1     0     0
SMALL
bcc


@<TRIPOS>ATOM
      1 C1          0.1110    0.5700   -0.0300 ca        1 W9M      0.033400
      2 C2          1.4030    0.0240   -0.1380 ca        1 W9M      0.031400
      3 C3         -0.5190    0.6440    1.2140 ca        1 W9M     -0.134000
      4 Cl4        -0.7120    1.1440   -1.3890 cl        1 W9M     -0.019400
      5 C5          2.0520   -0.4430    1.0100 ca        1 W9M     -0.094000
      6 Cl6         2.1830   -0.0810   -1.6290 cl        1 W9M     -0.011400
      7 C7          0.1480    0.1780    2.3660 ca        1 W9M      0.002600
      8 C8          1.4390   -0.3700    2.2570 ca        1 W9M     -0.111000
      9 N9         -0.5080    0.3270    3.6230 ns        1 W9M     -0.411100
     10 C10        -0.3320   -0.5640    4.6450 c         1 W9M      0.642100
     11 N11        -1.2340   -0.3830    5.8990 nx        1 W9M     -0.581200
     12 O12         0.4950   -1.4740    4.7550 o         1 W9M     -0.482100
     13 C13        -0.3770    0.0120    7.0460 c3        1 W9M      0.085100
     14 C14        -1.9400   -1.6630    6.1640 c3        1 W9M      0.085100
     15 H3         -1.5320    1.0760    1.2750 ha        1 W9M      0.157000
     16 H5          3.0650   -0.8740    0.9320 ha        1 W9M      0.176000
     17 H8          1.9750   -0.7530    3.1420 ha        1 W9M      0.168000
     18 H9         -1.2620    0.9820    3.6370 hn        1 W9M      0.345500
     19 H131        0.4210   -0.7670    7.1960 hx        1 W9M      0.112200
     20 H132        0.1030    1.0020    6.8250 hx        1 W9M      0.112200
     21 H133       -1.0070    0.0900    7.9720 hx        1 W9M      0.112200
     22 H141       -1.1820   -2.4860    6.2860 hx        1 W9M      0.112200
     23 H142       -2.6130   -1.9010    5.2970 hx        1 W9M      0.112200
     24 H143       -2.5460   -1.5640    7.1040 hx        1 W9M      0.112200
     25 H111       -1.9360    0.3500    5.7500 hn        1 W9M      0.442800
@<TRIPOS>BOND
     1    1    2 ar  
     2    1    3 ar  
     3    1    4 1   
     4    2    5 ar  
     5    2    6 1   
     6    3    7 ar  
     7    3   15 1   
     8    5    8 ar  
     9    5   16 1   
    10    7    8 ar  
    11    7    9 1   
    12    8   17 1   
    13    9   10 1   
    14    9   18 1   
    15   10   11 1   
    16   10   12 2   
    17   11   13 1   
    18   11   14 1   
    19   11   25 1   
    20   13   19 1   
    21   13   20 1   
    22   13   21 1   
    23   14   22 1   
    24   14   23 1   
    25   14   24 1   
@<TRIPOS>SUBSTRUCTURE
     1 W9M         1 TEMP              0 ****  ****    0 ROOT
