@<TRIPOS>MOLECULE
W9M
   24    24     1     0     0
SMALL
bcc


@<TRIPOS>ATOM
      1 C1         -0.0070   -0.0490   -0.0640 ca        1 W9M      0.044400
      2 C2          1.3870    0.0790   -0.1310 ca        1 W9M     -0.008600
      3 C3         -0.6500   -0.1350    1.1700 ca        1 W9M     -0.179000
      4 CL4        -0.9500   -0.1060   -1.4750 cl        1 W9M     -0.072400
      5 C5          2.1270    0.1220    1.0550 ca        1 W9M     -0.095000
      6 CL6         2.1930    0.1810   -1.6190 cl        1 W9M     -0.070400
      7 C7          0.0960   -0.0840    2.3720 ca        1 W9M      0.083600
      8 C8          1.5000    0.0460    2.2920 ca        1 W9M     -0.135000
      9 N9         -0.6020   -0.1010    3.5910 n         1 W9M     -0.461100
     10 C10        -0.0640   -0.6010    4.7970 c         1 W9M      0.763100
     11 N11        -0.9320   -0.8110    5.8950 n         1 W9M     -0.460800
     12 O12         1.1530   -0.8770    4.9050 o         1 W9M     -0.620100
     13 C13        -0.3160   -1.0730    7.1720 c3        1 W9M      0.069300
     14 C14        -2.2340   -0.2050    5.9240 c3        1 W9M      0.069300
     15 H3         -1.7460   -0.2390    1.1940 ha        1 W9M      0.146000
     16 H5          3.2230    0.2200    1.0110 ha        1 W9M      0.155000
     17 H8          2.1130    0.0790    3.2090 ha        1 W9M      0.181000
     18 H9         -1.5950   -0.0820    3.5010 hn        1 W9M      0.314500
     19 H131       -0.1230   -0.1220    7.7390 h1        1 W9M      0.046200
     20 H132        0.6580   -1.6110    7.0260 h1        1 W9M      0.046200
     21 H133       -1.0090   -1.7220    7.7710 h1        1 W9M      0.046200
     22 H141       -2.8930   -0.6850    5.1500 h1        1 W9M      0.046200
     23 H142       -2.7040   -0.3730    6.9300 h1        1 W9M      0.046200
     24 H143       -2.1960    0.9020    5.7350 h1        1 W9M      0.046200
@<TRIPOS>BOND
     1    1    2 ar  
     2    1    3 ar  
     3    1    4 1   
     4    2    5 ar  
     5    2    6 1   
     6    3    7 ar  
     7    3   15 1   
     8    5    8 ar  
     9    5   16 1   
    10    7    8 ar  
    11    7    9 1   
    12    8   17 1   
    13    9   10 1   
    14    9   18 1   
    15   10   11 1   
    16   10   12 2   
    17   11   13 1   
    18   11   14 1   
    19   13   19 1   
    20   13   20 1   
    21   13   21 1   
    22   14   22 1   
    23   14   23 1   
    24   14   24 1   
@<TRIPOS>SUBSTRUCTURE
     1 W9M         1 TEMP              0 ****  ****    0 ROOT
