@<TRIPOS>MOLECULE
W9T
   45    46     1     0     0
SMALL
bcc


@<TRIPOS>ATOM
      1 O16         0.1930    0.0400   -0.0890 oh        1 W9T     -0.598800
      2 C16         1.6030    0.0080   -0.0610 c3        1 W9T      0.143400
      3 C15         2.1210    0.1090    1.3790 c3        1 W9T      0.112100
      4 C14         3.6550    0.1510    1.4130 c3        1 W9T      0.123100
      5 O14         4.1510   -0.8900    0.5920 oh        1 W9T     -0.590800
      6 C13         4.1540    0.0120    2.8630 c3        1 W9T      0.111100
      7 O13         5.5640   -0.0990    2.7960 oh        1 W9T     -0.605800
      8 C12         3.5380   -1.2410    3.5020 c3        1 W9T      0.087100
      9 O12         3.9520   -1.2600    4.8550 oh        1 W9T     -0.603800
     10 O15         1.5760   -1.0280    2.0540 os        1 W9T     -0.437600
     11 C11         2.0040   -1.1420    3.4030 c3        1 W9T      0.307900
     12 O4          1.4880   -2.3990    3.7940 os        1 W9T     -0.409600
     13 C4          0.0650   -2.4420    3.9030 c3        1 W9T      0.089100
     14 C5         -0.3880   -1.9250    5.2810 c3        1 W9T      0.072100
     15 O5         -0.8290   -3.0540    6.0520 os        1 W9T     -0.455600
     16 C6         -1.5430   -0.9300    5.1660 c3        1 W9T      0.116400
     17 O6         -1.8810   -0.4000    6.4290 oh        1 W9T     -0.592800
     18 C3         -0.3290   -3.9400    3.8590 c3        1 W9T      0.149100
     19 O3         -1.1040   -4.2560    2.7350 oh        1 W9T     -0.568800
     20 C2         -1.0680   -4.1770    5.2000 c3        1 W9T      0.257600
     21 O2         -2.4530   -4.1340    4.9620 oh        1 W9T     -0.616800
     22 C1         -0.6300   -5.4430    5.9490 c3        1 W9T      0.118400
     23 O1         -1.3890   -5.5920    7.1290 oh        1 W9T     -0.595800
     24 H1         -0.1150   -0.7610    0.3560 ho        1 W9T      0.412000
     25 H2          1.9960   -0.9290   -0.5370 h1        1 W9T      0.069200
     26 H3          1.9340    0.9090   -0.6410 h1        1 W9T      0.069200
     27 H4          1.7270    1.0400    1.8770 h1        1 W9T      0.053700
     28 H5          4.0050    1.1420    1.0040 h1        1 W9T      0.059700
     29 H6          5.1060   -0.9320    0.7430 ho        1 W9T      0.426000
     30 H7          3.8740    0.9220    3.4610 h1        1 W9T      0.059700
     31 H8          5.8680   -0.3220    3.6870 ho        1 W9T      0.431000
     32 H9          3.8930   -2.1630    2.9630 h1        1 W9T      0.088700
     33 H10         3.5800   -2.0610    5.2460 ho        1 W9T      0.424000
     34 H11         1.5900   -0.3030    4.0270 h2        1 W9T      0.052700
     35 H12        -0.4100   -1.8750    3.0600 h1        1 W9T      0.091700
     36 H13         0.4630   -1.4810    5.8660 h1        1 W9T      0.089700
     37 H14        -1.2340   -0.0440    4.5500 h1        1 W9T      0.057700
     38 H15        -2.4320   -1.4370    4.7030 h1        1 W9T      0.057700
     39 H16        -2.1060   -1.1490    6.9970 ho        1 W9T      0.412000
     40 H17         0.5850   -4.5900    3.7810 h1        1 W9T      0.111700
     41 H18        -1.9760   -3.8480    2.8410 ho        1 W9T      0.424000
     42 H19        -2.8960   -4.4690    5.7550 ho        1 W9T      0.439000
     43 H20         0.4660   -5.3900    6.1730 h1        1 W9T      0.072200
     44 H21        -0.8670   -6.3460    5.3260 h1        1 W9T      0.072200
     45 H22        -1.1550   -4.8580    7.7130 ho        1 W9T      0.416000
@<TRIPOS>BOND
     1    1    2 1   
     2    1   24 1   
     3    2    3 1   
     4    2   25 1   
     5    2   26 1   
     6    3    4 1   
     7    3   10 1   
     8    3   27 1   
     9    4    5 1   
    10    4    6 1   
    11    4   28 1   
    12    5   29 1   
    13    6    7 1   
    14    6    8 1   
    15    6   30 1   
    16    7   31 1   
    17    8    9 1   
    18    8   11 1   
    19    8   32 1   
    20    9   33 1   
    21   10   11 1   
    22   11   12 1   
    23   11   34 1   
    24   12   13 1   
    25   13   14 1   
    26   13   18 1   
    27   13   35 1   
    28   14   15 1   
    29   14   16 1   
    30   14   36 1   
    31   15   20 1   
    32   16   17 1   
    33   16   37 1   
    34   16   38 1   
    35   17   39 1   
    36   18   19 1   
    37   18   20 1   
    38   18   40 1   
    39   19   41 1   
    40   20   21 1   
    41   20   22 1   
    42   21   42 1   
    43   22   23 1   
    44   22   43 1   
    45   22   44 1   
    46   23   45 1   
@<TRIPOS>SUBSTRUCTURE
     1 W9T         1 TEMP              0 ****  ****    0 ROOT
