@<TRIPOS>MOLECULE
W9T
   45    46     1     0     0
SMALL
bcc


@<TRIPOS>ATOM
      1 O16         0.1690    0.1450   -0.0280 oh        1 W9T     -0.598800
      2 C16         1.5780    0.0940   -0.0210 c3        1 W9T      0.143400
      3 C15         2.1170    0.1510    1.4140 c3        1 W9T      0.112100
      4 C14         3.6520    0.1730    1.4280 c3        1 W9T      0.123100
      5 O14         4.1230   -0.8530    0.5750 oh        1 W9T     -0.590800
      6 C13         4.1680   -0.0090    2.8670 c3        1 W9T      0.111100
      7 O13         5.5760   -0.1370    2.7780 oh        1 W9T     -0.605800
      8 C12         3.5440   -1.2700    3.4830 c3        1 W9T      0.087100
      9 O12         3.9770   -1.3290    4.8300 oh        1 W9T     -0.603800
     10 O15         1.5660   -0.9950    2.0670 os        1 W9T     -0.437600
     11 C11         2.0110   -1.1480    3.4070 c3        1 W9T      0.307900
     12 O4          1.4840   -2.4080    3.7740 os        1 W9T     -0.409600
     13 C4          0.0620   -2.4350    3.9010 c3        1 W9T      0.089100
     14 C5         -0.3650   -1.9490    5.2980 c3        1 W9T      0.072100
     15 O5         -0.8110   -3.0920    6.0460 os        1 W9T     -0.455600
     16 C6         -1.5090   -0.9360    5.2250 c3        1 W9T      0.116400
     17 O6         -1.8230   -0.4350    6.5060 oh        1 W9T     -0.592800
     18 C3         -0.3540   -3.9270    3.8240 c3        1 W9T      0.149100
     19 O3         -1.1480   -4.2030    2.7020 oh        1 W9T     -0.568800
     20 C2         -1.0770   -4.1890    5.1680 c3        1 W9T      0.257600
     21 O2         -2.4650   -4.1220    4.9510 oh        1 W9T     -0.616800
     22 C1         -0.6460   -5.4800    5.8780 c3        1 W9T      0.118400
     23 O1         -1.3900   -5.6500    7.0640 oh        1 W9T     -0.595800
     24 H1         -0.1440   -0.6630    0.4000 ho        1 W9T      0.412000
     25 H2          1.9140    1.0060   -0.5820 h1        1 W9T      0.069200
     26 H3          1.9520   -0.8350   -0.5260 h1        1 W9T      0.069200
     27 H4          1.7420    1.0750    1.9400 h1        1 W9T      0.053700
     28 H5          4.0100    1.1690    1.0400 h1        1 W9T      0.059700
     29 H6          5.0800   -0.9120    0.7110 ho        1 W9T      0.426000
     30 H7          3.9090    0.8890    3.4920 h1        1 W9T      0.059700
     31 H8          5.8890   -0.3870    3.6590 ho        1 W9T      0.431000
     32 H9          3.8800   -2.1830    2.9170 h1        1 W9T      0.088700
     33 H10         3.5990   -2.1350    5.2050 ho        1 W9T      0.424000
     34 H11         1.6160   -0.3210    4.0590 h2        1 W9T      0.052700
     35 H12        -0.4170   -1.8410    3.0800 h1        1 W9T      0.091700
     36 H13         0.4990   -1.5320    5.8820 h1        1 W9T      0.089700
     37 H14        -1.1970   -0.0390    4.6280 h1        1 W9T      0.057700
     38 H15        -2.4110   -1.4200    4.7620 h1        1 W9T      0.057700
     39 H16        -2.0500   -1.1960    7.0570 ho        1 W9T      0.412000
     40 H17         0.5510   -4.5870    3.7160 h1        1 W9T      0.111700
     41 H18        -2.0120   -3.7860    2.8310 ho        1 W9T      0.424000
     42 H19        -2.9010   -4.4720    5.7410 ho        1 W9T      0.439000
     43 H20         0.4540   -5.4470    6.0880 h1        1 W9T      0.072200
     44 H21        -0.9030   -6.3630    5.2350 h1        1 W9T      0.072200
     45 H22        -1.1380   -4.9350    7.6630 ho        1 W9T      0.416000
@<TRIPOS>BOND
     1    1    2 1   
     2    1   24 1   
     3    2    3 1   
     4    2   25 1   
     5    2   26 1   
     6    3    4 1   
     7    3   10 1   
     8    3   27 1   
     9    4    5 1   
    10    4    6 1   
    11    4   28 1   
    12    5   29 1   
    13    6    7 1   
    14    6    8 1   
    15    6   30 1   
    16    7   31 1   
    17    8    9 1   
    18    8   11 1   
    19    8   32 1   
    20    9   33 1   
    21   10   11 1   
    22   11   12 1   
    23   11   34 1   
    24   12   13 1   
    25   13   14 1   
    26   13   18 1   
    27   13   35 1   
    28   14   15 1   
    29   14   16 1   
    30   14   36 1   
    31   15   20 1   
    32   16   17 1   
    33   16   37 1   
    34   16   38 1   
    35   17   39 1   
    36   18   19 1   
    37   18   20 1   
    38   18   40 1   
    39   19   41 1   
    40   20   21 1   
    41   20   22 1   
    42   21   42 1   
    43   22   23 1   
    44   22   43 1   
    45   22   44 1   
    46   23   45 1   
@<TRIPOS>SUBSTRUCTURE
     1 W9T         1 TEMP              0 ****  ****    0 ROOT
