@<TRIPOS>MOLECULE
W9Z
   44    46     1     0     0
SMALL
bcc


@<TRIPOS>ATOM
      1 C1         -0.0690   -0.3840   -0.6460 c2        1 W9Z      0.066000
      2 N1          1.2260   -0.4470   -0.8930 n2        1 W9Z     -0.193000
      3 C2         -1.0900   -0.4850   -1.7390 c3        1 W9Z     -0.207000
      4 N2         -5.0320    2.3160    0.4190 na        1 W9Z     -0.075000
      5 C3         -2.4580   -0.7770   -1.3770 c1        1 W9Z     -0.015000
      6 N3         -6.1060    2.2080    1.1890 n2        1 W9Z     -0.024000
      7 C4         -2.8850   -0.8310    0.0250 c3        1 W9Z     -0.147000
      8 N4         -9.7500    2.9720    4.6880 n2        1 W9Z     -0.318000
      9 C5         -4.2350   -0.1220    0.2240 c3        1 W9Z      0.020000
     10 N5         -8.4210    3.1920    4.8150 n3        1 W9Z     -0.021000
     11 C6         -4.1230    1.3400   -0.0580 c2        1 W9Z     -0.057000
     12 N6         -3.4090    3.2820   -0.8590 n2        1 W9Z     -0.045000
     13 C7         -6.7640    3.3390    1.4660 c2        1 W9Z     -0.010000
     14 C8         -7.9860    3.2610    2.3390 c3        1 W9Z     -0.177000
     15 C9        -10.9200    2.7750    4.6550 c1        1 W9Z      0.184000
     16 C10        -7.5820    3.3330    3.7600 c1        1 W9Z     -0.011000
     17 N10        -3.1820    1.9940   -0.8140 n2        1 W9Z     -0.075000
     18 C12        -6.3620    4.6460    0.9790 c2        1 W9Z     -0.169000
     19 C13        -5.2550    4.7610    0.1910 c2        1 W9Z     -0.024000
     20 C14        -4.5320    3.5630   -0.1240 c2        1 W9Z     -0.100000
     21 C15        -5.2990   -0.7500   -0.6570 c3        1 W9Z     -0.213000
     22 C16        -1.8860   -0.3920    1.0360 c2        1 W9Z     -0.061000
     23 C17        -0.5800   -0.2320    0.7370 c2        1 W9Z     -0.147000
     24 C18         0.4120    0.1600    1.7320 c2        1 W9Z     -0.096000
     25 C19         1.7270    0.1700    1.4000 c2        1 W9Z     -0.217000
     26 C20         2.1120   -0.4350    0.1290 c1        1 W9Z      0.010000
     27 H2         -1.1370    0.5150   -2.2820 hc        1 W9Z      0.188000
     28 H3         -0.7600   -1.2310   -2.5230 hc        1 W9Z      0.188000
     29 H5         -4.5310   -0.2480    1.3070 hc        1 W9Z      0.109000
     30 H9         -8.5660    2.3170    2.1220 hc        1 W9Z      0.141500
     31 H10        -8.6670    4.1240    2.0840 hc        1 W9Z      0.141500
     32 H11        -6.8180    3.4370    6.1020 ha        1 W9Z      0.069000
     33 H11A       -8.4440    5.3230    7.0310 ha        1 W9Z      0.008000
     34 H11B       -7.9330    5.5630    6.6530 ha        1 W9Z      0.008000
     35 H12        -6.9630    5.5200    1.2660 ha        1 W9Z      0.159000
     36 H13        -4.8890    5.7170   -0.2120 ha        1 W9Z      0.177000
     37 H15        -6.2670   -0.2080   -0.5430 hc        1 W9Z      0.095333
     38 H15A       -5.4480   -1.8160   -0.3620 hc        1 W9Z      0.095333
     39 H15B       -4.9810   -0.7180   -1.7290 hc        1 W9Z      0.095333
     40 H16        -3.0780   -1.9430    0.2020 hc        1 W9Z      0.166000
     41 H18        -2.2610   -0.2030    2.0560 ha        1 W9Z      0.137000
     42 H19         0.0480    0.4080    2.7400 ha        1 W9Z      0.135000
     43 H20         2.5200    0.4900    2.0860 ha        1 W9Z      0.157000
     44 C11        -7.9180    3.2540    6.1000 c1        1 W9Z      0.055000
@<TRIPOS>BOND
     1    1    2 1   
     2    1    3 1   
     3    1   23 1   
     4    2   26 1   
     5    3    5 1   
     6    3   27 1   
     7    3   28 1   
     8    4    6 1   
     9    4   11 1   
    10    4   20 1   
    11    5    7 1   
    12    6   13 1   
    13    7    9 1   
    14    7   22 1   
    15    7   40 1   
    16    8   10 1   
    17    8   15 1   
    18    9   11 1   
    19    9   21 1   
    20    9   29 1   
    21   10   16 1   
    22   10   44 1   
    23   11   17 1   
    24   12   17 1   
    25   12   20 1   
    26   13   14 1   
    27   13   18 1   
    28   14   16 1   
    29   14   30 1   
    30   14   31 1   
    31   18   19 1   
    32   18   35 1   
    33   19   20 1   
    34   19   36 1   
    35   21   37 1   
    36   21   38 1   
    37   21   39 1   
    38   22   23 1   
    39   22   41 1   
    40   23   24 1   
    41   24   25 1   
    42   24   42 1   
    43   25   26 1   
    44   25   43 1   
    45   32   44 1   
    46   33   34 1   
@<TRIPOS>SUBSTRUCTURE
     1 W9Z         1 TEMP              0 ****  ****    0 ROOT
