@<TRIPOS>MOLECULE
W9Z
   44    46     1     0     0
SMALL
bcc


@<TRIPOS>ATOM
      1 C1         -0.1140   -0.3720   -0.4070 c2        1 W9Z      0.066000
      2 N1          1.1870   -0.4470   -0.6120 n2        1 W9Z     -0.193000
      3 C2         -1.1030   -0.5720   -1.5150 c3        1 W9Z     -0.207000
      4 N2         -5.1210    2.3690    0.2900 na        1 W9Z     -0.075000
      5 C3         -2.4790   -0.8430   -1.1690 c1        1 W9Z     -0.015000
      6 N3         -6.2160    2.3160    1.0350 n2        1 W9Z     -0.025000
      7 C4         -2.9450   -0.7840    0.2210 c3        1 W9Z     -0.147000
      8 N4         -9.9680    3.3670    4.3500 n2        1 W9Z     -0.318000
      9 C5         -4.3040   -0.0710    0.3230 c3        1 W9Z      0.020000
     10 N5         -8.6470    3.6220    4.4940 n3        1 W9Z     -0.021000
     11 C6         -4.1930    1.3630   -0.0770 c2        1 W9Z     -0.058000
     12 N6         -3.4670    3.2370   -1.0180 n2        1 W9Z     -0.045000
     13 C7         -6.8880    3.4610    1.1970 c2        1 W9Z     -0.009000
     14 C8         -8.1360    3.4470    2.0370 c3        1 W9Z     -0.177000
     15 C9        -11.1340    3.1510    4.3020 c1        1 W9Z      0.184000
     16 C10        -7.7760    3.6620    3.4560 c1        1 W9Z     -0.011000
     17 N10        -3.2340    1.9600   -0.8580 n2        1 W9Z     -0.075000
     18 C12        -6.4800    4.7260    0.6140 c2        1 W9Z     -0.169000
     19 C13        -5.3500    4.7840   -0.1490 c2        1 W9Z     -0.024000
     20 C14        -4.6120    3.5700   -0.3410 c2        1 W9Z     -0.100000
     21 C15        -5.3390   -0.7780   -0.5320 c3        1 W9Z     -0.213000
     22 C16        -1.9780   -0.2540    1.2190 c2        1 W9Z     -0.062000
     23 C17        -0.6650   -0.1090    0.9440 c2        1 W9Z     -0.146000
     24 C18         0.2970    0.3730    1.9290 c2        1 W9Z     -0.097000
     25 C19         1.6200    0.3640    1.6340 c2        1 W9Z     -0.217000
     26 C20         2.0450   -0.3420    0.4300 c1        1 W9Z      0.010000
     27 H2         -1.1410    0.3790   -2.1420 hc        1 W9Z      0.188500
     28 H3         -0.7480   -1.3790   -2.2250 hc        1 W9Z      0.188500
     29 H5         -4.6300   -0.1090    1.4040 hc        1 W9Z      0.109000
     30 H9         -8.8200    4.2690    1.6790 hc        1 W9Z      0.141500
     31 H10        -8.6950    2.4760    1.8980 hc        1 W9Z      0.141500
     32 H11        -7.0950    4.0580    5.7930 ha        1 W9Z      0.069000
     33 H11A       -8.0180    1.8230    6.9010 ha        1 W9Z      0.007500
     34 H11B       -7.4360    1.7450    6.5580 ha        1 W9Z      0.007500
     35 H12        -7.0930    5.6160    0.8100 ha        1 W9Z      0.159000
     36 H13        -4.9780    5.7060   -0.6190 ha        1 W9Z      0.177000
     37 H15        -6.3140   -0.2360   -0.4900 hc        1 W9Z      0.095333
     38 H15A       -5.4910   -1.8180   -0.1530 hc        1 W9Z      0.095333
     39 H15B       -4.9920   -0.8340   -1.5940 hc        1 W9Z      0.095333
     40 H16        -3.1380   -1.8780    0.4850 hc        1 W9Z      0.166000
     41 H18        -2.3830    0.0170    2.2090 ha        1 W9Z      0.137000
     42 H19        -0.0970    0.7020    2.9020 ha        1 W9Z      0.135000
     43 H20         2.3920    0.7470    2.3130 ha        1 W9Z      0.157000
     44 C11        -8.1910    3.8540    5.7770 c1        1 W9Z      0.055000
@<TRIPOS>BOND
     1    1    2 1   
     2    1    3 1   
     3    1   23 1   
     4    2   26 1   
     5    3    5 1   
     6    3   27 1   
     7    3   28 1   
     8    4    6 1   
     9    4   11 1   
    10    4   20 1   
    11    5    7 1   
    12    6   13 1   
    13    7    9 1   
    14    7   22 1   
    15    7   40 1   
    16    8   10 1   
    17    8   15 1   
    18    9   11 1   
    19    9   21 1   
    20    9   29 1   
    21   10   16 1   
    22   10   44 1   
    23   11   17 1   
    24   12   17 1   
    25   12   20 1   
    26   13   14 1   
    27   13   18 1   
    28   14   16 1   
    29   14   30 1   
    30   14   31 1   
    31   18   19 1   
    32   18   35 1   
    33   19   20 1   
    34   19   36 1   
    35   21   37 1   
    36   21   38 1   
    37   21   39 1   
    38   22   23 1   
    39   22   41 1   
    40   23   24 1   
    41   24   25 1   
    42   24   42 1   
    43   25   26 1   
    44   25   43 1   
    45   32   44 1   
    46   33   34 1   
@<TRIPOS>SUBSTRUCTURE
     1 W9Z         1 TEMP              0 ****  ****    0 ROOT
