@<TRIPOS>MOLECULE
W9Z
   44    48     1     0     0
SMALL
bcc


@<TRIPOS>ATOM
      1 C1          3.8750    0.8100   -0.5560 ca        1 W9Z      0.396600
      2 N1          4.7970    1.4870   -1.3350 nb        1 W9Z     -0.654000
      3 C2          3.8380   -0.6220   -0.5740 ca        1 W9Z     -0.165300
      4 N2         -0.9990   -1.8780    0.3680 na        1 W9Z      0.092300
      5 C3          2.9300   -1.3030    0.1960 ca        1 W9Z     -0.109000
      6 N3         -1.6360   -0.7160    0.3560 nc        1 W9Z     -0.485800
      7 C4          2.0050   -0.6140    1.0240 ca        1 W9Z     -0.077300
      8 N4         -5.1410    2.1480   -0.8090 nc        1 W9Z     -0.504800
      9 C5          1.0370   -1.3850    1.8700 c3        1 W9Z     -0.008700
     10 N5         -4.0980    2.7540   -0.2060 na        1 W9Z      0.090400
     11 C6          0.1930   -2.2800    1.0190 cc        1 W9Z      0.340800
     12 N6         -0.5370   -4.0680   -0.0710 nd        1 W9Z     -0.057000
     13 C7         -2.7680   -0.6500   -0.3680 cd        1 W9Z      0.500800
     14 C8         -3.4870    0.6000   -0.4120 cd        1 W9Z     -0.348800
     15 C9         -4.8110    0.8430   -0.9530 cd        1 W9Z      0.329200
     16 C10        -3.0630    1.8600    0.0620 cc        1 W9Z     -0.082300
     17 N10         0.4040   -3.6020    0.7080 nd        1 W9Z     -0.355700
     18 C12        -3.3030   -1.7820   -1.1120 cd        1 W9Z     -0.233300
     19 C13        -2.6490   -2.9780   -1.0930 cc        1 W9Z     -0.031000
     20 C14        -1.4400   -3.0670   -0.3270 cc        1 W9Z     -0.132300
     21 C15         1.7680   -2.1900    2.9320 c3        1 W9Z     -0.085100
     22 C16         2.0160    0.7640    1.0580 ca        1 W9Z     -0.105000
     23 C17         2.9440    1.4990    0.2790 ca        1 W9Z     -0.150300
     24 C18         2.9830    2.9240    0.2990 ca        1 W9Z     -0.082000
     25 C19         3.9020    3.5830   -0.4770 ca        1 W9Z     -0.251300
     26 C20         4.7940    2.8070   -1.2850 ca        1 W9Z      0.411200
     27 H2          4.5500   -1.1660   -1.2150 ha        1 W9Z      0.154000
     28 H3          2.9060   -2.4050    0.1800 ha        1 W9Z      0.155000
     29 H5          0.3500   -0.6570    2.3970 hc        1 W9Z      0.073700
     30 H9         -5.4930    0.1260   -1.4120 h4        1 W9Z      0.048100
     31 H10        -2.1320    2.1550    0.5460 h4        1 W9Z      0.191000
     32 H11        -4.9240    4.4190    0.7940 h1        1 W9Z      0.063033
     33 H11A       -3.0980    4.3940    0.6220 h1        1 W9Z      0.063033
     34 H11B       -4.1570    4.7700   -0.8270 h1        1 W9Z      0.063033
     35 H12        -4.2300   -1.6390   -1.6830 ha        1 W9Z      0.157000
     36 H13        -2.9970   -3.8710   -1.6320 ha        1 W9Z      0.171000
     37 H15         2.5000   -2.8940    2.4670 hc        1 W9Z      0.050033
     38 H15A        2.3210   -1.4960    3.6100 hc        1 W9Z      0.050033
     39 H15B        1.0390   -2.7820    3.5360 hc        1 W9Z      0.050033
     40 H16         1.3060    1.3190    1.6910 ha        1 W9Z      0.132000
     41 H18         2.2750    3.4690    0.9400 ha        1 W9Z      0.134000
     42 H19         3.9720    4.6780   -0.4960 ha        1 W9Z      0.143000
     43 H20         5.5420    3.3210   -1.9170 h4        1 W9Z      0.022100
     44 C11        -4.0690    4.1620    0.1130 c3        1 W9Z      0.036600
@<TRIPOS>BOND
     1    1    2 ar  
     2    1    3 ar  
     3    1   23 ar  
     4    2   26 ar  
     5    3    5 ar  
     6    3   27 1   
     7    4    6 1   
     8    4   11 1   
     9    4   20 1   
    10    5    7 ar  
    11    5   28 1   
    12    6   13 2   
    13    7    9 1   
    14    7   22 ar  
    15    8   10 1   
    16    8   15 2   
    17    9   11 1   
    18    9   21 1   
    19    9   29 1   
    20   10   16 1   
    21   10   44 1   
    22   11   17 2   
    23   12   17 1   
    24   12   20 2   
    25   13   14 1   
    26   13   18 1   
    27   14   15 1   
    28   14   16 2   
    29   15   30 1   
    30   16   31 1   
    31   18   19 2   
    32   18   35 1   
    33   19   20 1   
    34   19   36 1   
    35   21   37 1   
    36   21   38 1   
    37   21   39 1   
    38   22   23 ar  
    39   22   40 1   
    40   23   24 ar  
    41   24   25 ar  
    42   24   41 1   
    43   25   26 ar  
    44   25   42 1   
    45   26   43 1   
    46   32   44 1   
    47   33   44 1   
    48   34   44 1   
@<TRIPOS>SUBSTRUCTURE
     1 W9Z         1 TEMP              0 ****  ****    0 ROOT
