@<TRIPOS>MOLECULE
WA1
   23    24     1     0     0
SMALL
bcc


@<TRIPOS>ATOM
      1 OAA        -0.2690   -0.1120   -0.1360 o         1 WA1     -0.592100
      2 CAB        -0.0480    0.2370    4.9810 ca        1 WA1     -0.143000
      3 CAC        -0.7480   -0.3780    3.9450 ca        1 WA1     -0.107500
      4 CAD         1.2080    0.7880    4.7300 ca        1 WA1     -0.107500
      5 CAE        -0.2080   -0.4530    2.6630 ca        1 WA1     -0.152000
      6 CAF         1.7640    0.7330    3.4560 ca        1 WA1     -0.152000
      7 CAG         1.9160   -0.0540   -3.7090 cc        1 WA1      0.167200
      8 NAH         1.1140   -0.1400   -4.8490 nc        1 WA1     -0.257000
      9 NAI        -0.1070   -0.1210   -4.5950 nd        1 WA1     -0.184100
     10 NAJ         1.6870    0.0010    1.1400 ns        1 WA1     -0.451100
     11 NAK         1.7270    0.1850   -1.2600 ns        1 WA1     -0.436100
     12 SAL        -0.4780    0.0020   -2.9630 ss        1 WA1      0.199200
     13 CAM         0.9710    0.0230   -0.0690 c         1 WA1      0.769100
     14 CAN         1.0600    0.1040    2.4020 ca        1 WA1      0.051600
     15 CAO         1.1700    0.0390   -2.5100 cd        1 WA1     -0.003800
     16 HAC        -1.7410   -0.8140    4.1350 ha        1 WA1      0.137000
     17 HAD         1.7660    1.2770    5.5420 ha        1 WA1      0.137000
     18 HAE        -0.7840   -0.9390    1.8580 ha        1 WA1      0.149500
     19 HAF         2.7550    1.1780    3.2840 ha        1 WA1      0.149500
     20 HAG         3.0030   -0.0600   -3.8150 h4        1 WA1      0.053100
     21 HNAJ        2.6380    0.3030    1.1250 hn        1 WA1      0.312500
     22 HNAK        2.7220    0.1480   -1.2210 hn        1 WA1      0.325500
     23 HAB        -0.4820    0.2890    5.9890 ha        1 WA1      0.137000
@<TRIPOS>BOND
     1    1   13 2   
     2    2    3 ar  
     3    2    4 ar  
     4    2   23 1   
     5    3    5 ar  
     6    3   16 1   
     7    4    6 ar  
     8    4   17 1   
     9    5   14 ar  
    10    5   18 1   
    11    6   14 ar  
    12    6   19 1   
    13    7    8 1   
    14    7   15 2   
    15    7   20 1   
    16    8    9 2   
    17    9   12 1   
    18   10   13 1   
    19   10   14 1   
    20   10   21 1   
    21   11   13 1   
    22   11   15 1   
    23   11   22 1   
    24   12   15 1   
@<TRIPOS>SUBSTRUCTURE
     1 WA1         1 TEMP              0 ****  ****    0 ROOT
