@<TRIPOS>MOLECULE
WA1
   25    26     1     0     0
SMALL
bcc


@<TRIPOS>ATOM
      1 OAA         2.4340    2.4680    0.6010 o         1 WA1     -0.287100
      2 CAB        -0.3310   -0.2960    4.1210 ca        1 WA1     -0.024000
      3 CAC        -0.4420   -1.1640    3.0290 ca        1 WA1     -0.089000
      4 CAD         0.6220    0.7270    4.1120 ca        1 WA1     -0.089000
      5 CAE         0.3900   -1.0220    1.9230 ca        1 WA1     -0.091500
      6 CAF         1.4720    0.8930    3.0210 ca        1 WA1     -0.091500
      7 CAG         1.2220   -0.9230   -2.2220 cc        1 WA1      0.326200
      8 NAH         0.1240   -1.6950   -2.5790 nc        1 WA1     -0.197000
      9 NAI        -0.9690   -1.0920   -2.4160 nd        1 WA1     -0.074100
     10 NAJ         2.3100    0.1000    0.8120 n4        1 WA1     -0.475200
     11 NAK         1.7510    1.3930   -1.3690 n4        1 WA1     -0.446200
     12 SAL        -0.8620    0.4370   -1.8270 ss        1 WA1      0.446200
     13 CAM         2.1870    1.3940    0.0800 c         1 WA1      0.477100
     14 CAN         1.3540    0.0070    1.9310 ca        1 WA1     -0.117400
     15 CAO         0.8370    0.3570   -1.7280 cd        1 WA1     -0.326800
     16 HAD         0.7120    1.4100    4.9780 ha        1 WA1      0.198500
     17 HAE         0.3000   -1.7350    1.0870 ha        1 WA1      0.165500
     18 HAF         2.2180    1.7060    3.0320 ha        1 WA1      0.165500
     19 HAG         2.2320   -1.3300   -2.3840 h4        1 WA1      0.096100
     20 HNAJ        2.1760   -0.7110    0.1850 hn        1 WA1      0.501800
     21 HNAK        1.3190    2.3260   -1.5540 hn        1 WA1      0.515300
     22 HAB        -0.9990   -0.4220    4.9960 ha        1 WA1      0.201000
     23 HAJ2        3.2700    0.0710    1.2160 hn        1 WA1      0.501800
     24 HAK2        2.6040    1.3220   -1.9610 hn        1 WA1      0.515300
     25 HAC        -1.1900   -1.9790    3.0440 ha        1 WA1      0.198500
@<TRIPOS>BOND
     1    1   13 2   
     2    2    3 ar  
     3    2    4 ar  
     4    2   22 1   
     5    3    5 ar  
     6    3   25 1   
     7    4    6 ar  
     8    4   16 1   
     9    5   14 ar  
    10    5   17 1   
    11    6   14 ar  
    12    6   18 1   
    13    7    8 1   
    14    7   15 2   
    15    7   19 1   
    16    8    9 2   
    17    9   12 1   
    18   10   13 1   
    19   10   14 1   
    20   10   20 1   
    21   10   23 1   
    22   11   13 1   
    23   11   15 1   
    24   11   21 1   
    25   11   24 1   
    26   12   15 1   
@<TRIPOS>SUBSTRUCTURE
     1 WA1         1 TEMP              0 ****  ****    0 ROOT
