@<TRIPOS>MOLECULE
WA1
   23    24     1     0     0
SMALL
bcc


@<TRIPOS>ATOM
      1 OAA         0.1260    0.9100   -0.0580 o         1 WA1     -0.592100
      2 CAB        -5.0030    0.7460    0.0830 ca        1 WA1     -0.143000
      3 CAC        -3.9350    1.5010   -0.3970 ca        1 WA1     -0.107500
      4 CAD        -4.7910   -0.5770    0.4690 ca        1 WA1     -0.107500
      5 CAE        -2.6590    0.9510   -0.5000 ca        1 WA1     -0.152000
      6 CAF        -3.5250   -1.1450    0.3820 ca        1 WA1     -0.152000
      7 CAG         3.6610   -1.3330   -0.1750 cc        1 WA1      0.167200
      8 NAH         4.8150   -0.5500   -0.1130 nc        1 WA1     -0.257000
      9 NAI         4.5800    0.6620    0.0620 nd        1 WA1     -0.184100
     10 NAJ        -1.1820   -1.0180   -0.2530 n         1 WA1     -0.451100
     11 NAK         1.2080   -1.1290    0.0050 n         1 WA1     -0.436100
     12 SAL         2.9500    1.0450    0.1790 ss        1 WA1      0.199200
     13 CAM         0.0350   -0.3350   -0.0940 c         1 WA1      0.769100
     14 CAN        -2.4380   -0.3850   -0.1100 ca        1 WA1      0.051600
     15 CAO         2.4710   -0.5830   -0.0220 cd        1 WA1     -0.003800
     16 HAC        -4.0930    2.5470   -0.7020 ha        1 WA1      0.137000
     17 HAD        -5.6290   -1.1800    0.8500 ha        1 WA1      0.137000
     18 HAE        -1.8290    1.5710   -0.8760 ha        1 WA1      0.149500
     19 HAF        -3.3840   -2.1910    0.6950 ha        1 WA1      0.149500
     20 HAG         3.7510   -2.4110   -0.3240 h4        1 WA1      0.053100
     21 HNAJ       -1.1930   -2.0000   -0.0820 hn        1 WA1      0.312500
     22 HNAK        1.1560   -2.1100   -0.1670 hn        1 WA1      0.325500
     23 HAB        -6.0060    1.1900    0.1580 ha        1 WA1      0.137000
@<TRIPOS>BOND
     1    1   13 2   
     2    2    3 ar  
     3    2    4 ar  
     4    2   23 1   
     5    3    5 ar  
     6    3   16 1   
     7    4    6 ar  
     8    4   17 1   
     9    5   14 ar  
    10    5   18 1   
    11    6   14 ar  
    12    6   19 1   
    13    7    8 1   
    14    7   15 2   
    15    7   20 1   
    16    8    9 2   
    17    9   12 1   
    18   10   13 1   
    19   10   14 1   
    20   10   21 1   
    21   11   13 1   
    22   11   15 1   
    23   11   22 1   
    24   12   15 1   
@<TRIPOS>SUBSTRUCTURE
     1 WA1         1 TEMP              0 ****  ****    0 ROOT
