@<TRIPOS>MOLECULE
WA1
   23    20     1     0     0
SMALL
bcc


@<TRIPOS>ATOM
      1 OAA        -1.0240   -0.3330   -1.0020 o         1 WA1     -0.592100
      2 CAB        -0.5370   -0.2850    4.1440 c1        1 WA1     -0.064750
      3 CAC        -0.6940   -1.2900    3.2030 c1        1 WA1     -0.064750
      4 CAD        -0.1020    0.9710    3.7490 c1        1 WA1     -0.064750
      5 CAE        -0.4170   -1.0400    1.8680 c1        1 WA1     -0.064750
      6 CAF         0.1750    1.2210    2.4140 c1        1 WA1     -0.115500
      7 CAG         0.3610    0.5120   -4.7480 c1        1 WA1     -0.234900
      8 NAH        -0.2950   -0.4840   -5.7110 n1        1 WA1      0.002000
      9 NAI        -0.8630   -1.5620   -4.9350 n2        1 WA1     -0.190500
     10 NAJ         0.7010    0.4750    0.2580 n         1 WA1     -0.464700
     11 NAK         0.7850    0.3850   -2.1960 n         1 WA1     -0.446100
     12 SAL        -0.5930   -1.2890   -3.5140 ss        1 WA1      0.238900
     13 CAM         0.0870    0.1590   -0.9820 c         1 WA1      0.769100
     14 CAN         0.0170    0.2150    1.4740 c1        1 WA1      0.065200
     15 CAO         0.1860    0.0360   -3.4340 c2        1 WA1     -0.020900
     16 HAB        -0.7310   -0.4610    5.0840 ha        1 WA1      0.087750
     17 HAC        -1.0000   -2.1750    3.4810 ha        1 WA1      0.087750
     18 HAD         0.0090    1.6800    4.4120 ha        1 WA1      0.087750
     19 HAE        -0.5280   -1.7490    1.2060 ha        1 WA1      0.087750
     20 HAF         0.4800    2.1060    2.1370 ha        1 WA1      0.071500
     21 HAG         0.8210    1.3350   -5.0010 DU        1 WA1      0.190000
     22 HNAJ        1.5430    0.8230    0.2740 hn        1 WA1      0.312500
     23 HNAK        1.6200    0.7500   -2.1810 hn        1 WA1      0.325500
@<TRIPOS>BOND
     1    1   13 2   
     2    2    4 3   
     3    2   16 1   
     4    3    5 3   
     5    3   17 1   
     6    4   18 1   
     7    5   19 1   
     8    6   14 3   
     9    6   20 1   
    10    7    8 2   
    11    7   15 2   
    12    8    9 2   
    13    9   12 1   
    14   10   13 1   
    15   10   14 1   
    16   10   22 1   
    17   11   13 1   
    18   11   15 1   
    19   11   23 1   
    20   12   15 1   
@<TRIPOS>SUBSTRUCTURE
     1 WA1         1 TEMP              0 ****  ****    0 ROOT
