@<TRIPOS>MOLECULE
WA2
   31    29     1     0     0
SMALL
bcc


@<TRIPOS>ATOM
      1 N1         -0.2030    1.4150    0.3430 n3        1 WA2     -0.384000
      2 C2          1.4780   -1.5320   -0.1920 c1        1 WA2      0.153500
      3 N3          1.3520   -1.0850    0.8970 n2        1 WA2     -0.295000
      4 C4          1.2070   -0.5820    2.1800 c2        1 WA2      0.103000
      5 C5          0.1940    0.3120    2.4960 c2        1 WA2      0.063000
      6 C6         -0.7840    0.7280    1.4130 c2        1 WA2      0.124000
      7 N6         -2.0210    0.3510    1.5770 n2        1 WA2     -0.251000
      8 N7          0.0320    0.9240    3.7260 n3        1 WA2     -0.309000
      9 C8          2.9170   -1.3890    3.9230 c1        1 WA2      0.153500
     10 N9          2.1240   -1.0100    3.1310 n2        1 WA2     -0.295000
     11 CAA        -4.7210   -2.0580   -1.9870 c3        1 WA2     -0.274000
     12 CAE        -6.5750   -0.3520   -2.1060 c3        1 WA2     -0.074000
     13 CAF        -3.0330    0.6690    0.6070 c3        1 WA2     -0.084000
     14 CAG        -4.4170    0.2190    1.0550 c3        1 WA2     -0.202000
     15 CAP        -5.9040   -1.5360   -2.6200 c1        1 WA2     -0.102000
     16 H2          0.6870    1.8210    0.5060 hn        1 WA2      0.211000
     17 HN6        -0.8090    1.9340   -0.2500 hn        1 WA2      0.211000
     18 H8          0.4720    0.4790    4.5020 hn        1 WA2      0.209000
     19 HAAA       -4.3480   -1.5030   -1.0860 hc        1 WA2      0.113000
     20 HAAB       -3.9020   -2.0870   -2.7590 hc        1 WA2      0.113000
     21 HOAB       -7.8170   -0.6040   -3.5800 ho        1 WA2      0.223000
     22 HAE        -6.9620   -0.5430   -1.0600 h1        1 WA2      0.110500
     23 HAEA       -5.8790    0.5380   -2.0610 h1        1 WA2      0.110500
     24 HAF        -5.1470    0.4420    0.2380 hc        1 WA2      0.080000
     25 HAFA       -2.7990    0.1660   -0.3790 h1        1 WA2      0.071500
     26 HAG        -3.0730    1.7810    0.4040 h1        1 WA2      0.071500
     27 HAGA       -4.4350   -0.8780    1.2620 hc        1 WA2      0.080000
     28 HAP        -4.7350    0.7570    1.9790 hc        1 WA2      0.080000
     29 HN7        -0.8990    1.2280    3.9200 hn        1 WA2      0.209000
     30 HAA        -4.9250   -3.1250   -1.6960 hc        1 WA2      0.113000
     31 OAB        -7.6850    0.0570   -2.8860 oh        1 WA2     -0.333000
@<TRIPOS>BOND
     1    1    6 1   
     2    1   16 1   
     3    1   17 1   
     4    2    3 1   
     5    3    4 1   
     6    4    5 1   
     7    4   10 1   
     8    5    6 1   
     9    5    8 1   
    10    6    7 1   
    11    7   13 1   
    12    8   18 1   
    13    8   29 1   
    14    9   10 1   
    15   11   15 1   
    16   11   19 1   
    17   11   20 1   
    18   11   30 1   
    19   12   15 1   
    20   12   22 1   
    21   12   23 1   
    22   12   31 1   
    23   13   14 1   
    24   13   25 1   
    25   13   26 1   
    26   14   24 1   
    27   14   27 1   
    28   14   28 1   
    29   21   31 1   
@<TRIPOS>SUBSTRUCTURE
     1 WA2         1 TEMP              0 ****  ****    0 ROOT
