@<TRIPOS>MOLECULE
WA2
   31    32     1     0     0
SMALL
bcc


@<TRIPOS>ATOM
      1 N1          1.1820    1.5920    0.2830 nb        1 WA2     -0.746000
      2 C2          2.4110    2.1820    0.3790 ca        1 WA2      0.644900
      3 N3          3.6430    1.6380    0.3030 nb        1 WA2     -0.654000
      4 C4          3.6350    0.2840    0.1190 ca        1 WA2      0.571300
      5 C5          2.3800   -0.4640    0.0130 ca        1 WA2     -0.363800
      6 C6          1.1400    0.2430    0.0990 ca        1 WA2      0.678200
      7 N6         -0.0630   -0.4840    0.0720 nh        1 WA2     -0.829900
      8 N7          2.7330   -1.8000   -0.1830 na        1 WA2     -0.262300
      9 C8          4.1370   -1.8340   -0.1530 cc        1 WA2      0.433700
     10 N9          4.7140   -0.6300   -0.0010 nd        1 WA2     -0.625700
     11 CAA        -4.0760    0.8490   -1.2850 c3        1 WA2     -0.092100
     12 CAE        -4.9820   -0.8250    0.3260 c3        1 WA2      0.132400
     13 CAF        -1.3160    0.2440    0.0750 c3        1 WA2      0.184800
     14 CAG        -2.5260   -0.6840   -0.0320 c3        1 WA2     -0.088400
     15 CAP        -3.8180    0.1170    0.0140 c3        1 WA2     -0.065700
     16 H2          2.3800    3.2820    0.5360 h5        1 WA2      0.056100
     17 HN6        -0.0410   -1.2340   -0.5890 hn        1 WA2      0.395800
     18 H8          4.6910   -2.7750   -0.2740 h5        1 WA2      0.073800
     19 HAAA       -4.0690    0.1410   -2.1480 hc        1 WA2      0.041033
     20 HAAB       -5.0770    1.3450   -1.2420 hc        1 WA2      0.041033
     21 HOAB       -6.8430   -0.6220    0.7880 ho        1 WA2      0.401000
     22 HAE        -4.7400   -1.4650    1.2170 h1        1 WA2      0.021700
     23 HAEA       -5.1940   -1.4900   -0.5540 h1        1 WA2      0.021700
     24 HAF        -1.3730    0.8190    1.0440 h1        1 WA2      0.060200
     25 HAFA       -1.3570    0.9950   -0.7670 h1        1 WA2      0.060200
     26 HAG        -2.4850   -1.2710   -0.9870 hc        1 WA2      0.045200
     27 HAGA       -2.5100   -1.4180    0.8170 hc        1 WA2      0.045200
     28 HAP        -3.7570    0.8740    0.8470 hc        1 WA2      0.071700
     29 HN7         2.1230   -2.5710   -0.1180 hn        1 WA2      0.308700
     30 HAA        -3.2980    1.6300   -1.4590 hc        1 WA2      0.041033
     31 OAB        -6.1130   -0.0180    0.6110 oh        1 WA2     -0.599800
@<TRIPOS>BOND
     1    1    2 ar  
     2    1    6 ar  
     3    2    3 ar  
     4    2   16 1   
     5    3    4 ar  
     6    4    5 ar  
     7    4   10 1   
     8    5    6 ar  
     9    5    8 1   
    10    6    7 1   
    11    7   13 1   
    12    7   17 1   
    13    8    9 1   
    14    8   29 1   
    15    9   10 2   
    16    9   18 1   
    17   11   15 1   
    18   11   19 1   
    19   11   20 1   
    20   11   30 1   
    21   12   15 1   
    22   12   22 1   
    23   12   23 1   
    24   12   31 1   
    25   13   14 1   
    26   13   24 1   
    27   13   25 1   
    28   14   15 1   
    29   14   26 1   
    30   14   27 1   
    31   15   28 1   
    32   21   31 1   
@<TRIPOS>SUBSTRUCTURE
     1 WA2         1 TEMP              0 ****  ****    0 ROOT
