@<TRIPOS>MOLECULE
WA2
   31    30     1     0     0
SMALL
bcc


@<TRIPOS>ATOM
      1 N1          0.0290    0.7860   -0.0330 nv        1 WA2     -0.946800
      2 C2          1.7490   -2.0640    0.7850 c1        1 WA2      0.479800
      3 N3          1.4090   -1.2920    1.6160 n1        1 WA2     -1.111000
      4 C4          1.0130   -0.4040    2.6030 ce        1 WA2      1.082400
      5 C5         -0.0320    0.4860    2.4010 cf        1 WA2      0.058400
      6 C6         -0.7670    0.4710    1.0730 cf        1 WA2      0.651500
      7 N6         -2.0210    0.1190    1.1120 n2        1 WA2     -0.663900
      8 N7         -0.4290    1.4590    3.3020 nv        1 WA2     -0.800600
      9 C8          2.3230   -0.4990    4.8140 c1        1 WA2      0.479800
     10 N9          1.7110   -0.4460    3.8030 n1        1 WA2     -1.111000
     11 CAA        -4.7720   -1.5150   -1.9180 c3        1 WA2     -0.093100
     12 CAE        -6.5880   -0.3340   -0.6820 c3        1 WA2      0.128400
     13 CAF        -2.8150    0.0520   -0.0850 c3        1 WA2      0.121800
     14 CAG        -4.2740   -0.2910    0.2230 c3        1 WA2     -0.065400
     15 CAP        -5.1040   -0.3200   -1.0500 c3        1 WA2     -0.105700
     16 H2          0.8780    1.2660    0.1500 hn        1 WA2      0.416300
     17 HN6        -0.4340    1.0350   -0.8750 hn        1 WA2      0.416300
     18 H8         -0.1630    1.3140    4.2510 hn        1 WA2      0.413300
     19 HAAA       -3.7480   -1.4190   -2.3500 hc        1 WA2      0.041033
     20 HAAB       -5.5100   -1.5890   -2.7550 hc        1 WA2      0.041033
     21 HOAB       -7.1750    0.5310   -2.3100 ho        1 WA2      0.396000
     22 HAE        -6.8660   -1.3040   -0.1910 h1        1 WA2      0.047200
     23 HAEA       -6.8200    0.5170    0.0140 h1        1 WA2      0.047200
     24 HAF        -4.9000    0.6190   -1.6400 hc        1 WA2      0.040700
     25 HAFA       -2.7930    1.0330   -0.6470 h1        1 WA2      0.035700
     26 HAG        -2.4040   -0.7350   -0.7840 h1        1 WA2      0.035700
     27 HAGA       -4.3320   -1.2880    0.7330 hc        1 WA2      0.053700
     28 HAP        -4.6990    0.4710    0.9280 hc        1 WA2      0.053700
     29 HN7        -1.3760    1.7580    3.1980 hn        1 WA2      0.413300
     30 HAA        -4.8190   -2.4590   -1.3230 hc        1 WA2      0.041033
     31 OAB        -7.4250   -0.2600   -1.8200 oh        1 WA2     -0.595800
@<TRIPOS>BOND
     1    1    6 1   
     2    1   16 1   
     3    1   17 1   
     4    2    3 3   
     5    3    4 1   
     6    4    5 2   
     7    4   10 1   
     8    5    6 1   
     9    5    8 1   
    10    6    7 2   
    11    7   13 1   
    12    8   18 1   
    13    8   29 1   
    14    9   10 3   
    15   11   15 1   
    16   11   19 1   
    17   11   20 1   
    18   11   30 1   
    19   12   15 1   
    20   12   22 1   
    21   12   23 1   
    22   12   31 1   
    23   13   14 1   
    24   13   25 1   
    25   13   26 1   
    26   14   15 1   
    27   14   27 1   
    28   14   28 1   
    29   15   24 1   
    30   21   31 1   
@<TRIPOS>SUBSTRUCTURE
     1 WA2         1 TEMP              0 ****  ****    0 ROOT
