@<TRIPOS>MOLECULE
WA2
   32    29     1     0     0
SMALL
bcc


@<TRIPOS>ATOM
      1 N1         -1.2260    0.5020   -0.1110 nh        1 WA2     -0.472100
      2 C2          1.6130   -1.5710    0.4270 c1        1 WA2      0.615800
      3 N3          1.2810   -0.6640    1.1240 n1        1 WA2     -1.189500
      4 C4          1.0020    0.3780    1.9920 ce        1 WA2      1.258400
      5 C5         -0.2840    0.8830    2.1260 cf        1 WA2     -0.118600
      6 C6         -1.3750    0.3550    1.2230 cf        1 WA2      0.490100
      7 N6         -2.4420   -0.2280    1.8040 nh        1 WA2     -0.304200
      8 N7         -0.7290    1.7880    3.0930 nh        1 WA2     -0.800600
      9 C8          2.9720    1.2460    3.3990 c1        1 WA2      0.615800
     10 N9          2.0410    0.8600    2.7620 n1        1 WA2     -1.189500
     11 CAA        -6.7420   -0.4970   -3.0600 c1        1 WA2     -0.062500
     12 CAE        -4.3000    0.3840   -2.6180 c3        1 WA2      0.221500
     13 CAF        -3.5790   -0.7650    1.0760 c3        1 WA2     -0.001700
     14 CAG        -4.6530   -1.3200    1.9940 c3        1 WA2     -0.121100
     15 CAP        -5.6280   -0.1150   -2.8450 c1        1 WA2     -0.233100
     16 H2         -0.4080    0.9520   -0.4600 hn        1 WA2      0.333200
     17 HN6        -1.9050    0.1710   -0.7700 hn        1 WA2      0.333200
     18 H8         -0.1290    1.8710    3.8890 hn        1 WA2      0.412800
     19 HAAB       -5.3260   -2.1820   -1.2050 ha        1 WA2      0.001000
     20 HOAB       -3.5030   -1.3710   -2.3140 ho        1 WA2      0.433000
     21 HAE        -4.3250    1.3220   -1.9920 h1        1 WA2      0.068200
     22 HAEA       -3.7940    0.6010   -3.6020 h1        1 WA2      0.068200
     23 HAF        -5.4730   -1.7300    1.3510 hc        1 WA2      0.070367
     24 HAFA       -4.0200    0.0480    0.4250 h1        1 WA2      0.082200
     25 HAG        -3.2120   -1.5820    0.3850 h1        1 WA2      0.082200
     26 HAGA       -5.0820   -0.5260    2.6520 hc        1 WA2      0.070367
     27 HAP        -4.2610   -2.1470    2.6340 hc        1 WA2      0.070367
     28 HN7        -0.9760    2.6820    2.7150 hn        1 WA2      0.412800
     29 HAA        -4.9300   -2.5190   -0.7700 ha        1 WA2      0.001000
     30 OAB        -3.4900   -0.5160   -1.8650 oh        1 WA2     -0.668800
     31 H62        -2.4770   -0.2530    2.8070 hn        1 WA2      0.338700
     32 HAAA       -7.7310   -0.8350   -3.2560 ha        1 WA2      0.181500
@<TRIPOS>BOND
     1    1    6 2   
     2    1   16 1   
     3    1   17 1   
     4    2    3 3   
     5    3    4 1   
     6    4    5 2   
     7    4   10 1   
     8    5    6 1   
     9    5    8 1   
    10    6    7 1   
    11    7   13 1   
    12    7   31 1   
    13    8   18 1   
    14    8   28 1   
    15    9   10 3   
    16   11   15 3   
    17   11   32 1   
    18   12   15 1   
    19   12   21 1   
    20   12   22 1   
    21   12   30 1   
    22   13   14 1   
    23   13   24 1   
    24   13   25 1   
    25   14   23 1   
    26   14   26 1   
    27   14   27 1   
    28   19   29 1   
    29   20   30 1   
@<TRIPOS>SUBSTRUCTURE
     1 WA2         1 TEMP              0 ****  ****    0 ROOT
