@<TRIPOS>MOLECULE
WAC
   58    61     1     0     0
SMALL
bcc


@<TRIPOS>ATOM
      1 C1          0.1790   -1.0690   -0.0040 ca        1 WAC     -0.103000
      2 C2          1.5480   -0.8480    0.0780 ca        1 WAC     -0.158000
      3 C3          2.0870   -0.5670    1.3400 ca        1 WAC     -0.060200
      4 C4          1.2450   -0.5080    2.5080 ca        1 WAC     -0.045800
      5 C5         -0.1260   -0.7370    2.3890 ca        1 WAC     -0.065000
      6 C6         -0.6460   -1.0170    1.1320 ca        1 WAC     -0.140000
      7 N7          3.4210   -0.3050    1.7360 na        1 WAC     -0.084400
      8 C8          3.4270   -0.0890    3.1230 cc        1 WAC     -0.000300
      9 C9          2.1160   -0.1870    3.6140 cd        1 WAC     -0.198400
     10 C10         4.6000    0.2490    4.0040 c3        1 WAC      0.248700
     11 N11         4.2380    0.1020    5.4240 n3        1 WAC     -0.733600
     12 C12         2.9500    0.6530    5.8020 c3        1 WAC      0.072800
     13 C13         1.7900    0.0770    5.0020 c         1 WAC      0.610300
     14 C16         5.8400   -0.6180    3.7130 c3        1 WAC     -0.073400
     15 C17         6.9970   -0.2060    4.6010 c3        1 WAC     -0.080400
     16 C18         6.6060   -0.2460    6.0610 c3        1 WAC     -0.080400
     17 C19         5.3150    0.5340    6.3030 c3        1 WAC      0.175800
     18 C29         4.4810   -0.1350    0.7990 c3        1 WAC      0.061300
     19 C30         5.1290   -1.4650    0.3660 c3        1 WAC     -0.140400
     20 C33         6.2950   -1.1670   -0.5620 c3        1 WAC      0.096800
     21 N36         6.9520   -2.3890   -1.0960 ny        1 WAC     -0.709900
     22 S39         8.3830   -1.9190   -2.2250 s6        1 WAC      1.358900
     23 C40         8.9150   -3.4730   -2.6000 c3        1 WAC     -0.322900
     24 C41         7.8880   -4.3170   -3.3260 c3        1 WAC     -0.101600
     25 C42        10.1600   -3.3250   -3.4680 c3        1 WAC     -0.101600
     26 O44         7.7350   -1.2680   -3.2550 o         1 WAC     -0.548800
     27 O45         9.2230   -1.2510   -1.3550 o         1 WAC     -0.548800
     28 O46         0.6780   -0.0820    5.5110 o         1 WAC     -0.517100
     29 H1         -0.2730   -1.2870   -0.9840 ha        1 WAC      0.137000
     30 H2          2.1800   -0.8850   -0.8190 ha        1 WAC      0.116000
     31 H5         -0.7650   -0.6930    3.2860 ha        1 WAC      0.169000
     32 H6         -1.7250   -1.2000    1.0170 ha        1 WAC      0.146000
     33 H10         4.8770    1.3290    3.7700 h1        1 WAC      0.038700
     34 H121        2.9040    1.7770    5.6830 h1        1 WAC      0.070700
     35 H122        2.7830    0.4130    6.8920 h1        1 WAC      0.070700
     36 H161        5.5910   -1.6980    3.8790 hc        1 WAC      0.035700
     37 H162        6.1480   -0.4920    2.6450 hc        1 WAC      0.035700
     38 H171        7.8670   -0.8910    4.4240 hc        1 WAC      0.041700
     39 H172        7.3250    0.8320    4.3290 hc        1 WAC      0.041700
     40 H181        6.4710   -1.3100    6.3880 hc        1 WAC      0.059200
     41 H182        7.4170    0.2060    6.6890 hc        1 WAC      0.059200
     42 H191        4.9810    0.3580    7.3650 h1        1 WAC      0.044700
     43 H192        5.5270    1.6380    6.1870 h1        1 WAC      0.044700
     44 H291        4.0640    0.3650   -0.1260 h1        1 WAC      0.070200
     45 H292        5.2650    0.5460    1.2360 h1        1 WAC      0.070200
     46 H301        5.4810   -2.0310    1.2700 hc        1 WAC      0.079700
     47 H302        4.3570   -2.0940   -0.1530 hc        1 WAC      0.079700
     48 H331        7.0810   -0.5740   -0.0050 hx        1 WAC      0.115200
     49 H332        5.9350   -0.5610   -1.4470 hx        1 WAC      0.115200
     50 H36         7.2630   -2.9550   -0.3070 hn        1 WAC      0.453300
     51 H40         9.2450   -4.0520   -1.6850 h1        1 WAC      0.151700
     52 H411        7.1290   -4.7330   -2.6200 hc        1 WAC      0.081367
     53 H412        7.3770   -3.7240   -4.1260 hc        1 WAC      0.081367
     54 H413        8.3890   -5.1890   -3.8220 hc        1 WAC      0.081367
     55 H421       10.9330   -2.7030   -2.9500 hc        1 WAC      0.081367
     56 H422       10.6070   -4.3320   -3.6620 hc        1 WAC      0.081367
     57 H423        9.9010   -2.8710   -4.4570 hc        1 WAC      0.081367
     58 H362        6.2520   -2.9370   -1.5970 hn        1 WAC      0.453300
@<TRIPOS>BOND
     1    1    2 ar  
     2    1    6 ar  
     3    1   29 1   
     4    2    3 ar  
     5    2   30 1   
     6    3    4 ar  
     7    3    7 1   
     8    4    5 ar  
     9    4    9 1   
    10    5    6 ar  
    11    5   31 1   
    12    6   32 1   
    13    7    8 1   
    14    7   18 1   
    15    8    9 2   
    16    8   10 1   
    17    9   13 1   
    18   10   11 1   
    19   10   14 1   
    20   10   33 1   
    21   11   12 1   
    22   11   17 1   
    23   12   13 1   
    24   12   34 1   
    25   12   35 1   
    26   13   28 2   
    27   14   15 1   
    28   14   36 1   
    29   14   37 1   
    30   15   16 1   
    31   15   38 1   
    32   15   39 1   
    33   16   17 1   
    34   16   40 1   
    35   16   41 1   
    36   17   42 1   
    37   17   43 1   
    38   18   19 1   
    39   18   44 1   
    40   18   45 1   
    41   19   20 1   
    42   19   46 1   
    43   19   47 1   
    44   20   21 1   
    45   20   48 1   
    46   20   49 1   
    47   21   22 1   
    48   21   50 1   
    49   21   58 1   
    50   22   23 1   
    51   22   26 2   
    52   22   27 2   
    53   23   24 1   
    54   23   25 1   
    55   23   51 1   
    56   24   52 1   
    57   24   53 1   
    58   24   54 1   
    59   25   55 1   
    60   25   56 1   
    61   25   57 1   
@<TRIPOS>SUBSTRUCTURE
     1 WAC         1 TEMP              0 ****  ****    0 ROOT
