@<TRIPOS>MOLECULE
WAC
   58    61     1     0     0
SMALL
bcc


@<TRIPOS>ATOM
      1 C1          0.1710   -1.0690    0.0260 ca        1 WAC     -0.103000
      2 C2          1.5400   -0.8490    0.0980 ca        1 WAC     -0.158000
      3 C3          2.0870   -0.5630    1.3560 ca        1 WAC     -0.060200
      4 C4          1.2520   -0.4970    2.5280 ca        1 WAC     -0.045800
      5 C5         -0.1190   -0.7250    2.4190 ca        1 WAC     -0.065000
      6 C6         -0.6470   -1.0110    1.1660 ca        1 WAC     -0.140000
      7 N7          3.4240   -0.3010    1.7420 na        1 WAC     -0.084400
      8 C8          3.4390   -0.0780    3.1280 cc        1 WAC     -0.000300
      9 C9          2.1310   -0.1710    3.6270 cd        1 WAC     -0.198400
     10 C10         4.6180    0.2640    4.0000 c3        1 WAC      0.248700
     11 N11         4.2640    0.1230    5.4230 n3        1 WAC     -0.733600
     12 C12         2.9800    0.6770    5.8060 c3        1 WAC      0.072800
     13 C13         1.8130    0.0990    5.0160 c         1 WAC      0.610300
     14 C16         5.8550   -0.6060    3.7050 c3        1 WAC     -0.073400
     15 C17         7.0180   -0.1920    4.5840 c3        1 WAC     -0.080400
     16 C18         6.6360   -0.2250    6.0470 c3        1 WAC     -0.080400
     17 C19         5.3470    0.5570    6.2940 c3        1 WAC      0.175800
     18 C29         4.4790   -0.1370    0.7970 c3        1 WAC      0.061300
     19 C30         5.1220   -1.4700    0.3680 c3        1 WAC     -0.140400
     20 C33         6.2830   -1.1780   -0.5690 c3        1 WAC      0.096800
     21 N36         6.9360   -2.4030   -1.1010 n4        1 WAC     -0.709900
     22 S39         8.3600   -1.9410   -2.2410 s6        1 WAC      1.358900
     23 C40         8.8880   -3.4980   -2.6090 c3        1 WAC     -0.322900
     24 C41         7.8560   -4.3480   -3.3230 c3        1 WAC     -0.101600
     25 C42        10.1270   -3.3560   -3.4870 c3        1 WAC     -0.101600
     26 O44         7.7050   -1.2970   -3.2710 o         1 WAC     -0.548800
     27 O45         9.2040   -1.2690   -1.3810 o         1 WAC     -0.548800
     28 O46         0.7040   -0.0550    5.5330 o         1 WAC     -0.517100
     29 H1         -0.2880   -1.2920   -0.9500 ha        1 WAC      0.137000
     30 H2          2.1660   -0.8910   -0.8020 ha        1 WAC      0.116000
     31 H5         -0.7530   -0.6760    3.3190 ha        1 WAC      0.169000
     32 H6         -1.7280   -1.1930    1.0590 ha        1 WAC      0.146000
     33 H10         4.8940    1.3420    3.7600 h1        1 WAC      0.038700
     34 H121        2.9340    1.8010    5.6820 h1        1 WAC      0.070700
     35 H122        2.8190    0.4430    6.8980 h1        1 WAC      0.070700
     36 H161        5.6060   -1.6850    3.8770 hc        1 WAC      0.035700
     37 H162        6.1560   -0.4860    2.6350 hc        1 WAC      0.035700
     38 H171        7.8860   -0.8780    4.4050 hc        1 WAC      0.041700
     39 H172        7.3450    0.8450    4.3060 hc        1 WAC      0.041700
     40 H181        7.4510    0.2290    6.6680 hc        1 WAC      0.059200
     41 H182        6.5020   -1.2870    6.3790 hc        1 WAC      0.059200
     42 H191        5.0200    0.3860    7.3580 h1        1 WAC      0.044700
     43 H192        5.5600    1.6610    6.1710 h1        1 WAC      0.044700
     44 H291        4.0560    0.3590   -0.1280 h1        1 WAC      0.070200
     45 H292        5.2660    0.5460    1.2260 h1        1 WAC      0.070200
     46 H301        5.4790   -2.0310    1.2730 hc        1 WAC      0.079700
     47 H302        4.3460   -2.1000   -0.1430 hc        1 WAC      0.079700
     48 H331        7.0730   -0.5830   -0.0210 hx        1 WAC      0.115200
     49 H332        5.9180   -0.5770   -1.4550 hx        1 WAC      0.115200
     50 H36         7.2500   -2.9660   -0.3100 hn        1 WAC      0.453300
     51 H40         9.2250   -4.0710   -1.6930 h1        1 WAC      0.151700
     52 H411        7.1020   -4.7580   -2.6080 hc        1 WAC      0.081200
     53 H412        8.3530   -5.2220   -3.8160 hc        1 WAC      0.081200
     54 H413        7.3400   -3.7590   -4.1230 hc        1 WAC      0.081200
     55 H421       10.9040   -2.7310   -2.9790 hc        1 WAC      0.081200
     56 H422        9.8620   -2.9090   -4.4780 hc        1 WAC      0.081200
     57 H423       10.5730   -4.3650   -3.6780 hc        1 WAC      0.081200
     58 H362        6.2310   -2.9530   -1.5940 hn        1 WAC      0.453300
@<TRIPOS>BOND
     1    1    2 ar  
     2    1    6 ar  
     3    1   29 1   
     4    2    3 ar  
     5    2   30 1   
     6    3    4 ar  
     7    3    7 1   
     8    4    5 ar  
     9    4    9 1   
    10    5    6 ar  
    11    5   31 1   
    12    6   32 1   
    13    7    8 1   
    14    7   18 1   
    15    8    9 2   
    16    8   10 1   
    17    9   13 1   
    18   10   11 1   
    19   10   14 1   
    20   10   33 1   
    21   11   12 1   
    22   11   17 1   
    23   12   13 1   
    24   12   34 1   
    25   12   35 1   
    26   13   28 2   
    27   14   15 1   
    28   14   36 1   
    29   14   37 1   
    30   15   16 1   
    31   15   38 1   
    32   15   39 1   
    33   16   17 1   
    34   16   40 1   
    35   16   41 1   
    36   17   42 1   
    37   17   43 1   
    38   18   19 1   
    39   18   44 1   
    40   18   45 1   
    41   19   20 1   
    42   19   46 1   
    43   19   47 1   
    44   20   21 1   
    45   20   48 1   
    46   20   49 1   
    47   21   22 1   
    48   21   50 1   
    49   21   58 1   
    50   22   23 1   
    51   22   26 2   
    52   22   27 2   
    53   23   24 1   
    54   23   25 1   
    55   23   51 1   
    56   24   52 1   
    57   24   53 1   
    58   24   54 1   
    59   25   55 1   
    60   25   56 1   
    61   25   57 1   
@<TRIPOS>SUBSTRUCTURE
     1 WAC         1 TEMP              0 ****  ****    0 ROOT
