@<TRIPOS>MOLECULE
WAC
   57    60     1     0     0
SMALL
bcc


@<TRIPOS>ATOM
      1 C1          2.2120   -4.2160   -0.0800 ca        1 WAC     -0.115000
      2 C2          1.3890   -3.1370    0.2070 ca        1 WAC     -0.139000
      3 C3          1.9630   -1.8570    0.1910 ca        1 WAC     -0.060200
      4 C4          3.3620   -1.6770   -0.1130 ca        1 WAC     -0.044800
      5 C5          4.1580   -2.7870   -0.3990 ca        1 WAC     -0.080000
      6 C6          3.5750   -4.0460   -0.3800 ca        1 WAC     -0.147000
      7 N7          1.3880   -0.5890    0.4330 na        1 WAC     -0.060400
      8 C8          2.3880    0.3730    0.2780 cc        1 WAC      0.009700
      9 C9          3.6090   -0.2590   -0.0320 cd        1 WAC     -0.227400
     10 C10         2.2670    1.8640    0.4410 c3        1 WAC      0.248700
     11 N11         3.4630    2.5420   -0.0880 n3        1 WAC     -0.734600
     12 C12         4.7320    1.9400    0.2650 c3        1 WAC      0.074800
     13 C13         4.8460    0.4770   -0.1540 c         1 WAC      0.617300
     14 C16         1.0160    2.4410   -0.2470 c3        1 WAC     -0.078400
     15 C17         0.9250    3.9360   -0.0140 c3        1 WAC     -0.078400
     16 C18         2.1920    4.6370   -0.4510 c3        1 WAC     -0.079400
     17 C19         3.4250    3.9750    0.1630 c3        1 WAC      0.179800
     18 C29         0.0640   -0.4240    0.9580 c3        1 WAC      0.042300
     19 C30        -1.0420   -0.4200   -0.1020 c3        1 WAC     -0.123400
     20 C33        -2.3620   -0.0370    0.5700 c3        1 WAC      0.224800
     21 N36        -3.5010   -0.1060   -0.2960 n3        1 WAC     -0.921100
     22 S39        -4.8410   -0.9530    0.0150 s6        1 WAC      1.441900
     23 C40        -5.9320    0.2560    0.6330 c3        1 WAC     -0.270900
     24 C41        -6.2450    1.3310   -0.3800 c3        1 WAC     -0.077600
     25 C42        -7.2070   -0.4300    1.0770 c3        1 WAC     -0.077600
     26 O44        -5.3680   -1.4540   -1.1920 o         1 WAC     -0.647800
     27 O45        -4.5990   -1.8810    1.0520 o         1 WAC     -0.647800
     28 O46         5.9340    0.0050   -0.4980 o         1 WAC     -0.542100
     29 H1          1.7880   -5.2320   -0.0760 ha        1 WAC      0.133000
     30 H2          0.3240   -3.2790    0.4350 ha        1 WAC      0.134000
     31 H5          5.2240   -2.6440   -0.6350 ha        1 WAC      0.158000
     32 H6          4.1860   -4.9330   -0.6040 ha        1 WAC      0.133000
     33 H10         2.1630    2.0580    1.5590 h1        1 WAC      0.034700
     34 H121        5.5450    2.5220   -0.2570 h1        1 WAC      0.060700
     35 H122        4.9380    1.9770    1.3760 h1        1 WAC      0.060700
     36 H161        1.0560    2.2220   -1.3450 hc        1 WAC      0.053200
     37 H162        0.0970    1.9560    0.1680 hc        1 WAC      0.053200
     38 H171        0.0500    4.3490   -0.5810 hc        1 WAC      0.041200
     39 H172        0.7440    4.1340    1.0750 hc        1 WAC      0.041200
     40 H181        2.2700    4.6130   -1.5690 hc        1 WAC      0.052700
     41 H182        2.1700    5.7100   -0.1310 hc        1 WAC      0.052700
     42 H191        3.4490    4.2020    1.2700 h1        1 WAC      0.035700
     43 H192        4.3470    4.4290   -0.2990 h1        1 WAC      0.035700
     44 H291       -0.1360   -1.2780    1.6720 h1        1 WAC      0.063200
     45 H292        0.0280    0.5320    1.5550 h1        1 WAC      0.063200
     46 H301       -0.8030    0.3050   -0.9230 hc        1 WAC      0.065700
     47 H302       -1.1160   -1.4380   -0.5660 hc        1 WAC      0.065700
     48 H331       -2.5360   -0.7240    1.4510 h1        1 WAC      0.053200
     49 H332       -2.2600    1.0160    0.9680 h1        1 WAC      0.053200
     50 H36        -3.3770    0.3690   -1.1590 hn        1 WAC      0.450800
     51 H40        -5.4870    0.7530    1.5400 h1        1 WAC      0.104700
     52 H411       -6.5770    0.8700   -1.3440 hc        1 WAC      0.052200
     53 H412       -7.0680    1.9880   -0.0080 hc        1 WAC      0.052200
     54 H413       -5.3510    1.9740   -0.5710 hc        1 WAC      0.052200
     55 H421       -6.9790   -1.2220    1.8330 hc        1 WAC      0.052200
     56 H422       -7.9050    0.3090    1.5380 hc        1 WAC      0.052200
     57 H423       -7.7210   -0.8980    0.2010 hc        1 WAC      0.052200
@<TRIPOS>BOND
     1    1    2 ar  
     2    1    6 ar  
     3    1   29 1   
     4    2    3 ar  
     5    2   30 1   
     6    3    4 ar  
     7    3    7 1   
     8    4    5 ar  
     9    4    9 1   
    10    5    6 ar  
    11    5   31 1   
    12    6   32 1   
    13    7    8 1   
    14    7   18 1   
    15    8    9 2   
    16    8   10 1   
    17    9   13 1   
    18   10   11 1   
    19   10   14 1   
    20   10   33 1   
    21   11   12 1   
    22   11   17 1   
    23   12   13 1   
    24   12   34 1   
    25   12   35 1   
    26   13   28 2   
    27   14   15 1   
    28   14   36 1   
    29   14   37 1   
    30   15   16 1   
    31   15   38 1   
    32   15   39 1   
    33   16   17 1   
    34   16   40 1   
    35   16   41 1   
    36   17   42 1   
    37   17   43 1   
    38   18   19 1   
    39   18   44 1   
    40   18   45 1   
    41   19   20 1   
    42   19   46 1   
    43   19   47 1   
    44   20   21 1   
    45   20   48 1   
    46   20   49 1   
    47   21   22 1   
    48   21   50 1   
    49   22   23 1   
    50   22   26 2   
    51   22   27 2   
    52   23   24 1   
    53   23   25 1   
    54   23   51 1   
    55   24   52 1   
    56   24   53 1   
    57   24   54 1   
    58   25   55 1   
    59   25   56 1   
    60   25   57 1   
@<TRIPOS>SUBSTRUCTURE
     1 WAC         1 TEMP              0 ****  ****    0 ROOT
