@<TRIPOS>MOLECULE
WAC
   58    61     1     0     0
SMALL
bcc


@<TRIPOS>ATOM
      1 C1          0.1810   -1.0430    0.0020 ca        1 WAC     -0.103000
      2 C2          1.5510   -0.8280    0.0840 ca        1 WAC     -0.158000
      3 C3          2.0910   -0.5550    1.3480 ca        1 WAC     -0.060200
      4 C4          1.2490   -0.4970    2.5160 ca        1 WAC     -0.045800
      5 C5         -0.1220   -0.7200    2.3970 ca        1 WAC     -0.065000
      6 C6         -0.6430   -0.9930    1.1380 ca        1 WAC     -0.140000
      7 N7          3.4260   -0.3000    1.7440 na        1 WAC     -0.084400
      8 C8          3.4330   -0.0900    3.1320 cc        1 WAC     -0.000300
      9 C9          2.1220   -0.1840    3.6230 cd        1 WAC     -0.198400
     10 C10         4.6080    0.2400    4.0140 c3        1 WAC      0.248700
     11 N11         4.2450    0.0890    5.4340 n3        1 WAC     -0.733600
     12 C12         2.9610    0.6430    5.8140 c3        1 WAC      0.072800
     13 C13         1.7970    0.0750    5.0120 c         1 WAC      0.610300
     14 C16         5.8440   -0.6310    3.7190 c3        1 WAC     -0.073400
     15 C17         7.0030   -0.2280    4.6090 c3        1 WAC     -0.080400
     16 C18         6.6130   -0.2720    6.0690 c3        1 WAC     -0.080400
     17 C19         5.3250    0.5120    6.3150 c3        1 WAC      0.175800
     18 C29         4.4870   -0.1300    0.8070 c3        1 WAC      0.061300
     19 C30         5.1290   -1.4600    0.3690 c3        1 WAC     -0.140400
     20 C33         6.2950   -1.1620   -0.5600 c3        1 WAC      0.096800
     21 N36         6.9470   -2.3840   -1.1010 n4        1 WAC     -0.709900
     22 S39         8.3770   -1.9140   -2.2300 s6        1 WAC      1.358900
     23 C40         8.9000   -3.4690   -2.6150 c3        1 WAC     -0.322900
     24 C41         7.8680   -4.3040   -3.3440 c3        1 WAC     -0.101600
     25 C42        10.1450   -3.3220   -3.4850 c3        1 WAC     -0.101600
     26 O44         7.7300   -1.2550   -3.2550 o         1 WAC     -0.548800
     27 O45         9.2220   -1.2560   -1.3580 o         1 WAC     -0.548800
     28 O46         0.6850   -0.0810    5.5210 o         1 WAC     -0.517100
     29 H1         -0.2730   -1.2560   -0.9790 ha        1 WAC      0.137000
     30 H2          2.1820   -0.8640   -0.8120 ha        1 WAC      0.116000
     31 H5         -0.7610   -0.6770    3.2930 ha        1 WAC      0.169000
     32 H6         -1.7240   -1.1710    1.0230 ha        1 WAC      0.146000
     33 H10         4.8890    1.3200    3.7850 h1        1 WAC      0.038700
     34 H121        2.9190    1.7680    5.7000 h1        1 WAC      0.070700
     35 H122        2.7920    0.4000    6.9030 h1        1 WAC      0.070700
     36 H161        5.5910   -1.7100    3.8810 hc        1 WAC      0.035700
     37 H162        6.1520   -0.5020    2.6520 hc        1 WAC      0.035700
     38 H171        7.8700   -0.9150    4.4280 hc        1 WAC      0.041700
     39 H172        7.3350    0.8100    4.3410 hc        1 WAC      0.041700
     40 H181        6.4730   -1.3370    6.3910 hc        1 WAC      0.059200
     41 H182        7.4250    0.1740    6.6990 hc        1 WAC      0.059200
     42 H191        5.5410    1.6160    6.2030 h1        1 WAC      0.044700
     43 H192        4.9910    0.3330    7.3760 h1        1 WAC      0.044700
     44 H291        4.0710    0.3760   -0.1150 h1        1 WAC      0.070200
     45 H292        5.2740    0.5460    1.2480 h1        1 WAC      0.070200
     46 H301        4.3540   -2.0840   -0.1530 hc        1 WAC      0.079700
     47 H302        5.4790   -2.0320    1.2690 hc        1 WAC      0.079700
     48 H331        5.9360   -0.5510   -1.4420 hx        1 WAC      0.115700
     49 H332        7.0840   -0.5750   -0.0020 hx        1 WAC      0.115700
     50 H36         7.2570   -2.9550   -0.3150 hn        1 WAC      0.453300
     51 H40         9.2300   -4.0550   -1.7050 h1        1 WAC      0.151700
     52 H411        7.1090   -4.7210   -2.6390 hc        1 WAC      0.081367
     53 H412        8.3640   -5.1750   -3.8460 hc        1 WAC      0.081367
     54 H413        7.3590   -3.7040   -4.1400 hc        1 WAC      0.081367
     55 H421        9.8860   -2.8610   -4.4710 hc        1 WAC      0.081367
     56 H422       10.9220   -2.7060   -2.9650 hc        1 WAC      0.081367
     57 H423       10.5870   -4.3310   -3.6860 hc        1 WAC      0.081367
     58 H362        6.2430   -2.9270   -1.6030 hn        1 WAC      0.453300
@<TRIPOS>BOND
     1    1    2 ar  
     2    1    6 ar  
     3    1   29 1   
     4    2    3 ar  
     5    2   30 1   
     6    3    4 ar  
     7    3    7 1   
     8    4    5 ar  
     9    4    9 1   
    10    5    6 ar  
    11    5   31 1   
    12    6   32 1   
    13    7    8 1   
    14    7   18 1   
    15    8    9 2   
    16    8   10 1   
    17    9   13 1   
    18   10   11 1   
    19   10   14 1   
    20   10   33 1   
    21   11   12 1   
    22   11   17 1   
    23   12   13 1   
    24   12   34 1   
    25   12   35 1   
    26   13   28 2   
    27   14   15 1   
    28   14   36 1   
    29   14   37 1   
    30   15   16 1   
    31   15   38 1   
    32   15   39 1   
    33   16   17 1   
    34   16   40 1   
    35   16   41 1   
    36   17   42 1   
    37   17   43 1   
    38   18   19 1   
    39   18   44 1   
    40   18   45 1   
    41   19   20 1   
    42   19   46 1   
    43   19   47 1   
    44   20   21 1   
    45   20   48 1   
    46   20   49 1   
    47   21   22 1   
    48   21   50 1   
    49   21   58 1   
    50   22   23 1   
    51   22   26 2   
    52   22   27 2   
    53   23   24 1   
    54   23   25 1   
    55   23   51 1   
    56   24   52 1   
    57   24   53 1   
    58   24   54 1   
    59   25   55 1   
    60   25   56 1   
    61   25   57 1   
@<TRIPOS>SUBSTRUCTURE
     1 WAC         1 TEMP              0 ****  ****    0 ROOT
