@<TRIPOS>MOLECULE
WAI
   56    59     1     0     0
SMALL
bcc


@<TRIPOS>ATOM
      1 C1         -2.3290    0.0030   -1.0570 cp        1 WAI     -0.101500
      2 C2         -1.3050    0.0030   -2.0040 ca        1 WAI     -0.223300
      3 C3         -1.5820    0.4610   -3.3300 ca        1 WAI      0.614200
      4 N4         -2.8300    0.9050   -3.6820 nb        1 WAI     -0.704000
      5 C5         -3.7840    0.9090   -2.7390 ca        1 WAI      0.419200
      6 C6         -3.6010    0.4670   -1.4200 ca        1 WAI     -0.260300
      7 C7         -2.0940   -0.4860    0.3160 cp        1 WAI      0.524800
      8 C8         -3.0910   -1.2670    0.9440 ca        1 WAI     -0.400600
      9 C9         -2.8250   -1.6990    2.2540 ca        1 WAI      0.459200
     10 N10        -1.6940   -1.4150    2.9150 nb        1 WAI     -0.727000
     11 C11        -0.7580   -0.6550    2.2240 ca        1 WAI      0.865900
     12 N12        -0.9350   -0.1660    0.9340 nb        1 WAI     -0.737000
     13 N13         0.4990   -0.3940    2.8140 nh        1 WAI     -0.702300
     14 C14         0.6810   -0.4490    4.2160 ca        1 WAI      0.128600
     15 C15         1.1390    0.6950    4.9060 ca        1 WAI     -0.158000
     16 C16         1.4090    0.6250    6.2720 ca        1 WAI      0.027400
     17 C17         1.2220   -0.5650    6.9930 ca        1 WAI     -0.073300
     18 C18         0.7650   -1.6900    6.2980 ca        1 WAI     -0.117000
     19 C19         0.5010   -1.6490    4.9340 ca        1 WAI     -0.100000
     20 C20         1.4980   -0.6420    8.4450 c3        1 WAI     -0.054800
     21 CL24        1.9680    2.0300    7.0560 cl        1 WAI     -0.095400
     22 N34        -0.5010    0.5220   -4.2580 nh        1 WAI     -0.730300
     23 C35         0.1700   -0.7520   -4.4830 c3        1 WAI      0.184300
     24 C36         1.4520   -0.5960   -5.3270 c3        1 WAI      0.163800
     25 N37         1.2350    0.1390   -6.5640 n3        1 WAI     -0.731600
     26 C38         0.5430    1.4010   -6.3360 c3        1 WAI      0.163800
     27 C39        -0.7430    1.2460   -5.4990 c3        1 WAI      0.184300
     28 C48         2.4590    0.3340   -7.3300 c3        1 WAI      0.166800
     29 C49         3.0580   -0.9930   -7.8470 c3        1 WAI      0.154800
     30 N52         4.1600   -0.7680   -8.7530 n3        1 WAI     -0.916800
     31 H2         -0.2930   -0.3250   -1.7260 ha        1 WAI      0.164000
     32 H5         -4.7680    1.2890   -3.0720 h4        1 WAI      0.023100
     33 H6         -4.4270    0.4970   -0.6980 ha        1 WAI      0.148000
     34 H8         -4.0220   -1.5260    0.4310 ha        1 WAI      0.159000
     35 H9         -3.5600   -2.3070    2.8140 h4        1 WAI      0.030100
     36 H13         1.0170    0.3380    2.3660 hn        1 WAI      0.439800
     37 H15         1.2910    1.6460    4.3720 ha        1 WAI      0.148000
     38 H18         0.6140   -2.6350    6.8450 ha        1 WAI      0.140000
     39 H19         0.1520   -2.5600    4.4240 ha        1 WAI      0.157000
     40 H201        2.5690   -0.3900    8.6510 hc        1 WAI      0.051033
     41 H202        0.8570    0.0870    9.0010 hc        1 WAI      0.051033
     42 H203        1.2940   -1.6670    8.8410 hc        1 WAI      0.051033
     43 H351        0.4690   -1.1890   -3.4900 h1        1 WAI      0.051700
     44 H352       -0.5150   -1.4860   -4.9980 h1        1 WAI      0.051700
     45 H361        1.7990   -1.6320   -5.5970 h1        1 WAI      0.040950
     46 H362        2.2500   -0.1160   -4.6880 h1        1 WAI      0.040950
     47 H381        0.2410    1.8150   -7.3390 h1        1 WAI      0.040950
     48 H382        1.2140    2.1590   -5.8350 h1        1 WAI      0.040950
     49 H391       -1.5270    0.7380   -6.1310 h1        1 WAI      0.051700
     50 H392       -1.1090    2.2780   -5.2430 h1        1 WAI      0.051700
     51 H481        2.1990    0.9850   -8.2140 h1        1 WAI      0.039700
     52 H482        3.2470    0.8750   -6.7290 h1        1 WAI      0.039700
     53 H491        3.4630   -1.5790   -6.9730 h1        1 WAI      0.033200
     54 H492        2.2320   -1.6080   -8.3110 h1        1 WAI      0.033200
     55 H521        4.4880   -1.6410   -9.1170 hn        1 WAI      0.349800
     56 H522        3.8880   -0.1770   -9.5130 hn        1 WAI      0.349800
@<TRIPOS>BOND
     1    1    2 ar  
     2    1    6 ar  
     3    1    7 1   
     4    2    3 ar  
     5    2   31 1   
     6    3    4 ar  
     7    3   22 1   
     8    4    5 ar  
     9    5    6 ar  
    10    5   32 1   
    11    6   33 1   
    12    7    8 ar  
    13    7   12 ar  
    14    8    9 ar  
    15    8   34 1   
    16    9   10 ar  
    17    9   35 1   
    18   10   11 ar  
    19   11   12 ar  
    20   11   13 1   
    21   13   14 1   
    22   13   36 1   
    23   14   15 ar  
    24   14   19 ar  
    25   15   16 ar  
    26   15   37 1   
    27   16   17 ar  
    28   16   21 1   
    29   17   18 ar  
    30   17   20 1   
    31   18   19 ar  
    32   18   38 1   
    33   19   39 1   
    34   20   40 1   
    35   20   41 1   
    36   20   42 1   
    37   22   23 1   
    38   22   27 1   
    39   23   24 1   
    40   23   43 1   
    41   23   44 1   
    42   24   25 1   
    43   24   45 1   
    44   24   46 1   
    45   25   26 1   
    46   25   28 1   
    47   26   27 1   
    48   26   47 1   
    49   26   48 1   
    50   27   49 1   
    51   27   50 1   
    52   28   29 1   
    53   28   51 1   
    54   28   52 1   
    55   29   30 1   
    56   29   53 1   
    57   29   54 1   
    58   30   55 1   
    59   30   56 1   
@<TRIPOS>SUBSTRUCTURE
     1 WAI         1 TEMP              0 ****  ****    0 ROOT
