@<TRIPOS>MOLECULE
WAI
   57    60     1     0     0
SMALL
bcc


@<TRIPOS>ATOM
      1 C1         -0.1480    0.2000   -0.0370 cp        1 WAI     -0.097500
      2 C2          1.2340    0.4150   -0.0270 ca        1 WAI     -0.205300
      3 C3          1.9260    0.3780    1.2170 ca        1 WAI      0.582200
      4 N4          1.2780    0.1380    2.3980 nb        1 WAI     -0.699000
      5 C5         -0.0440   -0.0810    2.3490 ca        1 WAI      0.415200
      6 C6         -0.8080   -0.0590    1.1700 ca        1 WAI     -0.235300
      7 C7         -0.9110    0.2480   -1.3000 cp        1 WAI      0.512800
      8 C8         -2.1890    0.8470   -1.3060 ca        1 WAI     -0.400600
      9 C9         -2.8770    0.8570   -2.5340 ca        1 WAI      0.465200
     10 N10        -2.3810    0.3420   -3.6660 nb        1 WAI     -0.717000
     11 C11        -1.1100   -0.2180   -3.5800 ca        1 WAI      0.868900
     12 N12        -0.3590   -0.2910   -2.4120 nb        1 WAI     -0.746000
     13 N13        -0.4810   -0.6940   -4.7500 nu        1 WAI     -0.698300
     14 C14        -1.2340   -1.0500   -5.8970 ca        1 WAI      0.118600
     15 C15        -1.1650   -2.3690   -6.3940 ca        1 WAI     -0.156000
     16 C16        -1.8300   -2.7060   -7.5730 ca        1 WAI      0.026400
     17 C17        -2.5870   -1.7580   -8.2790 ca        1 WAI     -0.065300
     18 C18        -2.6500   -0.4550   -7.7720 ca        1 WAI     -0.116000
     19 C19        -1.9850   -0.0920   -6.6060 ca        1 WAI     -0.098000
     20 C20        -3.3030   -2.1130   -9.5240 c3        1 WAI     -0.057800
     21 Cl24       -1.7080   -4.3080   -8.1360 cl        1 WAI     -0.088400
     22 N34         3.3530    0.5400    1.1850 nh        1 WAI     -0.727300
     23 C35         3.7720    1.8810    0.7970 c3        1 WAI      0.180300
     24 C36         5.2950    1.9550    0.5560 c3        1 WAI      0.172300
     25 N37         6.0660    1.4160    1.6690 n3        1 WAI     -0.754600
     26 C38         5.6030    0.1130    2.1270 c3        1 WAI      0.172300
     27 C39         4.0770    0.0670    2.3560 c3        1 WAI      0.180300
     28 C48         7.4950    1.4830    1.4750 c3        1 WAI      0.174800
     29 C49         8.1440    2.1170    2.7360 c3        1 WAI      0.077800
     30 N52         9.6250    2.2280    2.6040 nz        1 WAI     -0.836600
     31 H2          1.7780    0.5920   -0.9660 ha        1 WAI      0.166000
     32 H5         -0.5230   -0.2840    3.3260 h4        1 WAI      0.032100
     33 H6         -1.8890   -0.2510    1.2010 ha        1 WAI      0.158000
     34 H8         -2.6250    1.2840   -0.4030 ha        1 WAI      0.159000
     35 H9         -3.8880    1.3010   -2.6170 h4        1 WAI      0.036100
     36 H13         0.3030   -1.2940   -4.5790 hn        1 WAI      0.436800
     37 H15        -0.5850   -3.1390   -5.8610 ha        1 WAI      0.146000
     38 H18        -3.2380    0.3040   -8.3120 ha        1 WAI      0.143000
     39 H19        -2.0540    0.9460   -6.2460 ha        1 WAI      0.155000
     40 H201       -2.5820   -2.4840  -10.2950 hc        1 WAI      0.054367
     41 H202       -4.0480   -2.9250   -9.3260 hc        1 WAI      0.054367
     42 H203       -3.8460   -1.2300   -9.9440 hc        1 WAI      0.054367
     43 H351        3.4910    2.6490    1.5750 h1        1 WAI      0.063200
     44 H352        3.2610    2.1530   -0.1690 h1        1 WAI      0.063200
     45 H361        5.5360    1.4190   -0.4070 h1        1 WAI      0.043950
     46 H362        5.5680    3.0400    0.4360 h1        1 WAI      0.043950
     47 H381        5.8880   -0.7030    1.4010 h1        1 WAI      0.043950
     48 H382        6.1030   -0.1040    3.1120 h1        1 WAI      0.043950
     49 H391        3.8320    0.6630    3.2820 h1        1 WAI      0.063200
     50 H392        3.7920   -1.0070    2.5410 h1        1 WAI      0.063200
     51 H481        7.9550    0.4640    1.3120 h1        1 WAI      0.053200
     52 H482        7.7480    2.1240    0.5820 h1        1 WAI      0.053200
     53 H491        7.9230    1.4850    3.6440 hx        1 WAI      0.120200
     54 H492        7.7300    3.1530    2.9050 hx        1 WAI      0.120200
     55 H521       10.0390    1.3010    2.4630 hn        1 WAI      0.459800
     56 H522        9.8640    2.8170    1.8000 hn        1 WAI      0.459800
     57 H523       10.0210    2.6450    3.4530 hn        1 WAI      0.459800
@<TRIPOS>BOND
     1    1    2 ar  
     2    1    6 ar  
     3    1    7 1   
     4    2    3 ar  
     5    2   31 1   
     6    3    4 ar  
     7    3   22 1   
     8    4    5 ar  
     9    5    6 ar  
    10    5   32 1   
    11    6   33 1   
    12    7    8 ar  
    13    7   12 ar  
    14    8    9 ar  
    15    8   34 1   
    16    9   10 ar  
    17    9   35 1   
    18   10   11 ar  
    19   11   12 ar  
    20   11   13 1   
    21   13   14 1   
    22   13   36 1   
    23   14   15 ar  
    24   14   19 ar  
    25   15   16 ar  
    26   15   37 1   
    27   16   17 ar  
    28   16   21 1   
    29   17   18 ar  
    30   17   20 1   
    31   18   19 ar  
    32   18   38 1   
    33   19   39 1   
    34   20   40 1   
    35   20   41 1   
    36   20   42 1   
    37   22   23 1   
    38   22   27 1   
    39   23   24 1   
    40   23   43 1   
    41   23   44 1   
    42   24   25 1   
    43   24   45 1   
    44   24   46 1   
    45   25   26 1   
    46   25   28 1   
    47   26   27 1   
    48   26   47 1   
    49   26   48 1   
    50   27   49 1   
    51   27   50 1   
    52   28   29 1   
    53   28   51 1   
    54   28   52 1   
    55   29   30 1   
    56   29   53 1   
    57   29   54 1   
    58   30   55 1   
    59   30   56 1   
    60   30   57 1   
@<TRIPOS>SUBSTRUCTURE
     1 WAI         1 TEMP              0 ****  ****    0 ROOT
