@<TRIPOS>MOLECULE
WAI
   57    60     1     0     0
SMALL
bcc


@<TRIPOS>ATOM
      1 C1         -0.1500    0.2250   -0.0400 cp        1 WAI     -0.097500
      2 C2          1.2330    0.4310   -0.0290 ca        1 WAI     -0.205300
      3 C3          1.9230    0.4010    1.2160 ca        1 WAI      0.582200
      4 N4          1.2720    0.1750    2.3980 nb        1 WAI     -0.699000
      5 C5         -0.0520   -0.0360    2.3490 ca        1 WAI      0.415200
      6 C6         -0.8140   -0.0200    1.1680 ca        1 WAI     -0.235300
      7 C7         -0.9110    0.2670   -1.3050 cp        1 WAI      0.512800
      8 C8         -2.1850    0.8730   -1.3180 ca        1 WAI     -0.400600
      9 C9         -2.8710    0.8770   -2.5470 ca        1 WAI      0.465200
     10 N10        -2.3770    0.3500   -3.6730 nb        1 WAI     -0.717000
     11 C11        -1.1100   -0.2180   -3.5800 ca        1 WAI      0.868900
     12 N12        -0.3610   -0.2860   -2.4110 nb        1 WAI     -0.746000
     13 N13        -0.4820   -0.7080   -4.7450 nh        1 WAI     -0.698300
     14 C14        -1.2360   -1.0690   -5.8900 ca        1 WAI      0.118600
     15 C15        -1.1740   -2.3930   -6.3760 ca        1 WAI     -0.156000
     16 C16        -1.8400   -2.7360   -7.5530 ca        1 WAI      0.026400
     17 C17        -2.5900   -1.7890   -8.2680 ca        1 WAI     -0.065300
     18 C18        -2.6450   -0.4820   -7.7730 ca        1 WAI     -0.116000
     19 C19        -1.9800   -0.1130   -6.6090 ca        1 WAI     -0.098000
     20 C20        -3.3060   -2.1500   -9.5120 c3        1 WAI     -0.057800
     21 CL24       -1.7270   -4.3430   -8.1020 cl        1 WAI     -0.088400
     22 N34         3.3510    0.5540    1.1850 nh        1 WAI     -0.727300
     23 C35         3.7790    1.8890    0.7870 c3        1 WAI      0.180300
     24 C36         5.3020    1.9510    0.5470 c3        1 WAI      0.172300
     25 N37         6.0690    1.4170    1.6650 n3        1 WAI     -0.754600
     26 C38         5.5970    0.1200    2.1330 c3        1 WAI      0.172300
     27 C39         4.0700    0.0850    2.3600 c3        1 WAI      0.180300
     28 C48         7.4980    1.4740    1.4730 c3        1 WAI      0.174800
     29 C49         8.1500    2.1130    2.7300 c3        1 WAI      0.077800
     30 N52         9.6310    2.2140    2.5990 n4        1 WAI     -0.836600
     31 H2          1.7790    0.5960   -0.9700 ha        1 WAI      0.166000
     32 H5         -0.5330   -0.2280    3.3260 h4        1 WAI      0.032100
     33 H6         -1.8960   -0.2050    1.2000 ha        1 WAI      0.158000
     34 H8         -2.6200    1.3220   -0.4190 ha        1 WAI      0.159000
     35 H9         -3.8790    1.3270   -2.6350 h4        1 WAI      0.036100
     36 H13         0.2970   -1.3120   -4.5680 hn        1 WAI      0.436800
     37 H15        -0.6000   -3.1620   -5.8350 ha        1 WAI      0.146000
     38 H18        -3.2280    0.2760   -8.3200 ha        1 WAI      0.143000
     39 H19        -2.0430    0.9290   -6.2570 ha        1 WAI      0.155000
     40 H201       -3.8430   -1.2680   -9.9400 hc        1 WAI      0.054367
     41 H202       -2.5860   -2.5320  -10.2780 hc        1 WAI      0.054367
     42 H203       -4.0560   -2.9560   -9.3080 hc        1 WAI      0.054367
     43 H351        3.2710    2.1560   -0.1820 h1        1 WAI      0.063200
     44 H352        3.5010    2.6650    1.5580 h1        1 WAI      0.063200
     45 H361        5.5420    1.4070   -0.4120 h1        1 WAI      0.043950
     46 H362        5.5820    3.0340    0.4180 h1        1 WAI      0.043950
     47 H381        5.8780   -0.7030    1.4130 h1        1 WAI      0.043950
     48 H382        6.0940   -0.0920    3.1210 h1        1 WAI      0.043950
     49 H391        3.7780   -0.9850    2.5540 h1        1 WAI      0.063200
     50 H392        3.8280    0.6910    3.2810 h1        1 WAI      0.063200
     51 H481        7.7560    2.1060    0.5760 h1        1 WAI      0.053200
     52 H482        7.9520    0.4510    1.3190 h1        1 WAI      0.053200
     53 H491        7.9240    1.4900    3.6430 hx        1 WAI      0.120700
     54 H492        7.7420    3.1530    2.8900 hx        1 WAI      0.120700
     55 H521       10.0390    1.2830    2.4660 hn        1 WAI      0.459800
     56 H522       10.0290    2.6350    3.4450 hn        1 WAI      0.459800
     57 H523        9.8750    2.7960    1.7910 hn        1 WAI      0.459800
@<TRIPOS>BOND
     1    1    2 ar  
     2    1    6 ar  
     3    1    7 1   
     4    2    3 ar  
     5    2   31 1   
     6    3    4 ar  
     7    3   22 1   
     8    4    5 ar  
     9    5    6 ar  
    10    5   32 1   
    11    6   33 1   
    12    7    8 ar  
    13    7   12 ar  
    14    8    9 ar  
    15    8   34 1   
    16    9   10 ar  
    17    9   35 1   
    18   10   11 ar  
    19   11   12 ar  
    20   11   13 1   
    21   13   14 1   
    22   13   36 1   
    23   14   15 ar  
    24   14   19 ar  
    25   15   16 ar  
    26   15   37 1   
    27   16   17 ar  
    28   16   21 1   
    29   17   18 ar  
    30   17   20 1   
    31   18   19 ar  
    32   18   38 1   
    33   19   39 1   
    34   20   40 1   
    35   20   41 1   
    36   20   42 1   
    37   22   23 1   
    38   22   27 1   
    39   23   24 1   
    40   23   43 1   
    41   23   44 1   
    42   24   25 1   
    43   24   45 1   
    44   24   46 1   
    45   25   26 1   
    46   25   28 1   
    47   26   27 1   
    48   26   47 1   
    49   26   48 1   
    50   27   49 1   
    51   27   50 1   
    52   28   29 1   
    53   28   51 1   
    54   28   52 1   
    55   29   30 1   
    56   29   53 1   
    57   29   54 1   
    58   30   55 1   
    59   30   56 1   
    60   30   57 1   
@<TRIPOS>SUBSTRUCTURE
     1 WAI         1 TEMP              0 ****  ****    0 ROOT
