@<TRIPOS>MOLECULE
WAI
   58    61     1     0     0
SMALL
bcc


@<TRIPOS>ATOM
      1 C1         -0.4110   -0.2390    0.1130 cp        1 WAI     -0.148500
      2 C2          0.9220    0.0680   -0.1840 ca        1 WAI     -0.171300
      3 C3          1.7910    0.4260    0.8830 ca        1 WAI      0.571200
      4 N4          1.3640    0.4640    2.1810 nb        1 WAI     -0.666000
      5 C5          0.0860    0.1540    2.4340 ca        1 WAI      0.422200
      6 C6         -0.8480   -0.2010    1.4420 ca        1 WAI     -0.217300
      7 C7         -1.3760   -0.5910   -0.9440 cp        1 WAI      0.528800
      8 C8         -2.6780   -0.0340   -0.9040 ca        1 WAI     -0.301600
      9 C9         -3.5900   -0.4210   -1.9030 ca        1 WAI      0.464200
     10 N10        -3.2690   -1.2920   -2.8810 nb        1 WAI     -0.659000
     11 C11        -1.9820   -1.7660   -2.8370 ca        1 WAI      0.712900
     12 N12        -1.0070   -1.4590   -1.9260 nb        1 WAI     -0.669000
     13 N13        -1.6010   -2.7400   -3.9130 n4        1 WAI     -0.603100
     14 C14        -1.4530   -2.0840   -5.2170 ca        1 WAI     -0.063400
     15 C15        -2.5940   -1.8210   -5.9920 ca        1 WAI     -0.080000
     16 C16        -2.4390   -1.2330   -7.2500 ca        1 WAI      0.013400
     17 C17        -1.1610   -0.9010   -7.7410 ca        1 WAI      0.006700
     18 C18        -0.0420   -1.1670   -6.9390 ca        1 WAI     -0.112000
     19 C19        -0.1700   -1.7490   -5.6830 ca        1 WAI     -0.096000
     20 C20        -0.9890   -0.2860   -9.0750 c3        1 WAI     -0.082800
     21 CL24       -3.8250   -0.9320   -8.1700 cl        1 WAI     -0.013400
     22 N34         3.1610    0.7540    0.5430 nh        1 WAI     -0.712300
     23 C35         3.4710    2.1560    0.8260 c3        1 WAI      0.161300
     24 C36         4.9270    2.5130    0.4630 c3        1 WAI      0.179300
     25 N37         5.8870    1.5990    1.0630 n3        1 WAI     -0.762600
     26 C38         5.5770    0.1990    0.8150 c3        1 WAI      0.179300
     27 C39         4.1190   -0.1510    1.1790 c3        1 WAI      0.161300
     28 C48         7.2670    1.9570    0.8470 c3        1 WAI      0.178800
     29 C49         7.8630    2.4950    2.1780 c3        1 WAI      0.077800
     30 N52         9.2990    2.8700    2.0420 n4        1 WAI     -0.836600
     31 H2          1.2950    0.0390   -1.2190 ha        1 WAI      0.167000
     32 H5         -0.2130    0.1930    3.5010 h4        1 WAI      0.050100
     33 H6         -1.8820   -0.4480    1.7200 ha        1 WAI      0.160000
     34 H8         -2.9650    0.6790   -0.1170 ha        1 WAI      0.195000
     35 H9         -4.6280   -0.0290   -1.9340 h4        1 WAI      0.077100
     36 H13        -2.3440   -3.4530   -3.9780 hn        1 WAI      0.478800
     37 H15        -3.6070   -2.0650   -5.6250 ha        1 WAI      0.180000
     38 H18         0.9640   -0.9100   -7.3130 ha        1 WAI      0.171000
     39 H19         0.7320   -1.9420   -5.0790 ha        1 WAI      0.156000
     40 H201        0.0870   -0.0850   -9.2980 hc        1 WAI      0.078367
     41 H202       -1.3950   -0.9660   -9.8690 hc        1 WAI      0.078367
     42 H203       -1.5520    0.6820   -9.1310 hc        1 WAI      0.078367
     43 H351        3.2960    2.4230    1.9070 h1        1 WAI      0.064700
     44 H352        2.7940    2.7920    0.1900 h1        1 WAI      0.064700
     45 H361        5.0310    2.5390   -0.6610 h1        1 WAI      0.046950
     46 H362        5.1320    3.5480    0.8580 h1        1 WAI      0.046950
     47 H381        5.7640   -0.0780   -0.2630 h1        1 WAI      0.046950
     48 H382        6.2480   -0.4320    1.4620 h1        1 WAI      0.046950
     49 H391        3.9120   -1.1910    0.8020 h1        1 WAI      0.064700
     50 H392        4.0240   -0.1560    2.3030 h1        1 WAI      0.064700
     51 H481        7.3750    2.7580    0.0590 h1        1 WAI      0.056200
     52 H482        7.8740    1.0650    0.5180 h1        1 WAI      0.056200
     53 H491        7.7850    1.7080    2.9820 hx        1 WAI      0.121200
     54 H492        7.2950    3.4110    2.5120 hx        1 WAI      0.121200
     55 H521        9.4110    3.6010    1.3320 hn        1 WAI      0.462800
     56 H522        9.8550    2.0560    1.7620 hn        1 WAI      0.462800
     57 H132       -0.7130   -3.1960   -3.6580 hn        1 WAI      0.478800
     58 H523        9.6530    3.2220    2.9390 hn        1 WAI      0.462800
@<TRIPOS>BOND
     1    1    2 ar  
     2    1    6 ar  
     3    1    7 1   
     4    2    3 ar  
     5    2   31 1   
     6    3    4 ar  
     7    3   22 1   
     8    4    5 ar  
     9    5    6 ar  
    10    5   32 1   
    11    6   33 1   
    12    7    8 ar  
    13    7   12 ar  
    14    8    9 ar  
    15    8   34 1   
    16    9   10 ar  
    17    9   35 1   
    18   10   11 ar  
    19   11   12 ar  
    20   11   13 1   
    21   13   14 1   
    22   13   36 1   
    23   13   57 1   
    24   14   15 ar  
    25   14   19 ar  
    26   15   16 ar  
    27   15   37 1   
    28   16   17 ar  
    29   16   21 1   
    30   17   18 ar  
    31   17   20 1   
    32   18   19 ar  
    33   18   38 1   
    34   19   39 1   
    35   20   40 1   
    36   20   41 1   
    37   20   42 1   
    38   22   23 1   
    39   22   27 1   
    40   23   24 1   
    41   23   43 1   
    42   23   44 1   
    43   24   25 1   
    44   24   45 1   
    45   24   46 1   
    46   25   26 1   
    47   25   28 1   
    48   26   27 1   
    49   26   47 1   
    50   26   48 1   
    51   27   49 1   
    52   27   50 1   
    53   28   29 1   
    54   28   51 1   
    55   28   52 1   
    56   29   30 1   
    57   29   53 1   
    58   29   54 1   
    59   30   55 1   
    60   30   56 1   
    61   30   58 1   
@<TRIPOS>SUBSTRUCTURE
     1 WAI         1 TEMP              0 ****  ****    0 ROOT
