@<TRIPOS>MOLECULE
WAN
   46    48     1     0     0
SMALL
bcc


@<TRIPOS>ATOM
      1 C26         0.8350   -0.3810   -2.2080 c3        1 WAN     -0.095100
      2 C25         2.0670   -0.6250   -1.3750 c3        1 WAN     -0.079400
      3 C24         2.1980    0.4180   -0.2830 c3        1 WAN     -0.105700
      4 C23         3.4410    0.2870    0.5080 cc        1 WAN      0.360600
      5 C18         4.1870    1.3830    1.0990 cc        1 WAN     -0.020900
      6 N17         4.0050    2.7500    1.0900 nc        1 WAN     -0.518100
      7 N22         4.0640   -0.8890    0.8280 nd        1 WAN     -0.467800
      8 N20         5.1460   -0.6230    1.5710 na        1 WAN      0.164400
      9 C21         6.0430   -1.6390    2.0860 c3        1 WAN      0.020600
     10 C19         5.2820    0.7440    1.7760 cd        1 WAN     -0.200900
     11 C15         6.2660    1.5350    2.5070 c         1 WAN      0.737100
     12 O16         7.2470    1.1090    3.1370 o         1 WAN     -0.606500
     13 N14         6.0220    2.9220    2.4460 ns        1 WAN     -0.481400
     14 C13         4.9140    3.4500    1.7590 cd        1 WAN      0.488500
     15 C12         4.7790    4.9200    1.7800 cd        1 WAN     -0.204900
     16 C6          5.7080    5.8090    1.2730 cd        1 WAN      0.047000
     17 C5          5.2880    7.1790    1.3400 cc        1 WAN     -0.725600
     18 S2          6.2310    8.3200    0.8700 sy        1 WAN      1.559200
     19 O3          5.8410    9.6000    1.1960 o         1 WAN     -0.578800
     20 O4          7.5600    7.9860    0.7330 o         1 WAN     -0.578800
     21 N1          5.7470    8.3360   -1.0260 nz        1 WAN     -0.780500
     22 S7          3.7690    7.2480    2.0550 ss        1 WAN      0.232200
     23 C8          3.6200    5.6050    2.2700 cc        1 WAN      0.236000
     24 O9          2.6260    4.9030    2.8300 os        1 WAN     -0.216900
     25 C10         1.4800    5.6790    3.2850 c3        1 WAN      0.108400
     26 C11         0.5520    4.6780    3.9240 c3        1 WAN     -0.108100
     27 H26         0.7480   -1.1610   -3.0020 hc        1 WAN      0.036700
     28 H26A       -0.0850   -0.4190   -1.5740 hc        1 WAN      0.036700
     29 H26B        0.8800    0.6200   -2.7000 hc        1 WAN      0.036700
     30 H25         2.9780   -0.6010   -2.0300 hc        1 WAN      0.054200
     31 H25A        2.0150   -1.6490   -0.9180 hc        1 WAN      0.054200
     32 H24         1.3210    0.3400    0.4170 hc        1 WAN      0.061700
     33 H24A        2.1740    1.4460   -0.7370 hc        1 WAN      0.061700
     34 H21         6.8500   -1.1320    2.6800 h1        1 WAN      0.082700
     35 H21A        6.4950   -2.2090    1.2310 h1        1 WAN      0.082700
     36 H21B        5.4710   -2.3490    2.7420 h1        1 WAN      0.082700
     37 HN14        6.6180    3.5280    2.9620 hn        1 WAN      0.338500
     38 H6          6.6860    5.5090    0.8660 ha        1 WAN      0.198000
     39 HN1         5.0700    7.6170   -1.2550 hn        1 WAN      0.448133
     40 HN1A        6.5750    8.1820   -1.5950 hn        1 WAN      0.448133
     41 H10         1.0150    6.1720    2.3910 h1        1 WAN      0.061700
     42 H10A        1.8400    6.4490    4.0170 h1        1 WAN      0.061700
     43 H11        -0.3670    5.2120    4.2700 hc        1 WAN      0.075033
     44 H11A        1.0420    4.1870    4.7990 hc        1 WAN      0.075033
     45 H11B        0.2620    3.8860    3.1920 hc        1 WAN      0.075033
     46 H13         5.3540    9.2370   -1.2810 hn        1 WAN      0.448133
@<TRIPOS>BOND
     1    1    2 1   
     2    1   27 1   
     3    1   28 1   
     4    1   29 1   
     5    2    3 1   
     6    2   30 1   
     7    2   31 1   
     8    3    4 1   
     9    3   32 1   
    10    3   33 1   
    11    4    5 1   
    12    4    7 2   
    13    5    6 1   
    14    5   10 2   
    15    6   14 2   
    16    7    8 1   
    17    8    9 1   
    18    8   10 1   
    19    9   34 1   
    20    9   35 1   
    21    9   36 1   
    22   10   11 1   
    23   11   12 2   
    24   11   13 1   
    25   13   14 1   
    26   13   37 1   
    27   14   15 1   
    28   15   16 1   
    29   15   23 2   
    30   16   17 2   
    31   16   38 1   
    32   17   18 1   
    33   17   22 1   
    34   18   19 2   
    35   18   20 2   
    36   18   21 1   
    37   21   39 1   
    38   21   40 1   
    39   21   46 1   
    40   22   23 1   
    41   23   24 1   
    42   24   25 1   
    43   25   26 1   
    44   25   41 1   
    45   25   42 1   
    46   26   43 1   
    47   26   44 1   
    48   26   45 1   
@<TRIPOS>SUBSTRUCTURE
     1 WAN         1 TEMP              0 ****  ****    0 ROOT
