@<TRIPOS>MOLECULE
WAN
   46    48     1     0     0
SMALL
bcc


@<TRIPOS>ATOM
      1 C26         0.8120   -0.4790   -2.0720 c3        1 WAN     -0.095100
      2 C25         2.0780   -0.6850   -1.2810 c3        1 WAN     -0.079400
      3 C24         2.2150    0.3640   -0.1950 c3        1 WAN     -0.105700
      4 C23         3.4870    0.2700    0.5530 cc        1 WAN      0.360600
      5 C18         4.2260    1.3900    1.1070 cc        1 WAN     -0.020900
      6 N17         4.0120    2.7520    1.0910 nc        1 WAN     -0.518100
      7 N22         4.1490   -0.8870    0.8630 nd        1 WAN     -0.467800
      8 N20         5.2490   -0.5880    1.5650 na        1 WAN      0.164400
      9 C21         6.1860   -1.5770    2.0580 c3        1 WAN      0.020600
     10 C19         5.3600    0.7840    1.7520 cd        1 WAN     -0.200900
     11 C15         6.3490    1.6050    2.4410 c         1 WAN      0.737100
     12 O16         7.3610    1.2090    3.0410 o         1 WAN     -0.606500
     13 N14         6.0700    2.9850    2.3740 n         1 WAN     -0.481400
     14 C13         4.9270    3.4800    1.7210 cd        1 WAN      0.488500
     15 C12         4.7580    4.9460    1.7320 cd        1 WAN     -0.204900
     16 C6          5.6490    5.8510    1.1860 cd        1 WAN      0.047000
     17 C5          5.2000    7.2120    1.2530 cc        1 WAN     -0.725600
     18 S2          6.1010    8.3700    0.7410 sy        1 WAN      1.559200
     19 O3          5.6910    9.6440    1.0680 o         1 WAN     -0.578800
     20 O4          7.4320    8.0640    0.5640 o         1 WAN     -0.578800
     21 N1          5.5540    8.3540   -1.1380 n4        1 WAN     -0.780500
     22 S7          3.7040    7.2530    2.0180 ss        1 WAN      0.232200
     23 C8          3.6010    5.6100    2.2540 cc        1 WAN      0.236000
     24 O9          2.6420    4.8920    2.8540 os        1 WAN     -0.216900
     25 C10         1.4940    5.6460    3.3380 c3        1 WAN      0.108400
     26 C11         0.6100    4.6300    4.0160 c3        1 WAN     -0.108100
     27 H26        -0.0840   -0.5440   -1.4080 hc        1 WAN      0.036700
     28 H26A        0.8100    0.5220   -2.5670 hc        1 WAN      0.036700
     29 H26B        0.7210   -1.2630   -2.8630 hc        1 WAN      0.036700
     30 H25         2.0720   -1.7090   -0.8220 hc        1 WAN      0.054200
     31 H25A        2.9650   -0.6350   -1.9660 hc        1 WAN      0.054200
     32 H24         1.3640    0.2610    0.5340 hc        1 WAN      0.061700
     33 H24A        2.1450    1.3890   -0.6490 hc        1 WAN      0.061700
     34 H21         5.6540   -2.2940    2.7390 h1        1 WAN      0.082700
     35 H21A        6.6230   -2.1450    1.1930 h1        1 WAN      0.082700
     36 H21B        7.0010   -1.0460    2.6200 h1        1 WAN      0.082700
     37 HN14        6.6690    3.6110    2.8640 hn        1 WAN      0.338500
     38 H6          6.6200    5.5700    0.7500 ha        1 WAN      0.198000
     39 HN1         5.1310    9.2430   -1.3890 hn        1 WAN      0.448133
     40 HN1A        4.8880    7.6170   -1.3370 hn        1 WAN      0.448133
     41 H10         1.8600    6.4310    4.0510 h1        1 WAN      0.061700
     42 H10A        0.9890    6.1190    2.4550 h1        1 WAN      0.061700
     43 H11        -0.3080    5.1470    4.3880 hc        1 WAN      0.075033
     44 H11A        0.3150    3.8250    3.3010 hc        1 WAN      0.075033
     45 H11B        1.1400    4.1590    4.8790 hc        1 WAN      0.075033
     46 H13         6.3670    8.2140   -1.7330 hn        1 WAN      0.448133
@<TRIPOS>BOND
     1    1    2 1   
     2    1   27 1   
     3    1   28 1   
     4    1   29 1   
     5    2    3 1   
     6    2   30 1   
     7    2   31 1   
     8    3    4 1   
     9    3   32 1   
    10    3   33 1   
    11    4    5 1   
    12    4    7 2   
    13    5    6 1   
    14    5   10 2   
    15    6   14 2   
    16    7    8 1   
    17    8    9 1   
    18    8   10 1   
    19    9   34 1   
    20    9   35 1   
    21    9   36 1   
    22   10   11 1   
    23   11   12 2   
    24   11   13 1   
    25   13   14 1   
    26   13   37 1   
    27   14   15 1   
    28   15   16 1   
    29   15   23 2   
    30   16   17 2   
    31   16   38 1   
    32   17   18 1   
    33   17   22 1   
    34   18   19 2   
    35   18   20 2   
    36   18   21 1   
    37   21   39 1   
    38   21   40 1   
    39   21   46 1   
    40   22   23 1   
    41   23   24 1   
    42   24   25 1   
    43   25   26 1   
    44   25   41 1   
    45   25   42 1   
    46   26   43 1   
    47   26   44 1   
    48   26   45 1   
@<TRIPOS>SUBSTRUCTURE
     1 WAN         1 TEMP              0 ****  ****    0 ROOT
