@<TRIPOS>MOLECULE
WAN
   46    48     1     0     0
SMALL
bcc


@<TRIPOS>ATOM
      1 C26         0.8120   -0.4780   -2.0810 c3        1 WAN     -0.095100
      2 C25         2.0680   -0.6910   -1.2750 c3        1 WAN     -0.079400
      3 C24         2.2110    0.3730   -0.2050 c3        1 WAN     -0.105700
      4 C23         3.4760    0.2730    0.5560 cc        1 WAN      0.360600
      5 C18         4.2170    1.3900    1.1130 cc        1 WAN     -0.020900
      6 N17         4.0110    2.7530    1.0910 nc        1 WAN     -0.518100
      7 N22         4.1270   -0.8880    0.8760 nd        1 WAN     -0.467800
      8 N20         5.2210   -0.5940    1.5890 na        1 WAN      0.164400
      9 C21         6.1480   -1.5870    2.0940 c3        1 WAN      0.020600
     10 C19         5.3400    0.7780    1.7720 cd        1 WAN     -0.200900
     11 C15         6.3270    1.5950    2.4680 c         1 WAN      0.737100
     12 O16         7.3310    1.1950    3.0790 o         1 WAN     -0.606500
     13 N14         6.0580    2.9770    2.3940 n         1 WAN     -0.481400
     14 C13         4.9250    3.4770    1.7280 cd        1 WAN      0.488500
     15 C12         4.7650    4.9440    1.7330 cd        1 WAN     -0.204900
     16 C6          5.6670    5.8420    1.1920 cd        1 WAN      0.047000
     17 C5          5.2260    7.2060    1.2510 cc        1 WAN     -0.725600
     18 S2          6.1380    8.3560    0.7430 sy        1 WAN      1.559200
     19 O3          5.7340    9.6340    1.0620 o         1 WAN     -0.578800
     20 O4          7.4690    8.0420    0.5790 o         1 WAN     -0.578800
     21 N1          5.6080    8.3370   -1.1410 n4        1 WAN     -0.780500
     22 S7          3.7230    7.2590    2.0010 ss        1 WAN      0.232200
     23 C8          3.6070    5.6170    2.2420 cc        1 WAN      0.236000
     24 O9          2.6390    4.9070    2.8350 os        1 WAN     -0.216900
     25 C10         1.4910    5.6690    3.3070 c3        1 WAN      0.108400
     26 C11         0.5960    4.6620    3.9820 c3        1 WAN     -0.108100
     27 H26         0.7160   -1.2740   -2.8590 hc        1 WAN      0.036700
     28 H26A       -0.0910   -0.5180   -1.4240 hc        1 WAN      0.036700
     29 H26B        0.8310    0.5140   -2.5920 hc        1 WAN      0.036700
     30 H25         2.9610   -0.6660   -1.9530 hc        1 WAN      0.054200
     31 H25A        2.0410   -1.7070   -0.8000 hc        1 WAN      0.054200
     32 H24         1.3530    0.2950    0.5180 hc        1 WAN      0.061700
     33 H24A        2.1620    1.3920   -0.6760 hc        1 WAN      0.061700
     34 H21         6.9610   -1.0590    2.6620 h1        1 WAN      0.082700
     35 H21A        6.5890   -2.1610    1.2350 h1        1 WAN      0.082700
     36 H21B        5.6040   -2.2980    2.7730 h1        1 WAN      0.082700
     37 HN14        6.6570    3.6000    2.8870 hn        1 WAN      0.338500
     38 H6          6.6400    5.5530    0.7650 ha        1 WAN      0.198000
     39 HN1         4.9390    7.6050   -1.3430 hn        1 WAN      0.448133
     40 HN1A        6.4260    8.1900   -1.7280 hn        1 WAN      0.448133
     41 H10         0.9970    6.1420    2.4170 h1        1 WAN      0.061700
     42 H10A        1.8550    6.4550    4.0200 h1        1 WAN      0.061700
     43 H11        -0.3230    5.1860    4.3420 hc        1 WAN      0.075033
     44 H11A        1.1150    4.1910    4.8510 hc        1 WAN      0.075033
     45 H11B        0.3020    3.8550    3.2670 hc        1 WAN      0.075033
     46 H13         5.1950    9.2290   -1.3980 hn        1 WAN      0.448133
@<TRIPOS>BOND
     1    1    2 1   
     2    1   27 1   
     3    1   28 1   
     4    1   29 1   
     5    2    3 1   
     6    2   30 1   
     7    2   31 1   
     8    3    4 1   
     9    3   32 1   
    10    3   33 1   
    11    4    5 1   
    12    4    7 2   
    13    5    6 1   
    14    5   10 2   
    15    6   14 2   
    16    7    8 1   
    17    8    9 1   
    18    8   10 1   
    19    9   34 1   
    20    9   35 1   
    21    9   36 1   
    22   10   11 1   
    23   11   12 2   
    24   11   13 1   
    25   13   14 1   
    26   13   37 1   
    27   14   15 1   
    28   15   16 1   
    29   15   23 2   
    30   16   17 2   
    31   16   38 1   
    32   17   18 1   
    33   17   22 1   
    34   18   19 2   
    35   18   20 2   
    36   18   21 1   
    37   21   39 1   
    38   21   40 1   
    39   21   46 1   
    40   22   23 1   
    41   23   24 1   
    42   24   25 1   
    43   25   26 1   
    44   25   41 1   
    45   25   42 1   
    46   26   43 1   
    47   26   44 1   
    48   26   45 1   
@<TRIPOS>SUBSTRUCTURE
     1 WAN         1 TEMP              0 ****  ****    0 ROOT
