@<TRIPOS>MOLECULE
WAN
   45    47     1     0     0
SMALL
bcc


@<TRIPOS>ATOM
      1 C26        -5.4780    3.0750   -2.5550 c3        1 WAN     -0.094100
      2 C25        -5.3320    1.6980   -1.9590 c3        1 WAN     -0.078400
      3 C24        -4.1300    1.6310   -1.0380 c3        1 WAN     -0.101700
      4 C23        -3.8760    0.2790   -0.4970 cc        1 WAN      0.339600
      5 C18        -2.5700   -0.2420   -0.1300 cc        1 WAN      0.011100
      6 N17        -1.3010    0.2940   -0.1890 nc        1 WAN     -0.541100
      7 N22        -4.8220   -0.6730   -0.2350 nd        1 WAN     -0.480800
      8 N20        -4.2200   -1.7580    0.2670 na        1 WAN      0.143400
      9 C21        -4.9140   -2.9660    0.6520 c3        1 WAN      0.028600
     10 C19        -2.8420   -1.5630    0.3580 cd        1 WAN     -0.218900
     11 C15        -1.7580   -2.4150    0.8300 c         1 WAN      0.734100
     12 O16        -1.8670   -3.5720    1.2770 o         1 WAN     -0.638500
     13 N14        -0.4960   -1.8060    0.7400 n         1 WAN     -0.477400
     14 C13        -0.3250   -0.4960    0.2480 cd        1 WAN      0.544500
     15 C12         1.0640   -0.0100    0.2270 cd        1 WAN     -0.253900
     16 C6          2.1380   -0.7230   -0.3540 cd        1 WAN      0.025000
     17 C5          3.3490   -0.0310   -0.2840 cc        1 WAN     -0.492600
     18 S2          4.7500   -0.7080   -0.8920 sy        1 WAN      1.564200
     19 O3          5.8450   -0.2020   -0.1600 o         1 WAN     -0.658800
     20 O4          4.5720   -2.1070   -0.9300 o         1 WAN     -0.658800
     21 N1          4.8280   -0.1440   -2.3890 n3        1 WAN     -1.025700
     22 S7          3.1470    1.4270    0.4880 ss        1 WAN      0.173200
     23 C8          1.5020    1.2230    0.7400 cc        1 WAN      0.170000
     24 O9          0.6380    2.0560    1.3790 os        1 WAN     -0.253900
     25 C10         1.2200    3.3140    1.7870 c3        1 WAN      0.108400
     26 C11         0.1240    4.0600    2.5070 c3        1 WAN     -0.100100
     27 H26        -4.5750    3.3450   -3.1550 hc        1 WAN      0.032700
     28 H26A       -6.3700    3.1120   -3.2250 hc        1 WAN      0.032700
     29 H26B       -5.6070    3.8410   -1.7530 hc        1 WAN      0.032700
     30 H25        -6.2620    1.4340   -1.3900 hc        1 WAN      0.049700
     31 H25A       -5.2180    0.9410   -2.7790 hc        1 WAN      0.049700
     32 H24        -3.2110    1.9680   -1.5900 hc        1 WAN      0.061700
     33 H24A       -4.2790    2.3380   -0.1740 hc        1 WAN      0.061700
     34 H21        -5.4430   -3.4010   -0.2380 h1        1 WAN      0.072700
     35 H21A       -4.1580   -3.7000    1.0440 h1        1 WAN      0.072700
     36 H21B       -5.6690   -2.7320    1.4500 h1        1 WAN      0.072700
     37 HN14        0.2990   -2.3130    1.0600 hn        1 WAN      0.343500
     38 H6          2.0330   -1.7190   -0.8040 ha        1 WAN      0.183000
     39 HN1         5.3630    0.6460   -2.6470 hn        1 WAN      0.447800
     40 HN1A        4.3640   -0.5580   -3.1580 hn        1 WAN      0.447800
     41 H10         2.0960    3.1100    2.4600 h1        1 WAN      0.048200
     42 H10A        1.5650    3.8660    0.8720 h1        1 WAN      0.048200
     43 H11         0.5120    5.0570    2.8260 hc        1 WAN      0.058367
     44 H11A       -0.7550    4.2040    1.8340 hc        1 WAN      0.058367
     45 H11B       -0.2110    3.4900    3.4060 hc        1 WAN      0.058367
@<TRIPOS>BOND
     1    1    2 1   
     2    1   27 1   
     3    1   28 1   
     4    1   29 1   
     5    2    3 1   
     6    2   30 1   
     7    2   31 1   
     8    3    4 1   
     9    3   32 1   
    10    3   33 1   
    11    4    5 1   
    12    4    7 2   
    13    5    6 1   
    14    5   10 2   
    15    6   14 2   
    16    7    8 1   
    17    8    9 1   
    18    8   10 1   
    19    9   34 1   
    20    9   35 1   
    21    9   36 1   
    22   10   11 1   
    23   11   12 2   
    24   11   13 1   
    25   13   14 1   
    26   13   37 1   
    27   14   15 1   
    28   15   16 1   
    29   15   23 2   
    30   16   17 2   
    31   16   38 1   
    32   17   18 1   
    33   17   22 1   
    34   18   19 2   
    35   18   20 2   
    36   18   21 1   
    37   21   39 1   
    38   21   40 1   
    39   22   23 1   
    40   23   24 1   
    41   24   25 1   
    42   25   26 1   
    43   25   41 1   
    44   25   42 1   
    45   26   43 1   
    46   26   44 1   
    47   26   45 1   
@<TRIPOS>SUBSTRUCTURE
     1 WAN         1 TEMP              0 ****  ****    0 ROOT
