@<TRIPOS>MOLECULE
WAY
   52    54     1     0     0
SMALL
bcc


@<TRIPOS>ATOM
      1 C1         -0.0490   -0.0000   -0.0290 ca        1 WAY      0.216600
      2 C2          1.3270    0.3570    0.0150 ca        1 WAY     -0.217600
      3 CF2         2.0290    0.4350    1.2270 ca        1 WAY     -0.106000
      4 CH          1.3690    0.1700    2.4200 ca        1 WAY     -0.109000
      5 CF1         0.0210   -0.1810    2.4020 ca        1 WAY     -0.062000
      6 C6         -0.6990   -0.2710    1.2040 ca        1 WAY     -0.032300
      7 C10         2.0410    0.6980   -1.2120 c         1 WAY      0.602700
      8 O11         1.9190    1.5800   -2.0390 o         1 WAY     -0.405100
      9 N12         3.2160   -0.2780   -1.5090 ny        1 WAY     -0.486300
     10 O13         4.2290    0.2780   -2.2070 oh        1 WAY     -0.363300
     11 CE         -2.1240   -0.6750    1.2600 c3        1 WAY     -0.094800
     12 N20        -0.7100   -0.0930   -1.2710 nh        1 WAY     -0.709900
     13 S21        -1.1270   -1.5540   -1.9640 sy        1 WAY      1.513200
     14 CD         -1.1960    1.1510   -1.8480 c3        1 WAY      0.275100
     15 CK         -3.5470    3.4300    0.0590 ca        1 WAY     -0.247300
     16 CM         -4.7640    2.7990   -0.2610 ca        1 WAY      0.416200
     17 N25        -4.8460    1.6930   -1.0260 nb        1 WAY     -0.650000
     18 CJ         -3.6990    1.1780   -1.5040 ca        1 WAY      0.410200
     19 C27        -2.4280    1.7340   -1.2340 ca        1 WAY     -0.264600
     20 CI         -2.3640    2.8830   -0.4380 ca        1 WAY     -0.076000
     21 C35         0.1970   -1.8410   -2.9580 ca        1 WAY     -0.456500
     22 CC1         1.2340   -2.6900   -2.5360 ca        1 WAY      0.001000
     23 CB1         2.3080   -2.9810   -3.3590 ca        1 WAY     -0.234000
     24 C38         2.3280   -2.4610   -4.6770 ca        1 WAY      0.202100
     25 CB2         1.2820   -1.6410   -5.1300 ca        1 WAY     -0.234000
     26 CC2         0.2310   -1.3470   -4.2700 ca        1 WAY      0.001000
     27 O45         3.4260   -2.8010   -5.4130 os        1 WAY     -0.309900
     28 CA          3.4050   -2.4660   -6.8040 c3        1 WAY      0.104700
     29 O50        -2.2670   -1.3630   -2.7580 o         1 WAY     -0.627300
     30 O51        -1.1540   -2.5420   -0.9660 o         1 WAY     -0.627300
     31 HF2         3.0860    0.7430    1.2450 ha        1 WAY      0.144000
     32 HH          1.9110    0.2420    3.3780 ha        1 WAY      0.171000
     33 HF1        -0.4980   -0.3910    3.3550 ha        1 WAY      0.172000
     34 H14         3.6320   -0.6000   -0.6130 hn        1 WAY      0.482800
     35 H15         3.8490    0.9000   -2.8750 ho        1 WAY      0.479000
     36 HE1        -2.2300   -1.7420    0.9250 hc        1 WAY      0.080700
     37 HE2        -2.5230   -0.5970    2.3020 hc        1 WAY      0.080700
     38 HE3        -2.7550   -0.0270    0.5980 hc        1 WAY      0.080700
     39 HD1        -0.3680    1.9180   -1.8010 h1        1 WAY      0.066700
     40 HD2        -1.4120    0.9390   -2.9400 h1        1 WAY      0.066700
     41 HJ         -3.8000    0.2780   -2.1450 h4        1 WAY      0.055100
     42 HI         -1.3970    3.3570   -0.2140 ha        1 WAY      0.135000
     43 HC1         1.1630   -3.1680   -1.5400 ha        1 WAY      0.169500
     44 HB1         3.1060   -3.6720   -3.0460 ha        1 WAY      0.171000
     45 HB2         1.2720   -1.2580   -6.1620 ha        1 WAY      0.171000
     46 HC2        -0.6100   -0.7260   -4.6350 ha        1 WAY      0.169500
     47 HA1         2.5120   -2.9130   -7.3030 h1        1 WAY      0.065700
     48 HA2         4.3510   -2.9290   -7.1870 h1        1 WAY      0.065700
     49 HA3         3.4240   -1.3570   -6.9330 h1        1 WAY      0.065700
     50 HK         -3.5370    4.3350    0.6800 ha        1 WAY      0.155000
     51 H122        2.8510   -1.1120   -2.0270 hn        1 WAY      0.482800
     52 HL         -5.7260    3.1990    0.1090 h4        1 WAY      0.038100
@<TRIPOS>BOND
     1    1    2 ar  
     2    1    6 ar  
     3    1   12 1   
     4    2    3 ar  
     5    2    7 1   
     6    3    4 ar  
     7    3   31 1   
     8    4    5 ar  
     9    4   32 1   
    10    5    6 ar  
    11    5   33 1   
    12    6   11 1   
    13    7    8 2   
    14    7    9 1   
    15    9   10 1   
    16    9   34 1   
    17    9   51 1   
    18   10   35 1   
    19   11   36 1   
    20   11   37 1   
    21   11   38 1   
    22   12   13 1   
    23   12   14 1   
    24   13   21 1   
    25   13   29 2   
    26   13   30 2   
    27   14   19 1   
    28   14   39 1   
    29   14   40 1   
    30   15   16 ar  
    31   15   20 ar  
    32   15   50 1   
    33   16   17 ar  
    34   16   52 1   
    35   17   18 ar  
    36   18   19 ar  
    37   18   41 1   
    38   19   20 ar  
    39   20   42 1   
    40   21   22 ar  
    41   21   26 ar  
    42   22   23 ar  
    43   22   43 1   
    44   23   24 ar  
    45   23   44 1   
    46   24   25 ar  
    47   24   27 1   
    48   25   26 ar  
    49   25   45 1   
    50   26   46 1   
    51   27   28 1   
    52   28   47 1   
    53   28   48 1   
    54   28   49 1   
@<TRIPOS>SUBSTRUCTURE
     1 WAY         1 TEMP              0 ****  ****    0 ROOT
