@<TRIPOS>MOLECULE
WAY
   51    45     1     0     0
SMALL
bcc


@<TRIPOS>ATOM
      1 C1         -0.2760    0.7480    0.0860 c1        1 WAY      0.079000
      2 C2          1.1370    0.8510    0.0670 c1        1 WAY     -0.118000
      3 CF2         1.8410    0.9780    1.2640 c1        1 WAY     -0.108000
      4 CH          1.1540    1.0040    2.4820 c1        1 WAY     -0.119500
      5 CF1        -0.2510    0.9010    2.5030 c1        1 WAY     -0.119500
      6 C6         -0.9630    0.7740    1.3050 c1        1 WAY     -0.045000
      7 C10         1.8420    1.0380   -1.2270 c2        1 WAY      0.294000
      8 O11         1.2240    1.0990   -2.2260 o         1 WAY     -0.304000
      9 N12         3.2760    1.0300   -1.2720 n         1 WAY     -0.182000
     10 O13         3.9720   -0.1590   -1.0540 oh        1 WAY     -0.251000
     11 CE         -2.4720    0.5210    1.3330 c3        1 WAY     -0.186000
     12 N20        -1.0080    0.5410   -1.1640 n3        1 WAY     -0.787000
     13 S21        -0.5000   -0.7050   -2.2570 s4        1 WAY      2.075800
     14 CD         -2.2720    1.2690   -1.4070 c3        1 WAY      0.025000
     15 CK         -3.3300    4.6190    0.0510 c1        1 WAY     -0.187000
     16 CM         -2.1020    5.1760    0.4050 c1        1 WAY     -0.071000
     17 N25        -0.9640    4.4780    0.2130 n1        1 WAY     -0.145000
     18 CJ         -1.0110    3.2070   -0.3340 c1        1 WAY     -0.060000
     19 C27        -2.2250    2.6490   -0.6870 c2        1 WAY     -0.153000
     20 CI         -3.3790    3.3550   -0.4940 c2        1 WAY     -0.084000
     21 C35         0.2250   -2.1310   -1.3040 c1        1 WAY     -0.877000
     22 CC1        -0.5340   -2.7910   -0.3510 c2        1 WAY      0.029000
     23 CB1         0.0010   -3.9070    0.3240 c1        1 WAY     -0.241000
     24 C38         1.2990   -4.3460    0.0270 c1        1 WAY      0.151000
     25 CB2         2.0580   -3.6800   -0.9330 c1        1 WAY     -0.188000
     26 CC2         1.5320   -2.5810   -1.5980 c1        1 WAY      0.022000
     27 O45         1.9030   -5.3770    0.8160 os        1 WAY     -0.201000
     28 CA          2.4250   -4.9140    2.0630 c3        1 WAY     -0.080000
     29 O50        -1.5970   -1.1400   -3.1190 o         1 WAY     -0.551400
     30 O51         0.4540   -0.1910   -3.2480 o         1 WAY     -0.551400
     31 HF2         2.8290    1.0500    1.2510 ha        1 WAY      0.142000
     32 HH          1.6600    1.0950    3.3380 ha        1 WAY      0.140500
     33 HF1        -0.7470    0.9200    3.3880 ha        1 WAY      0.140500
     34 H14         3.7230    1.7780   -1.4940 hn        1 WAY      0.240000
     35 H15         4.7520   -0.1460   -1.5180 ho        1 WAY      0.218000
     36 HE1        -2.7110    0.1200    2.1540 hc        1 WAY      0.092000
     37 HE2        -2.7220   -0.0980    0.5660 hc        1 WAY      0.092000
     38 HE3        -2.9390    1.3520    1.2360 hc        1 WAY      0.092000
     39 HD1        -2.3990    1.4120   -2.4040 h1        1 WAY      0.117000
     40 HD2        -3.0360    0.7310   -1.0480 h1        1 WAY      0.117000
     41 HK         -4.1180    5.1020    0.1840 ha        1 WAY      0.144000
     42 HL         -2.0630    6.1160    0.8080 ha        1 WAY      0.158000
     43 HJ         -0.1980    2.7130   -0.4690 ha        1 WAY      0.162000
     44 HI         -4.2260    2.9680   -0.7390 ha        1 WAY      0.174000
     45 HC1        -1.4170   -2.4880   -0.1490 ha        1 WAY      0.154000
     46 HB1        -0.5120   -4.3570    0.9710 ha        1 WAY      0.147000
     47 HB2         3.0050   -4.0020   -1.1500 ha        1 WAY      0.160000
     48 HC2         2.0590   -2.1250   -2.2580 ha        1 WAY      0.173000
     49 HA1         2.9840   -4.1730    1.9110 h1        1 WAY      0.091000
     50 HA2         2.9490   -5.6430    2.4970 h1        1 WAY      0.091000
     51 HA3         1.6670   -4.6430    2.6610 h1        1 WAY      0.091000
@<TRIPOS>BOND
     1    1    6 1   
     2    1   12 1   
     3    2    3 1   
     4    2    7 1   
     5    3   31 1   
     6    4    5 1   
     7    4   32 1   
     8    5   33 1   
     9    6   11 1   
    10    7    8 1   
    11    7    9 1   
    12    9   10 1   
    13    9   34 1   
    14   10   35 1   
    15   11   36 1   
    16   11   37 1   
    17   11   38 1   
    18   12   13 1   
    19   12   14 1   
    20   13   29 1   
    21   13   30 1   
    22   14   19 1   
    23   14   39 1   
    24   14   40 1   
    25   15   20 1   
    26   15   41 1   
    27   16   17 1   
    28   16   42 1   
    29   18   19 1   
    30   18   43 1   
    31   19   20 1   
    32   20   44 1   
    33   21   22 1   
    34   21   26 1   
    35   22   23 1   
    36   22   45 1   
    37   23   46 1   
    38   24   25 1   
    39   24   27 1   
    40   25   47 1   
    41   26   48 1   
    42   27   28 1   
    43   28   49 1   
    44   28   50 1   
    45   28   51 1   
@<TRIPOS>SUBSTRUCTURE
     1 WAY         1 TEMP              0 ****  ****    0 ROOT
