@<TRIPOS>MOLECULE
WAY
   52    54     1     0     0
SMALL
bcc


@<TRIPOS>ATOM
      1 C1         -0.0560   -0.0140   -0.0280 ca        1 WAY      0.216600
      2 C2          1.3230    0.3320    0.0260 ca        1 WAY     -0.217600
      3 CF2         2.0190    0.3910    1.2420 ca        1 WAY     -0.106000
      4 CH          1.3520    0.1190    2.4290 ca        1 WAY     -0.109000
      5 CF1         0.0010   -0.2210    2.4010 ca        1 WAY     -0.062000
      6 C6         -0.7140   -0.2930    1.1990 ca        1 WAY     -0.031300
      7 C10         2.0460    0.6790   -1.1940 c         1 WAY      0.602700
      8 O11         1.9350    1.5710   -2.0120 o         1 WAY     -0.405100
      9 N12         3.2140   -0.3030   -1.4950 n4        1 WAY     -0.486300
     10 O13         4.2340    0.2530   -2.1830 oh        1 WAY     -0.363300
     11 CE         -2.1430   -0.6850    1.2430 c3        1 WAY     -0.094800
     12 N20        -0.7110   -0.0890   -1.2750 nh        1 WAY     -0.709900
     13 S21        -1.1360   -1.5390   -1.9850 sy        1 WAY      1.513200
     14 CD         -1.1840    1.1650   -1.8410 c3        1 WAY      0.275100
     15 CK         -3.5280    3.4410    0.0780 ca        1 WAY     -0.247300
     16 CM         -4.7480    2.8230   -0.2560 ca        1 WAY      0.416200
     17 N25        -4.8350    1.7270   -1.0340 nb        1 WAY     -0.650000
     18 CJ         -3.6890    1.2080   -1.5100 ca        1 WAY      0.410200
     19 C27        -2.4150    1.7510   -1.2270 ca        1 WAY     -0.264600
     20 CI         -2.3460    2.8910   -0.4180 ca        1 WAY     -0.076000
     21 C35         0.1910   -1.8270   -2.9740 ca        1 WAY     -0.456500
     22 CC1         1.2180   -2.6890   -2.5540 ca        1 WAY      0.001000
     23 CB1         2.2940   -2.9820   -3.3740 ca        1 WAY     -0.234000
     24 C38         2.3270   -2.4490   -4.6860 ca        1 WAY      0.202100
     25 CB2         1.2910   -1.6160   -5.1370 ca        1 WAY     -0.234000
     26 CC2         0.2370   -1.3210   -4.2800 ca        1 WAY      0.001000
     27 O45         3.4260   -2.7910   -5.4200 os        1 WAY     -0.309900
     28 CA          3.4160   -2.4420   -6.8080 c3        1 WAY      0.104700
     29 O50        -2.2690   -1.3310   -2.7840 o         1 WAY     -0.627300
     30 O51        -1.1780   -2.5370   -0.9970 o         1 WAY     -0.627300
     31 HF2         3.0790    0.6900    1.2690 ha        1 WAY      0.144000
     32 HH          1.8890    0.1760    3.3910 ha        1 WAY      0.171000
     33 HF1        -0.5240   -0.4370    3.3490 ha        1 WAY      0.172000
     34 H14         3.6250   -0.6370   -0.6000 hn        1 WAY      0.482800
     35 H15         3.8630    0.8840   -2.8460 ho        1 WAY      0.479000
     36 HE1        -2.5460   -0.6150    2.2840 hc        1 WAY      0.080700
     37 HE2        -2.7650   -0.0250    0.5850 hc        1 WAY      0.080700
     38 HE3        -2.2560   -1.7480    0.8960 hc        1 WAY      0.080700
     39 HD1        -0.3510    1.9250   -1.7810 h1        1 WAY      0.066700
     40 HD2        -1.3960    0.9670   -2.9360 h1        1 WAY      0.066700
     41 HJ         -3.7930    0.3160   -2.1620 h4        1 WAY      0.055100
     42 HI         -1.3770    3.3550   -0.1840 ha        1 WAY      0.135000
     43 HC1         1.1370   -3.1770   -1.5630 ha        1 WAY      0.169500
     44 HB1         3.0850   -3.6830   -3.0620 ha        1 WAY      0.171000
     45 HB2         1.2900   -1.2230   -6.1660 ha        1 WAY      0.171000
     46 HC2        -0.5970   -0.6890   -4.6440 ha        1 WAY      0.169500
     47 HA1         4.3610   -2.9100   -7.1890 h1        1 WAY      0.065700
     48 HA2         2.5220   -2.8770   -7.3150 h1        1 WAY      0.065700
     49 HA3         3.4450   -1.3320   -6.9250 h1        1 WAY      0.065700
     50 HK         -3.5140    4.3400    0.7100 ha        1 WAY      0.155000
     51 H122        2.8460   -1.1280   -2.0220 hn        1 WAY      0.482800
     52 HL         -5.7090    3.2270    0.1140 h4        1 WAY      0.038100
@<TRIPOS>BOND
     1    1    2 ar  
     2    1    6 ar  
     3    1   12 1   
     4    2    3 ar  
     5    2    7 1   
     6    3    4 ar  
     7    3   31 1   
     8    4    5 ar  
     9    4   32 1   
    10    5    6 ar  
    11    5   33 1   
    12    6   11 1   
    13    7    8 2   
    14    7    9 1   
    15    9   10 1   
    16    9   34 1   
    17    9   51 1   
    18   10   35 1   
    19   11   36 1   
    20   11   37 1   
    21   11   38 1   
    22   12   13 1   
    23   12   14 1   
    24   13   21 1   
    25   13   29 2   
    26   13   30 2   
    27   14   19 1   
    28   14   39 1   
    29   14   40 1   
    30   15   16 ar  
    31   15   20 ar  
    32   15   50 1   
    33   16   17 ar  
    34   16   52 1   
    35   17   18 ar  
    36   18   19 ar  
    37   18   41 1   
    38   19   20 ar  
    39   20   42 1   
    40   21   22 ar  
    41   21   26 ar  
    42   22   23 ar  
    43   22   43 1   
    44   23   24 ar  
    45   23   44 1   
    46   24   25 ar  
    47   24   27 1   
    48   25   26 ar  
    49   25   45 1   
    50   26   46 1   
    51   27   28 1   
    52   28   47 1   
    53   28   48 1   
    54   28   49 1   
@<TRIPOS>SUBSTRUCTURE
     1 WAY         1 TEMP              0 ****  ****    0 ROOT
