@<TRIPOS>MOLECULE
WAY
   53    54     1     0     0
SMALL
bcc


@<TRIPOS>ATOM
      1 C1          0.6650    1.0960    1.9060 ca        1 WAY      0.295600
      2 C2          1.7550    1.0780    2.8450 ca        1 WAY     -0.285600
      3 CF2         1.5170    0.7520    4.2040 ca        1 WAY     -0.082000
      4 CH          0.2450    0.5110    4.6630 ca        1 WAY     -0.133000
      5 CF1        -0.8330    0.5500    3.7610 ca        1 WAY     -0.017000
      6 C6         -0.6480    0.8090    2.4120 ca        1 WAY     -0.128300
      7 C10         3.0950    1.3870    2.4120 c         1 WAY      0.581700
      8 O11         3.6450    1.3390    1.3160 o         1 WAY     -0.480100
      9 N12         4.0510    1.9190    3.5110 n4        1 WAY     -0.460300
     10 O13         5.1050    2.6100    3.0260 oh        1 WAY     -0.354300
     11 CE         -1.8430    0.7190    1.5350 c3        1 WAY     -0.065800
     12 N20         0.8980    1.3450    0.5700 nh        1 WAY     -0.777600
     13 S21        -0.6310   -2.7320   -3.1800 s4        1 WAY      1.703300
     14 CD          0.0700    2.1750   -0.2640 c3        1 WAY      0.257100
     15 CK         -1.7560    1.7830   -3.5430 ca        1 WAY     -0.208300
     16 CM         -1.5690    0.4090   -3.7770 ca        1 WAY      0.444200
     17 N25        -0.8770   -0.3840   -2.9340 nb        1 WAY     -0.870000
     18 CJ         -0.3470    0.1680   -1.8170 ca        1 WAY      0.438200
     19 C27        -0.4910    1.5300   -1.4990 ca        1 WAY     -0.205600
     20 CI         -1.2100    2.3460   -2.3910 ca        1 WAY     -0.048000
     21 C35        -0.4580   -2.8000   -4.7110 ca        1 WAY     -0.675500
     22 CC1         0.8240   -2.6610   -5.3270 ca        1 WAY      0.062500
     23 CB1         1.0020   -2.7830   -6.6800 ca        1 WAY     -0.216000
     24 C38        -0.1200   -3.0600   -7.5140 ca        1 WAY      0.296100
     25 CB2        -1.4080   -3.1930   -6.9380 ca        1 WAY     -0.216000
     26 CC2        -1.5590   -3.0620   -5.5790 ca        1 WAY      0.062500
     27 O45         0.1540   -3.1740   -8.8260 os        1 WAY     -0.269900
     28 CA         -0.9260   -3.4850   -9.7240 c3        1 WAY      0.097700
     29 O50        -1.8570   -3.0130   -2.6650 o         1 WAY     -0.447400
     30 O51         0.4860   -2.7310   -2.4010 o         1 WAY     -0.447400
     31 HF2         2.3500    0.6450    4.9160 ha        1 WAY      0.129000
     32 HH          0.0610    0.2670    5.7230 ha        1 WAY      0.179000
     33 HF1        -1.8510    0.3380    4.1400 ha        1 WAY      0.175000
     34 H14         4.3970    1.1310    4.0890 hn        1 WAY      0.482800
     35 H15         5.3950    2.2070    2.1690 ho        1 WAY      0.487000
     36 HE1        -1.5890    0.3290    0.5190 hc        1 WAY      0.062367
     37 HE2        -2.3350    1.7200    1.4320 hc        1 WAY      0.062367
     38 HE3        -2.5980    0.0200    1.9820 hc        1 WAY      0.062367
     39 HD1        -0.7900    2.5960    0.3360 h1        1 WAY      0.083700
     40 HD2         0.6970    3.0570   -0.6070 h1        1 WAY      0.083700
     41 HJ          0.2160   -0.5280   -1.1630 h4        1 WAY      0.051100
     42 HI         -1.3430    3.4210   -2.1800 ha        1 WAY      0.172000
     43 HC1         1.7000   -2.4600   -4.6790 ha        1 WAY      0.171000
     44 HB1         1.9980   -2.6820   -7.1450 ha        1 WAY      0.189500
     45 HB2        -2.2810   -3.4090   -7.5760 ha        1 WAY      0.189500
     46 HC2        -2.5670   -3.1780   -5.1310 ha        1 WAY      0.171000
     47 HA1        -1.3750   -4.4710   -9.4580 h1        1 WAY      0.081033
     48 HA2        -1.6860   -2.6670   -9.7060 h1        1 WAY      0.081033
     49 HA3        -0.4070   -3.5320  -10.7180 h1        1 WAY      0.081033
     50 HK         -2.3260    2.3940   -4.2610 ha        1 WAY      0.185000
     51 H122        3.5370    2.5850    4.1230 hn        1 WAY      0.482800
     52 H201        1.8270    1.2140    0.2290 hn        1 WAY      0.450800
     53 HL         -1.9940   -0.0710   -4.6800 h4        1 WAY      0.039100
@<TRIPOS>BOND
     1    1    2 ar  
     2    1    6 ar  
     3    1   12 1   
     4    2    3 ar  
     5    2    7 1   
     6    3    4 ar  
     7    3   31 1   
     8    4    5 ar  
     9    4   32 1   
    10    5    6 ar  
    11    5   33 1   
    12    6   11 1   
    13    7    8 2   
    14    7    9 1   
    15    9   10 1   
    16    9   34 1   
    17    9   51 1   
    18   10   35 1   
    19   11   36 1   
    20   11   37 1   
    21   11   38 1   
    22   12   14 1   
    23   12   52 1   
    24   13   21 1   
    25   13   29 1   
    26   13   30 1   
    27   14   19 1   
    28   14   39 1   
    29   14   40 1   
    30   15   16 ar  
    31   15   20 ar  
    32   15   50 1   
    33   16   17 ar  
    34   16   53 1   
    35   17   18 ar  
    36   18   19 ar  
    37   18   41 1   
    38   19   20 ar  
    39   20   42 1   
    40   21   22 ar  
    41   21   26 ar  
    42   22   23 ar  
    43   22   43 1   
    44   23   24 ar  
    45   23   44 1   
    46   24   25 ar  
    47   24   27 1   
    48   25   26 ar  
    49   25   45 1   
    50   26   46 1   
    51   27   28 1   
    52   28   47 1   
    53   28   48 1   
    54   28   49 1   
@<TRIPOS>SUBSTRUCTURE
     1 WAY         1 TEMP              0 ****  ****    0 ROOT
