@<TRIPOS>MOLECULE
WAY
   51    53     1     0     0
SMALL
bcc


@<TRIPOS>ATOM
      1 C1         -1.5280   -0.3710   -1.2020 ca        1 WAY      0.184600
      2 C2         -2.5950    0.3360   -0.6040 ca        1 WAY     -0.142600
      3 CF2        -3.8930    0.2470   -1.1180 ca        1 WAY     -0.116000
      4 CH         -4.1520   -0.5400   -2.2340 ca        1 WAY     -0.122000
      5 CF1        -3.1170   -1.2560   -2.8270 ca        1 WAY     -0.106000
      6 C6         -1.8120   -1.1890   -2.3300 ca        1 WAY     -0.055300
      7 C10        -2.4100    1.2000    0.5950 c         1 WAY      0.613700
      8 O11        -1.8140    2.2870    0.5870 o         1 WAY     -0.554100
      9 N12        -2.8910    0.6500    1.8260 n         1 WAY     -0.354400
     10 O13        -3.1490    1.5520    2.7770 oh        1 WAY     -0.437100
     11 CE         -0.7550   -2.0020   -2.9790 c3        1 WAY     -0.078800
     12 N20        -0.2110   -0.2750   -0.6910 nh        1 WAY     -0.689900
     13 S21         0.5330   -1.5240    0.0930 sy        1 WAY      1.512200
     14 CD          0.5150    0.9410   -0.9930 c3        1 WAY      0.271100
     15 CK          0.9690    2.2840   -4.5060 ca        1 WAY     -0.254300
     16 CM          1.9780    1.4110   -4.9480 ca        1 WAY      0.396200
     17 N25         2.4870    0.4200   -4.1890 nb        1 WAY     -0.666000
     18 CJ          1.9940    0.2740   -2.9450 ca        1 WAY      0.401200
     19 C27         0.9840    1.1020   -2.4080 ca        1 WAY     -0.234600
     20 CI          0.4660    2.1210   -3.2150 ca        1 WAY     -0.075000
     21 C35         0.8600   -0.9030    1.6130 ca        1 WAY     -0.431500
     22 CC1        -0.0740   -1.0280    2.6540 ca        1 WAY      0.026500
     23 CB1         0.2010   -0.5690    3.9320 ca        1 WAY     -0.214000
     24 C38         1.4480    0.0360    4.1900 ca        1 WAY      0.194100
     25 CB2         2.4030    0.1630    3.1690 ca        1 WAY     -0.214000
     26 CC2         2.0970   -0.3090    1.8980 ca        1 WAY      0.026500
     27 O45         1.6290    0.4670    5.4810 os        1 WAY     -0.318900
     28 CA          2.8870    1.0650    5.7850 c3        1 WAY      0.109700
     29 O50         1.7670   -1.7890   -0.5460 o         1 WAY     -0.653300
     30 O51        -0.3500   -2.6160    0.2110 o         1 WAY     -0.653300
     31 HF2        -4.7080    0.8130   -0.6410 ha        1 WAY      0.138000
     32 HH         -5.1720   -0.6010   -2.6430 ha        1 WAY      0.142000
     33 HF1        -3.3250   -1.8910   -3.7030 ha        1 WAY      0.143000
     34 H14        -3.7240    0.0840    1.7020 hn        1 WAY      0.303500
     35 H15        -2.2780    1.8570    3.1000 ho        1 WAY      0.435000
     36 HE1        -0.4130   -2.8110   -2.2820 hc        1 WAY      0.062367
     37 HE2        -1.1340   -2.4850   -3.9130 hc        1 WAY      0.062367
     38 HE3         0.1300   -1.3690   -3.2480 hc        1 WAY      0.062367
     39 HD1        -0.1270    1.8310   -0.7230 h1        1 WAY      0.071200
     40 HD2         1.4260    0.9570   -0.3200 h1        1 WAY      0.071200
     41 HL          2.4060    1.5050   -5.9620 h4        1 WAY      0.021100
     42 HJ          2.4280   -0.5520   -2.3430 h4        1 WAY      0.057100
     43 HI         -0.3240    2.7870   -2.8350 ha        1 WAY      0.145000
     44 HC1        -1.0460   -1.5150    2.4500 ha        1 WAY      0.157500
     45 HB1        -0.5300   -0.6710    4.7470 ha        1 WAY      0.153500
     46 HB2         3.3820    0.6220    3.3620 ha        1 WAY      0.153500
     47 HC2         2.8550   -0.2340    1.0970 ha        1 WAY      0.157500
     48 HA1         2.7940    1.3190    6.8710 h1        1 WAY      0.052033
     49 HA2         3.7170    0.3370    5.6180 h1        1 WAY      0.052033
     50 HA3         3.0400    1.9870    5.1740 h1        1 WAY      0.052033
     51 HK          0.5880    3.0740   -5.1660 ha        1 WAY      0.143000
@<TRIPOS>BOND
     1    1    2 ar  
     2    1    6 ar  
     3    1   12 1   
     4    2    3 ar  
     5    2    7 1   
     6    3    4 ar  
     7    3   31 1   
     8    4    5 ar  
     9    4   32 1   
    10    5    6 ar  
    11    5   33 1   
    12    6   11 1   
    13    7    8 2   
    14    7    9 1   
    15    9   10 1   
    16    9   34 1   
    17   10   35 1   
    18   11   36 1   
    19   11   37 1   
    20   11   38 1   
    21   12   13 1   
    22   12   14 1   
    23   13   21 1   
    24   13   29 2   
    25   13   30 2   
    26   14   19 1   
    27   14   39 1   
    28   14   40 1   
    29   15   16 ar  
    30   15   20 ar  
    31   15   51 1   
    32   16   17 ar  
    33   16   41 1   
    34   17   18 ar  
    35   18   19 ar  
    36   18   42 1   
    37   19   20 ar  
    38   20   43 1   
    39   21   22 ar  
    40   21   26 ar  
    41   22   23 ar  
    42   22   44 1   
    43   23   24 ar  
    44   23   45 1   
    45   24   25 ar  
    46   24   27 1   
    47   25   26 ar  
    48   25   46 1   
    49   26   47 1   
    50   27   28 1   
    51   28   48 1   
    52   28   49 1   
    53   28   50 1   
@<TRIPOS>SUBSTRUCTURE
     1 WAY         1 TEMP              0 ****  ****    0 ROOT
