@<TRIPOS>MOLECULE
WBI
   51    54     1     0     0
SMALL
bcc


@<TRIPOS>ATOM
      1 C          -0.9840    0.0590    1.5880 c3        1 WBI     -0.084400
      2 N           1.4830   -0.9020    2.7630 nh        1 WBI     -0.625000
      3 O           6.5460    0.6120    7.1100 o         1 WBI     -0.636500
      4 C1          0.1580    1.0240    1.7960 c3        1 WBI     -0.088400
      5 N1          6.9620   -2.0230    6.2090 n4        1 WBI     -0.527600
      6 O1          6.0970   -4.1440    5.9370 o         1 WBI     -0.489100
      7 C2          1.1560    0.5120    2.8300 c3        1 WBI      0.202300
      8 N2          6.5330    0.0050    9.3310 n         1 WBI     -0.393100
      9 C3          2.5040   -1.3840    3.5410 ca        1 WBI      0.276600
     10 N3          6.9500   -5.2680   13.0560 nb        1 WBI     -0.637000
     11 C4          2.7870   -2.7870    3.6330 ca        1 WBI     -0.231000
     12 C5          3.8670   -3.2520    4.3440 ca        1 WBI     -0.003000
     13 C6          4.7390   -2.3660    5.0240 ca        1 WBI     -0.298600
     14 C7          5.8540   -2.9600    5.7110 c         1 WBI      0.594700
     15 C8          6.8310   -1.7140    7.6240 cc        1 WBI     -0.225200
     16 C9          6.8940   -2.6830    8.6060 cd        1 WBI      0.062000
     17 C10         6.7760   -2.3070    9.9690 cd        1 WBI     -0.139200
     18 C11         6.6030   -0.9640   10.2870 cc        1 WBI      0.083600
     19 C12         6.6310   -0.2960    7.9630 c         1 WBI      0.694700
     20 C13         6.8350   -3.3160   11.0210 ca        1 WBI     -0.026800
     21 C14         7.7660   -4.3620   10.9580 ca        1 WBI     -0.240800
     22 C15         7.7830   -5.3100   11.9980 ca        1 WBI      0.413200
     23 C16         6.0610   -4.2590   13.1040 ca        1 WBI      0.413200
     24 C17         5.9620   -3.2610   12.1170 ca        1 WBI     -0.240800
     25 C18         4.4430   -0.9880    4.9930 ca        1 WBI     -0.003000
     26 C19         3.3630   -0.5100    4.2880 ca        1 WBI     -0.231000
     27 C20         0.5590   -1.8450    2.1560 c3        1 WBI      0.202300
     28 C21        -0.4240   -1.2700    1.1410 c3        1 WBI     -0.088400
     29 H1         -1.6850    0.4590    0.8100 hc        1 WBI      0.060200
     30 H2         -1.5670   -0.0650    2.5370 hc        1 WBI      0.060200
     31 H11         0.6830    1.1980    0.8200 hc        1 WBI      0.064450
     32 H21        -0.2270    2.0140    2.1560 hc        1 WBI      0.064450
     33 HN1         7.8670   -2.4860    6.0610 hn        1 WBI      0.465800
     34 H12         0.7540    0.7330    3.8620 h1        1 WBI      0.054200
     35 H22         2.1110    1.1000    2.6890 h1        1 WBI      0.054200
     36 HN2         6.4130    0.9670    9.5870 hn        1 WBI      0.369500
     37 H4          2.1350   -3.5250    3.1390 ha        1 WBI      0.158500
     38 H5          4.0660   -4.3380    4.3920 ha        1 WBI      0.155000
     39 H9          7.0230   -3.7540    8.3560 ha        1 WBI      0.185000
     40 H11A        6.5170   -0.6290   11.3430 h4        1 WBI      0.194000
     41 H14         8.4780   -4.4440   10.1270 ha        1 WBI      0.143000
     42 H15         8.5040   -6.1490   11.9860 h4        1 WBI      0.040100
     43 H16         5.3890   -4.2510   13.9830 h4        1 WBI      0.040100
     44 H17         5.2060   -2.4700   12.2060 ha        1 WBI      0.143000
     45 H18         5.0510   -0.2570    5.5550 ha        1 WBI      0.155000
     46 H19         3.1660    0.5740    4.3190 ha        1 WBI      0.158500
     47 H120        1.1650   -2.6350    1.6200 h1        1 WBI      0.054200
     48 H220       -0.0250   -2.3490    2.9820 h1        1 WBI      0.054200
     49 H121       -1.2490   -2.0170    1.0060 hc        1 WBI      0.064450
     50 H221        0.0870   -1.1470    0.1500 hc        1 WBI      0.064450
     51 H122        6.9430   -1.1410    5.6750 hn        1 WBI      0.465800
@<TRIPOS>BOND
     1    1    4 1   
     2    1   28 1   
     3    1   29 1   
     4    1   30 1   
     5    2    7 1   
     6    2    9 1   
     7    2   27 1   
     8    3   19 2   
     9    4    7 1   
    10    4   31 1   
    11    4   32 1   
    12    5   14 1   
    13    5   15 1   
    14    5   33 1   
    15    5   51 1   
    16    6   14 2   
    17    7   34 1   
    18    7   35 1   
    19    8   18 1   
    20    8   19 1   
    21    8   36 1   
    22    9   11 ar  
    23    9   26 ar  
    24   10   22 ar  
    25   10   23 ar  
    26   11   12 ar  
    27   11   37 1   
    28   12   13 ar  
    29   12   38 1   
    30   13   14 1   
    31   13   25 ar  
    32   15   16 2   
    33   15   19 1   
    34   16   17 1   
    35   16   39 1   
    36   17   18 2   
    37   17   20 1   
    38   18   40 1   
    39   20   21 ar  
    40   20   24 ar  
    41   21   22 ar  
    42   21   41 1   
    43   22   42 1   
    44   23   24 ar  
    45   23   43 1   
    46   24   44 1   
    47   25   26 ar  
    48   25   45 1   
    49   26   46 1   
    50   27   28 1   
    51   27   47 1   
    52   27   48 1   
    53   28   49 1   
    54   28   50 1   
@<TRIPOS>SUBSTRUCTURE
     1 WBI         1 TEMP              0 ****  ****    0 ROOT
