@<TRIPOS>MOLECULE
WBI
   51    54     1     0     0
SMALL
bcc


@<TRIPOS>ATOM
      1 C          -0.9340    0.1040    1.5460 c3        1 WBI     -0.084400
      2 N           1.5090   -0.8890    2.7440 nh        1 WBI     -0.625000
      3 O           6.5780    0.5770    7.1000 o         1 WBI     -0.636500
      4 C1          0.2230    1.0500    1.7510 c3        1 WBI     -0.088400
      5 N1          6.9520   -2.0730    6.2240 ny        1 WBI     -0.527600
      6 O1          6.0490   -4.1810    5.9710 o         1 WBI     -0.489100
      7 C2          1.2070    0.5310    2.7950 c3        1 WBI      0.202300
      8 N2          6.5510   -0.0090    9.3250 ns        1 WBI     -0.393100
      9 C3          2.5170   -1.3820    3.5310 ca        1 WBI      0.276600
     10 N3          6.8770   -5.2530   13.1010 nb        1 WBI     -0.637000
     11 C4          2.7740   -2.7880    3.6380 ca        1 WBI     -0.231000
     12 C5          3.8430   -3.2650    4.3590 ca        1 WBI     -0.003000
     13 C6          4.7280   -2.3890    5.0340 ca        1 WBI     -0.298600
     14 C7          5.8290   -2.9950    5.7320 c         1 WBI      0.594700
     15 C8          6.8240   -1.7490    7.6360 cc        1 WBI     -0.225200
     16 C9          6.8690   -2.7090    8.6270 cd        1 WBI      0.062000
     17 C10         6.7550   -2.3190    9.9860 cd        1 WBI     -0.139200
     18 C11         6.6030   -0.9700   10.2910 cc        1 WBI      0.083600
     19 C12         6.6460   -0.3240    7.9610 c         1 WBI      0.694700
     20 C13         6.7960   -3.3180   11.0470 ca        1 WBI     -0.026800
     21 C14         7.7100   -4.3800   10.9960 ca        1 WBI     -0.240800
     22 C15         7.7100   -5.3180   12.0450 ca        1 WBI      0.413200
     23 C16         6.0040   -4.2290   13.1380 ca        1 WBI      0.413200
     24 C17         5.9230   -3.2400   12.1410 ca        1 WBI     -0.240800
     25 C18         4.4560   -1.0060    4.9890 ca        1 WBI     -0.003000
     26 C19         3.3880   -0.5150    4.2740 ca        1 WBI     -0.231000
     27 C20         0.5710   -1.8220    2.1410 c3        1 WBI      0.202300
     28 C21        -0.3960   -1.2390    1.1160 c3        1 WBI     -0.088400
     29 H1         -1.5250    0.0010    2.4940 hc        1 WBI      0.060200
     30 H2         -1.6250    0.5090    0.7610 hc        1 WBI      0.060200
     31 H11         0.7560    1.2060    0.7760 hc        1 WBI      0.064450
     32 H21        -0.1450    2.0510    2.0990 hc        1 WBI      0.064450
     33 HN1         6.9500   -1.1960    5.6820 hn        1 WBI      0.465800
     34 H12         0.8030    0.7700    3.8230 h1        1 WBI      0.054200
     35 H22         2.1720    1.1010    2.6540 h1        1 WBI      0.054200
     36 HN2         6.4470    0.9570    9.5730 hn        1 WBI      0.369500
     37 H4          2.1120   -3.5190    3.1480 ha        1 WBI      0.158500
     38 H5          4.0220   -4.3540    4.4180 ha        1 WBI      0.155000
     39 H9          6.9810   -3.7840    8.3860 ha        1 WBI      0.185000
     40 H11A        6.5210   -0.6240   11.3430 h4        1 WBI      0.194000
     41 H14         8.4220   -4.4820   10.1670 ha        1 WBI      0.143000
     42 H15         8.4180   -6.1680   12.0420 h4        1 WBI      0.040100
     43 H16         5.3310   -4.2020   14.0160 h4        1 WBI      0.040100
     44 H17         5.1790   -2.4360   12.2220 ha        1 WBI      0.143000
     45 H18         5.0740   -0.2800    5.5470 ha        1 WBI      0.155000
     46 H19         3.2100    0.5720    4.2930 ha        1 WBI      0.158500
     47 H120        1.1650   -2.6270    1.6160 h1        1 WBI      0.054200
     48 H220       -0.0260   -2.3060    2.9690 h1        1 WBI      0.054200
     49 H121       -1.2340   -1.9730    0.9840 hc        1 WBI      0.064450
     50 H221        0.1220   -1.1350    0.1260 hc        1 WBI      0.064450
     51 H122        7.8490   -2.5540    6.0820 hn        1 WBI      0.465800
@<TRIPOS>BOND
     1    1    4 1   
     2    1   28 1   
     3    1   29 1   
     4    1   30 1   
     5    2    7 1   
     6    2    9 1   
     7    2   27 1   
     8    3   19 2   
     9    4    7 1   
    10    4   31 1   
    11    4   32 1   
    12    5   14 1   
    13    5   15 1   
    14    5   33 1   
    15    5   51 1   
    16    6   14 2   
    17    7   34 1   
    18    7   35 1   
    19    8   18 1   
    20    8   19 1   
    21    8   36 1   
    22    9   11 ar  
    23    9   26 ar  
    24   10   22 ar  
    25   10   23 ar  
    26   11   12 ar  
    27   11   37 1   
    28   12   13 ar  
    29   12   38 1   
    30   13   14 1   
    31   13   25 ar  
    32   15   16 2   
    33   15   19 1   
    34   16   17 1   
    35   16   39 1   
    36   17   18 2   
    37   17   20 1   
    38   18   40 1   
    39   20   21 ar  
    40   20   24 ar  
    41   21   22 ar  
    42   21   41 1   
    43   22   42 1   
    44   23   24 ar  
    45   23   43 1   
    46   24   44 1   
    47   25   26 ar  
    48   25   45 1   
    49   26   46 1   
    50   27   28 1   
    51   27   47 1   
    52   27   48 1   
    53   28   49 1   
    54   28   50 1   
@<TRIPOS>SUBSTRUCTURE
     1 WBI         1 TEMP              0 ****  ****    0 ROOT
