@<TRIPOS>MOLECULE
WBT
   58    62     1     0     0
SMALL
bcc


@<TRIPOS>ATOM
      1 F1         -0.1280    0.3870   -0.2730 f         1 WBT     -0.136900
      2 C2          1.2200    0.4910   -0.1790 ca        1 WBT      0.150900
      3 C3          1.8270    0.4310    1.0870 ca        1 WBT     -0.208000
      4 C4          3.2280    0.5380    1.2080 ca        1 WBT      0.166600
      5 C5          3.9910    0.7150    0.0270 ca        1 WBT     -0.129000
      6 C6          3.3700    0.7710   -1.2170 ca        1 WBT     -0.095600
      7 C7          1.9840    0.6630   -1.3440 ca        1 WBT     -0.181000
      8 C8          4.2380    0.9800   -2.4210 c         1 WBT      0.682700
      9 O9          5.1520    1.8270   -2.4060 o         1 WBT     -0.599100
     10 N10         3.9640    0.1630   -3.5050 ns        1 WBT     -0.461100
     11 C11         4.6000    0.1700   -4.7610 ca        1 WBT      0.076600
     12 C12         4.0230   -0.6240   -5.8010 ca        1 WBT     -0.200000
     13 C13         4.5750   -0.6710   -7.0680 ca        1 WBT     -0.057000
     14 C14         5.7200    0.0730   -7.3500 ca        1 WBT     -0.115800
     15 C15         6.5390    0.2760   -8.5240 cc        1 WBT     -0.179200
     16 C16         7.5590    1.1520   -8.1680 cd        1 WBT     -0.107100
     17 N17         7.4550    1.4910   -6.8090 na        1 WBT     -0.077400
     18 C18         8.2210    2.4810   -6.1130 c3        1 WBT      0.047300
     19 C19         7.4940    3.8190   -5.8940 c3        1 WBT     -0.070100
     20 C20         8.0960    4.5510   -4.7490 ca        1 WBT     -0.051300
     21 C21         9.0530    5.5530   -4.9520 ca        1 WBT     -0.242300
     22 C22         9.5800    6.2180   -3.8310 ca        1 WBT      0.392700
     23 N23         9.2150    5.9470   -2.5630 nb        1 WBT     -0.666000
     24 C24         8.2910    4.9830   -2.3830 ca        1 WBT      0.392700
     25 C25         7.7030    4.2590   -3.4360 ca        1 WBT     -0.242300
     26 C26         6.3090    0.8650   -6.2960 ca        1 WBT     -0.026200
     27 C27         5.7600    0.9150   -5.0080 ca        1 WBT     -0.172000
     28 N28         3.8890    0.3870    2.4480 nh        1 WBT     -0.633000
     29 C29         3.0620    0.0220    3.5880 c3        1 WBT      0.149300
     30 C30         3.9030   -0.2780    4.8370 c3        1 WBT      0.123400
     31 O31         4.7990    0.7840    5.1350 os        1 WBT     -0.410600
     32 C32         5.6630    1.0740    4.0430 c3        1 WBT      0.123400
     33 C33         4.8750    1.4120    2.7710 c3        1 WBT      0.149300
     34 H3          1.1760    0.3060    1.9660 ha        1 WBT      0.154000
     35 H5          5.0890    0.8080    0.0700 ha        1 WBT      0.160000
     36 H7          1.4820    0.7320   -2.3190 ha        1 WBT      0.154000
     37 H10         3.2090   -0.4820   -3.4090 hn        1 WBT      0.323500
     38 H12         3.1170   -1.2140   -5.5950 ha        1 WBT      0.127000
     39 H13         4.1140   -1.2910   -7.8510 ha        1 WBT      0.136000
     40 H15         6.3800   -0.1780   -9.4960 ha        1 WBT      0.156000
     41 H16         8.3770    1.5490   -8.7720 h4        1 WBT      0.165000
     42 H181        8.4950    2.0540   -5.1040 h1        1 WBT      0.064200
     43 H182        9.1690    2.6660   -6.6910 h1        1 WBT      0.064200
     44 H191        7.5540    4.4360   -6.8290 hc        1 WBT      0.067700
     45 H192        6.4050    3.6350   -5.6800 hc        1 WBT      0.067700
     46 H21         9.3860    5.8200   -5.9630 ha        1 WBT      0.154000
     47 H22        10.3370    7.0140   -3.9530 h4        1 WBT      0.022100
     48 H24         8.0040    4.7820   -1.3350 h4        1 WBT      0.022100
     49 H25         6.9450    3.4880   -3.2250 ha        1 WBT      0.154000
     50 H27         6.2370    1.5310   -4.2310 ha        1 WBT      0.170000
     51 H291        2.3290    0.8420    3.8420 h1        1 WBT      0.051950
     52 H292        2.4830   -0.9050    3.3220 h1        1 WBT      0.051950
     53 H301        3.2370   -0.3460    5.7370 h1        1 WBT      0.059450
     54 H302        4.4780   -1.2330    4.7070 h1        1 WBT      0.059450
     55 H321        6.3510    0.2060    3.8660 h1        1 WBT      0.059450
     56 H322        6.2490    1.9700    4.3780 h1        1 WBT      0.059450
     57 H331        4.3770    2.4140    2.9140 h1        1 WBT      0.051950
     58 H332        5.6040    1.5010    1.9200 h1        1 WBT      0.051950
@<TRIPOS>BOND
     1    1    2 1   
     2    2    3 ar  
     3    2    7 ar  
     4    3    4 ar  
     5    3   34 1   
     6    4    5 ar  
     7    4   28 1   
     8    5    6 ar  
     9    5   35 1   
    10    6    7 ar  
    11    6    8 1   
    12    7   36 1   
    13    8    9 2   
    14    8   10 1   
    15   10   11 1   
    16   10   37 1   
    17   11   12 ar  
    18   11   27 ar  
    19   12   13 ar  
    20   12   38 1   
    21   13   14 ar  
    22   13   39 1   
    23   14   15 1   
    24   14   26 ar  
    25   15   16 2   
    26   15   40 1   
    27   16   17 1   
    28   16   41 1   
    29   17   18 1   
    30   17   26 1   
    31   18   19 1   
    32   18   42 1   
    33   18   43 1   
    34   19   20 1   
    35   19   44 1   
    36   19   45 1   
    37   20   21 ar  
    38   20   25 ar  
    39   21   22 ar  
    40   21   46 1   
    41   22   23 ar  
    42   22   47 1   
    43   23   24 ar  
    44   24   25 ar  
    45   24   48 1   
    46   25   49 1   
    47   26   27 ar  
    48   27   50 1   
    49   28   29 1   
    50   28   33 1   
    51   29   30 1   
    52   29   51 1   
    53   29   52 1   
    54   30   31 1   
    55   30   53 1   
    56   30   54 1   
    57   31   32 1   
    58   32   33 1   
    59   32   55 1   
    60   32   56 1   
    61   33   57 1   
    62   33   58 1   
@<TRIPOS>SUBSTRUCTURE
     1 WBT         1 TEMP              0 ****  ****    0 ROOT
