@<TRIPOS>MOLECULE
WBT
   58    62     1     0     0
SMALL
bcc


@<TRIPOS>ATOM
      1 F1         -0.1400    0.4240   -0.2830 f         1 WBT     -0.136900
      2 C2          1.2090    0.5180   -0.1880 ca        1 WBT      0.150900
      3 C3          1.8130    0.4540    1.0790 ca        1 WBT     -0.208000
      4 C4          3.2140    0.5500    1.2030 ca        1 WBT      0.166600
      5 C5          3.9810    0.7230    0.0230 ca        1 WBT     -0.129000
      6 C6          3.3620    0.7850   -1.2220 ca        1 WBT     -0.095600
      7 C7          1.9760    0.6870   -1.3510 ca        1 WBT     -0.181000
      8 C8          4.2340    0.9880   -2.4240 c         1 WBT      0.682700
      9 O9          5.1540    1.8290   -2.4070 o         1 WBT     -0.599100
     10 N10         3.9550    0.1750   -3.5100 n         1 WBT     -0.461100
     11 C11         4.5930    0.1800   -4.7650 ca        1 WBT      0.076600
     12 C12         4.0110   -0.6070   -5.8070 ca        1 WBT     -0.200000
     13 C13         4.5640   -0.6560   -7.0730 ca        1 WBT     -0.057000
     14 C14         5.7150    0.0790   -7.3520 ca        1 WBT     -0.115800
     15 C15         6.5370    0.2790   -8.5250 cc        1 WBT     -0.179200
     16 C16         7.5640    1.1450   -8.1660 cd        1 WBT     -0.107100
     17 N17         7.4610    1.4820   -6.8060 na        1 WBT     -0.077400
     18 C18         8.2330    2.4650   -6.1070 c3        1 WBT      0.047300
     19 C19         7.5170    3.8080   -5.8870 c3        1 WBT     -0.070100
     20 C20         8.1240    4.5330   -4.7400 ca        1 WBT     -0.051300
     21 C21         9.0890    5.5270   -4.9390 ca        1 WBT     -0.242300
     22 C22         9.6210    6.1860   -3.8160 ca        1 WBT      0.392700
     23 N23         9.2520    5.9150   -2.5500 nb        1 WBT     -0.666000
     24 C24         8.3190    4.9590   -2.3730 ca        1 WBT      0.392700
     25 C25         7.7260    4.2420   -3.4270 ca        1 WBT     -0.242300
     26 C26         6.3090    0.8640   -6.2970 ca        1 WBT     -0.026200
     27 C27         5.7590    0.9160   -5.0090 ca        1 WBT     -0.172000
     28 N28         3.8730    0.3940    2.4440 nh        1 WBT     -0.633000
     29 C29         3.0420    0.0340    3.5820 c3        1 WBT      0.149300
     30 C30         3.8780   -0.2740    4.8320 c3        1 WBT      0.123400
     31 O31         4.7810    0.7820    5.1330 os        1 WBT     -0.410600
     32 C32         5.6490    1.0670    4.0430 c3        1 WBT      0.123400
     33 C33         4.8650    1.4110    2.7690 c3        1 WBT      0.149300
     34 H3          1.1600    0.3320    1.9570 ha        1 WBT      0.154000
     35 H5          5.0790    0.8090    0.0680 ha        1 WBT      0.160000
     36 H7          1.4760    0.7600   -2.3270 ha        1 WBT      0.154000
     37 H10         3.1960   -0.4640   -3.4160 hn        1 WBT      0.323500
     38 H12         3.1000   -1.1900   -5.6040 ha        1 WBT      0.127000
     39 H13         4.0990   -1.2700   -7.8590 ha        1 WBT      0.136000
     40 H15         6.3760   -0.1720   -9.4990 ha        1 WBT      0.156000
     41 H16         8.3850    1.5370   -8.7680 h4        1 WBT      0.165000
     42 H181        9.1840    2.6430   -6.6840 h1        1 WBT      0.064200
     43 H182        8.5030    2.0330   -5.0990 h1        1 WBT      0.064200
     44 H191        7.5830    4.4260   -6.8200 hc        1 WBT      0.067700
     45 H192        6.4270    3.6320   -5.6740 hc        1 WBT      0.067700
     46 H21         9.4250    5.7930   -5.9490 ha        1 WBT      0.154000
     47 H22        10.3840    6.9750   -3.9360 h4        1 WBT      0.022100
     48 H24         8.0280    4.7580   -1.3250 h4        1 WBT      0.022100
     49 H25         6.9620    3.4760   -3.2190 ha        1 WBT      0.154000
     50 H27         6.2400    1.5260   -4.2290 ha        1 WBT      0.170000
     51 H291        2.4560   -0.8900    3.3140 h1        1 WBT      0.051950
     52 H292        2.3130    0.8580    3.8360 h1        1 WBT      0.051950
     53 H301        3.2100   -0.3380    5.7310 h1        1 WBT      0.059450
     54 H302        4.4470   -1.2320    4.7020 h1        1 WBT      0.059450
     55 H321        6.3310    0.1940    3.8650 h1        1 WBT      0.059450
     56 H322        6.2400    1.9590    4.3790 h1        1 WBT      0.059450
     57 H331        4.3730    2.4170    2.9130 h1        1 WBT      0.051950
     58 H332        5.5960    1.4970    1.9190 h1        1 WBT      0.051950
@<TRIPOS>BOND
     1    1    2 1   
     2    2    3 ar  
     3    2    7 ar  
     4    3    4 ar  
     5    3   34 1   
     6    4    5 ar  
     7    4   28 1   
     8    5    6 ar  
     9    5   35 1   
    10    6    7 ar  
    11    6    8 1   
    12    7   36 1   
    13    8    9 2   
    14    8   10 1   
    15   10   11 1   
    16   10   37 1   
    17   11   12 ar  
    18   11   27 ar  
    19   12   13 ar  
    20   12   38 1   
    21   13   14 ar  
    22   13   39 1   
    23   14   15 1   
    24   14   26 ar  
    25   15   16 2   
    26   15   40 1   
    27   16   17 1   
    28   16   41 1   
    29   17   18 1   
    30   17   26 1   
    31   18   19 1   
    32   18   42 1   
    33   18   43 1   
    34   19   20 1   
    35   19   44 1   
    36   19   45 1   
    37   20   21 ar  
    38   20   25 ar  
    39   21   22 ar  
    40   21   46 1   
    41   22   23 ar  
    42   22   47 1   
    43   23   24 ar  
    44   24   25 ar  
    45   24   48 1   
    46   25   49 1   
    47   26   27 ar  
    48   27   50 1   
    49   28   29 1   
    50   28   33 1   
    51   29   30 1   
    52   29   51 1   
    53   29   52 1   
    54   30   31 1   
    55   30   53 1   
    56   30   54 1   
    57   31   32 1   
    58   32   33 1   
    59   32   55 1   
    60   32   56 1   
    61   33   57 1   
    62   33   58 1   
@<TRIPOS>SUBSTRUCTURE
     1 WBT         1 TEMP              0 ****  ****    0 ROOT
