@<TRIPOS>MOLECULE
WBT
   59    63     1     0     0
SMALL
bcc


@<TRIPOS>ATOM
      1 F1          2.1600   -2.6310   -1.3310 f         1 WBT     -0.113900
      2 C2          2.6740   -1.5220   -0.7520 ca        1 WBT      0.184900
      3 C3          2.8830   -1.5020    0.6340 ca        1 WBT     -0.190000
      4 C4          3.4450   -0.3630    1.2660 ca        1 WBT      0.216600
      5 C5          3.7290    0.7660    0.4480 ca        1 WBT     -0.151000
      6 C6          3.4970    0.7270   -0.9290 ca        1 WBT     -0.120600
      7 C7          2.9800   -0.4090   -1.5560 ca        1 WBT     -0.203000
      8 C8          3.8400    1.9370   -1.6840 c         1 WBT      0.583700
      9 O9          4.6470    2.8120   -1.3990 o         1 WBT     -0.437100
     10 N10         3.0580    2.1900   -2.9650 n4        1 WBT     -0.539200
     11 C11         3.7320    1.6410   -4.1470 ca        1 WBT     -0.060400
     12 C12         3.0340    0.7090   -4.9550 ca        1 WBT     -0.152000
     13 C13         3.6310    0.1870   -6.0910 ca        1 WBT     -0.052000
     14 C14         4.9230    0.5840   -6.4350 ca        1 WBT     -0.049800
     15 C15         5.8160    0.2450   -7.5090 cc        1 WBT     -0.184200
     16 C16         6.9910    0.9700   -7.3090 cd        1 WBT     -0.055100
     17 N17         6.8970    1.7460   -6.1470 na        1 WBT     -0.057400
     18 C18         7.8980    2.6650   -5.6780 c3        1 WBT      0.034300
     19 C19         7.9380    4.0030   -6.4290 c3        1 WBT     -0.060100
     20 C20         9.0110    4.8650   -5.8660 ca        1 WBT     -0.061300
     21 C21        10.3620    4.5530   -6.0710 ca        1 WBT     -0.245800
     22 C22        11.3400    5.4060   -5.5300 ca        1 WBT      0.405700
     23 N23        11.0510    6.5150   -4.8220 nb        1 WBT     -0.647000
     24 C24         9.7500    6.8070   -4.6380 ca        1 WBT      0.405700
     25 C25         8.6970    6.0170   -5.1370 ca        1 WBT     -0.245800
     26 C26         5.6270    1.5440   -5.5960 ca        1 WBT     -0.047200
     27 C27         5.0290    2.0740   -4.4480 ca        1 WBT     -0.096000
     28 N28         3.7740   -0.3760    2.6190 nh        1 WBT     -0.635000
     29 C29         3.1910   -1.4230    3.4410 c3        1 WBT      0.159300
     30 C30         3.6230   -1.3920    4.9130 c3        1 WBT      0.118900
     31 O31         3.5760   -0.0790    5.4490 os        1 WBT     -0.391600
     32 C32         4.4400    0.7950    4.7390 c3        1 WBT      0.118900
     33 C33         4.0540    0.8980    3.2580 c3        1 WBT      0.159300
     34 H3          2.6040   -2.4030    1.2050 ha        1 WBT      0.176000
     35 H5          4.1450    1.6910    0.8820 ha        1 WBT      0.165000
     36 H7          2.8450   -0.4840   -2.6440 ha        1 WBT      0.157000
     37 H10         2.9590    3.2050   -3.0970 hn        1 WBT      0.461300
     38 H12         2.0110    0.3940   -4.6960 ha        1 WBT      0.146000
     39 H13         3.0900   -0.5380   -6.7200 ha        1 WBT      0.169000
     40 H15         5.6110   -0.4490   -8.3210 ha        1 WBT      0.182000
     41 H16         7.9070    0.9850   -7.9090 h4        1 WBT      0.190000
     42 H181        7.7130    2.8600   -4.5840 h1        1 WBT      0.074700
     43 H182        8.9040    2.1620   -5.7810 h1        1 WBT      0.074700
     44 H191        6.9450    4.5190   -6.3510 hc        1 WBT      0.066700
     45 H192        8.1370    3.8220   -7.5200 hc        1 WBT      0.066700
     46 H21        10.6570    3.6680   -6.6490 ha        1 WBT      0.141500
     47 H22        12.4160    5.1940   -5.6730 h4        1 WBT      0.032600
     48 H24         9.5410    7.7270   -4.0620 h4        1 WBT      0.032600
     49 H25         7.6550    6.3130   -4.9620 ha        1 WBT      0.141500
     50 H27         5.5640    2.7950   -3.8100 ha        1 WBT      0.163000
     51 H291        3.5150   -2.4200    3.0230 h1        1 WBT      0.055700
     52 H292        2.0640   -1.3640    3.3950 h1        1 WBT      0.055700
     53 H301        4.6570   -1.8150    5.0270 h1        1 WBT      0.071700
     54 H302        2.8940   -1.9790    5.5320 h1        1 WBT      0.071700
     55 H321        4.3060    1.7930    5.2340 h1        1 WBT      0.071700
     56 H322        5.5030    0.4510    4.8450 h1        1 WBT      0.071700
     57 H331        3.1580    1.5790    3.1660 h1        1 WBT      0.055700
     58 H332        4.9250    1.3770    2.7240 h1        1 WBT      0.055700
     59 H102        2.1260    1.7670   -2.8800 hn        1 WBT      0.461300
@<TRIPOS>BOND
     1    1    2 1   
     2    2    3 ar  
     3    2    7 ar  
     4    3    4 ar  
     5    3   34 1   
     6    4    5 ar  
     7    4   28 1   
     8    5    6 ar  
     9    5   35 1   
    10    6    7 ar  
    11    6    8 1   
    12    7   36 1   
    13    8    9 2   
    14    8   10 1   
    15   10   11 1   
    16   10   37 1   
    17   10   59 1   
    18   11   12 ar  
    19   11   27 ar  
    20   12   13 ar  
    21   12   38 1   
    22   13   14 ar  
    23   13   39 1   
    24   14   15 1   
    25   14   26 ar  
    26   15   16 2   
    27   15   40 1   
    28   16   17 1   
    29   16   41 1   
    30   17   18 1   
    31   17   26 1   
    32   18   19 1   
    33   18   42 1   
    34   18   43 1   
    35   19   20 1   
    36   19   44 1   
    37   19   45 1   
    38   20   21 ar  
    39   20   25 ar  
    40   21   22 ar  
    41   21   46 1   
    42   22   23 ar  
    43   22   47 1   
    44   23   24 ar  
    45   24   25 ar  
    46   24   48 1   
    47   25   49 1   
    48   26   27 ar  
    49   27   50 1   
    50   28   29 1   
    51   28   33 1   
    52   29   30 1   
    53   29   51 1   
    54   29   52 1   
    55   30   31 1   
    56   30   53 1   
    57   30   54 1   
    58   31   32 1   
    59   32   33 1   
    60   32   55 1   
    61   32   56 1   
    62   33   57 1   
    63   33   58 1   
@<TRIPOS>SUBSTRUCTURE
     1 WBT         1 TEMP              0 ****  ****    0 ROOT
