@<TRIPOS>MOLECULE
WBT
   58    62     1     0     0
SMALL
bcc


@<TRIPOS>ATOM
      1 F1          2.8080   -2.5440    4.4770 f         1 WBT     -0.136900
      2 C2          1.9000   -1.7120    3.9120 ca        1 WBT      0.150900
      3 C3          0.9220   -1.1120    4.7220 ca        1 WBT     -0.208000
      4 C4         -0.0330   -0.2430    4.1540 ca        1 WBT      0.166600
      5 C5          0.0210   -0.0070    2.7580 ca        1 WBT     -0.129000
      6 C6          0.9990   -0.6120    1.9740 ca        1 WBT     -0.095600
      7 C7          1.9490   -1.4700    2.5290 ca        1 WBT     -0.181000
      8 C8          0.9840   -0.3320    0.5010 c         1 WBT      0.682700
      9 O9         -0.0860   -0.3450   -0.1370 o         1 WBT     -0.599100
     10 N10         2.2140   -0.0440   -0.0660 n         1 WBT     -0.461100
     11 C11         2.4870    0.2230   -1.4210 ca        1 WBT      0.076600
     12 C12         3.8590    0.2970   -1.8190 ca        1 WBT     -0.200000
     13 C13         4.2210    0.5460   -3.1290 ca        1 WBT     -0.057000
     14 C14         3.2320    0.7280   -4.0960 ca        1 WBT     -0.115800
     15 C15         3.2330    0.9830   -5.5190 cc        1 WBT     -0.179200
     16 C16         1.9050    1.0620   -5.9240 cd        1 WBT     -0.107100
     17 N17         1.0510    0.9070   -4.8200 na        1 WBT     -0.077400
     18 C18        -0.3740    0.7730   -4.8540 c3        1 WBT      0.047300
     19 C19        -0.8880   -0.6680   -4.7050 c3        1 WBT     -0.070100
     20 C20        -2.2910   -0.6670   -4.2120 ca        1 WBT     -0.051300
     21 C21        -3.3690   -0.7890   -5.0960 ca        1 WBT     -0.242300
     22 C22        -4.6740   -0.7920   -4.5720 ca        1 WBT      0.392700
     23 N23        -4.9490   -0.6830   -3.2580 nb        1 WBT     -0.666000
     24 C24        -3.9010   -0.5700   -2.4180 ca        1 WBT      0.392700
     25 C25        -2.5610   -0.5570   -2.8410 ca        1 WBT     -0.242300
     26 C26         1.8480    0.6660   -3.6910 ca        1 WBT     -0.026200
     27 C27         1.4710    0.4180   -2.3640 ca        1 WBT     -0.172000
     28 N28        -0.9750    0.4580    4.9420 nh        1 WBT     -0.633000
     29 C29        -0.8540    0.3130    6.3850 c3        1 WBT      0.149300
     30 C30        -1.8130    1.2440    7.1400 c3        1 WBT      0.123400
     31 O31        -3.1540    1.0950    6.6900 os        1 WBT     -0.410600
     32 C32        -3.2740    1.3260    5.2920 c3        1 WBT      0.123400
     33 C33        -2.3570    0.3990    4.4830 c3        1 WBT      0.149300
     34 H3          0.9250   -1.3470    5.7960 ha        1 WBT      0.154000
     35 H5         -0.7060    0.6610    2.2670 ha        1 WBT      0.160000
     36 H7          2.7090   -1.9720    1.9150 ha        1 WBT      0.154000
     37 H10         3.0080   -0.0610    0.5370 hn        1 WBT      0.323500
     38 H12         4.6510    0.1510   -1.0680 ha        1 WBT      0.127000
     39 H13         5.2830    0.6000   -3.4110 ha        1 WBT      0.136000
     40 H15         4.1130    1.0930   -6.1440 ha        1 WBT      0.156000
     41 H16         1.4920    1.2420   -6.9180 h4        1 WBT      0.165000
     42 H181       -0.7950    1.3930   -4.0080 h1        1 WBT      0.064200
     43 H182       -0.7470    1.2010   -5.8270 h1        1 WBT      0.064200
     44 H191       -0.8200   -1.1950   -5.6930 hc        1 WBT      0.067700
     45 H192       -0.2440   -1.2330   -3.9760 hc        1 WBT      0.067700
     46 H21        -3.2060   -0.8860   -6.1780 ha        1 WBT      0.154000
     47 H22        -5.5490   -0.8870   -5.2390 h4        1 WBT      0.022100
     48 H24        -4.1520   -0.4870   -1.3450 h4        1 WBT      0.022100
     49 H25        -1.7460   -0.4690   -2.1050 ha        1 WBT      0.154000
     50 H27         0.4050    0.3780   -2.0940 ha        1 WBT      0.170000
     51 H291       -1.0610   -0.7480    6.7090 h1        1 WBT      0.051950
     52 H292        0.2000    0.5780    6.6800 h1        1 WBT      0.051950
     53 H301       -1.8460    0.9590    8.2240 h1        1 WBT      0.059450
     54 H302       -1.4950    2.3140    7.0300 h1        1 WBT      0.059450
     55 H321       -4.3480    1.0960    5.0600 h1        1 WBT      0.059450
     56 H322       -3.0510    2.4020    5.0660 h1        1 WBT      0.059450
     57 H331       -2.4000    0.7160    3.4050 h1        1 WBT      0.051950
     58 H332       -2.7570   -0.6540    4.5560 h1        1 WBT      0.051950
@<TRIPOS>BOND
     1    1    2 1   
     2    2    3 ar  
     3    2    7 ar  
     4    3    4 ar  
     5    3   34 1   
     6    4    5 ar  
     7    4   28 1   
     8    5    6 ar  
     9    5   35 1   
    10    6    7 ar  
    11    6    8 1   
    12    7   36 1   
    13    8    9 2   
    14    8   10 1   
    15   10   11 1   
    16   10   37 1   
    17   11   12 ar  
    18   11   27 ar  
    19   12   13 ar  
    20   12   38 1   
    21   13   14 ar  
    22   13   39 1   
    23   14   15 1   
    24   14   26 ar  
    25   15   16 2   
    26   15   40 1   
    27   16   17 1   
    28   16   41 1   
    29   17   18 1   
    30   17   26 1   
    31   18   19 1   
    32   18   42 1   
    33   18   43 1   
    34   19   20 1   
    35   19   44 1   
    36   19   45 1   
    37   20   21 ar  
    38   20   25 ar  
    39   21   22 ar  
    40   21   46 1   
    41   22   23 ar  
    42   22   47 1   
    43   23   24 ar  
    44   24   25 ar  
    45   24   48 1   
    46   25   49 1   
    47   26   27 ar  
    48   27   50 1   
    49   28   29 1   
    50   28   33 1   
    51   29   30 1   
    52   29   51 1   
    53   29   52 1   
    54   30   31 1   
    55   30   53 1   
    56   30   54 1   
    57   31   32 1   
    58   32   33 1   
    59   32   55 1   
    60   32   56 1   
    61   33   57 1   
    62   33   58 1   
@<TRIPOS>SUBSTRUCTURE
     1 WBT         1 TEMP              0 ****  ****    0 ROOT
