@<TRIPOS>MOLECULE
WBU
   14    14     1     0     0
SMALL
bcc


@<TRIPOS>ATOM
      1 N1         -0.0460    0.0460   -0.0340 ns        1 WBU     -0.466100
      2 C2          1.3620   -0.0160   -0.0480 c         1 WBU      0.801500
      3 O2          1.9830   -0.0460   -1.1310 o         1 WBU     -0.636500
      4 N3          2.0320   -0.0520    1.1850 ns        1 WBU     -0.576500
      5 C4          1.3620   -0.0270    2.4140 c         1 WBU      0.693700
      6 O4          2.0210   -0.0680    3.4680 o         1 WBU     -0.619500
      7 C5         -0.1270    0.0510    2.3720 cc        1 WBU     -0.094200
      8 C6         -0.7520    0.1050    1.1510 cd        1 WBU      0.019600
      9 N01        -0.8490    0.1530    3.5790 nv        1 WBU     -0.767600
     10 H1         -0.5110    0.0940   -0.9110 hn        1 WBU      0.356500
     11 H3          3.0280   -0.1000    1.1640 hn        1 WBU      0.356500
     12 H6         -1.8520    0.1790    1.0490 h4        1 WBU      0.173000
     13 H011       -1.3160   -0.7090    3.7900 hn        1 WBU      0.378800
     14 H012       -0.2380    0.4040    4.3350 hn        1 WBU      0.378800
@<TRIPOS>BOND
     1    1    2 1   
     2    1    8 1   
     3    1   10 1   
     4    2    3 2   
     5    2    4 1   
     6    4    5 1   
     7    4   11 1   
     8    5    6 2   
     9    5    7 1   
    10    7    8 2   
    11    7    9 1   
    12    8   12 1   
    13    9   13 1   
    14    9   14 1   
@<TRIPOS>SUBSTRUCTURE
     1 WBU         1 TEMP              0 ****  ****    0 ROOT
