@<TRIPOS>MOLECULE
WBU
   14    14     1     0     0
SMALL
bcc


@<TRIPOS>ATOM
      1 N1         -1.2870   -0.0350   -1.1300 n         1 WBU     -0.466100
      2 C2          0.0450    0.0280   -1.5830 c         1 WBU      0.801500
      3 O2          0.2970    0.0650   -2.8060 o         1 WBU     -0.636500
      4 N3          1.0680    0.0570   -0.6220 n         1 WBU     -0.576500
      5 C4          0.8160    0.0240    0.7550 c         1 WBU      0.693700
      6 O4          1.7720    0.0590    1.5500 o         1 WBU     -0.619500
      7 C5         -0.6120   -0.0540    1.1810 cc        1 WBU     -0.094200
      8 C6         -1.5880   -0.1010    0.2160 cd        1 WBU      0.020600
      9 N01        -0.9200   -0.1640    2.5520 nh        1 WBU     -0.767600
     10 H1         -2.0040   -0.0780   -1.8180 hn        1 WBU      0.356500
     11 H3          2.0080    0.1050   -0.9530 hn        1 WBU      0.356500
     12 H6         -2.6640   -0.1760    0.4620 h4        1 WBU      0.174000
     13 H011       -0.1040   -0.4220    3.0770 hn        1 WBU      0.378800
     14 H012       -1.2940    0.6970    2.9040 hn        1 WBU      0.378800
@<TRIPOS>BOND
     1    1    2 1   
     2    1    8 1   
     3    1   10 1   
     4    2    3 2   
     5    2    4 1   
     6    4    5 1   
     7    4   11 1   
     8    5    6 2   
     9    5    7 1   
    10    7    8 2   
    11    7    9 1   
    12    8   12 1   
    13    9   13 1   
    14    9   14 1   
@<TRIPOS>SUBSTRUCTURE
     1 WBU         1 TEMP              0 ****  ****    0 ROOT
