@<TRIPOS>MOLECULE
WBU
   15    15     1     0     0
SMALL
bcc


@<TRIPOS>ATOM
      1 N1         -0.0380    0.1040   -0.0370 n         1 WBU     -0.425100
      2 C2          1.3960   -0.0080   -0.0580 c         1 WBU      0.802500
      3 O2          1.9830   -0.0080   -1.1460 o         1 WBU     -0.522500
      4 N3          2.0590   -0.1140    1.1740 n         1 WBU     -0.554500
      5 C4          1.3940   -0.1140    2.3970 c         1 WBU      0.740700
      6 O4          2.0010   -0.2080    3.4760 o         1 WBU     -0.590500
      7 C5         -0.0880    0.0060    2.3380 cc        1 WBU     -0.337200
      8 C6         -0.7380    0.1100    1.1190 cd        1 WBU      0.161600
      9 N01        -0.7760    0.0060    3.6100 n4        1 WBU     -0.663400
     10 H1         -0.4920    0.1790   -0.9290 hn        1 WBU      0.391500
     11 H3          3.0600   -0.1920    1.1560 hn        1 WBU      0.393500
     12 H6         -1.8430    0.2010    1.0310 h4        1 WBU      0.189000
     13 H011       -1.2910    0.8830    3.7400 hn        1 WBU      0.471467
     14 H012       -0.0630   -0.0830    4.3590 hn        1 WBU      0.471467
     15 H013       -1.4230   -0.7870    3.6690 hn        1 WBU      0.471467
@<TRIPOS>BOND
     1    1    2 1   
     2    1    8 1   
     3    1   10 1   
     4    2    3 2   
     5    2    4 1   
     6    4    5 1   
     7    4   11 1   
     8    5    6 2   
     9    5    7 1   
    10    7    8 2   
    11    7    9 1   
    12    8   12 1   
    13    9   13 1   
    14    9   14 1   
    15    9   15 1   
@<TRIPOS>SUBSTRUCTURE
     1 WBU         1 TEMP              0 ****  ****    0 ROOT
