@<TRIPOS>MOLECULE
WC1
   53    55     1     0     0
SMALL
bcc


@<TRIPOS>ATOM
      1 OAE         2.3350   -0.7120    0.6270 oh        1 WC1     -0.818400
      2 PAD         2.2830   -0.3340   -1.0120 p5        1 WC1      1.430600
      3 OAF         3.5190   -1.0380   -1.4830 o         1 WC1     -0.936000
      4 OAG         0.9670   -0.9560   -1.3700 o         1 WC1     -0.936000
      5 CAC         2.3560    1.3240   -1.0230 c3        1 WC1     -0.542100
      6 PAH         2.5110    2.6800   -2.6210 p5        1 WC1      1.222700
      7 OAI         3.8860    3.2410   -2.3200 o         1 WC1     -0.927833
      8 OAK         2.4180    1.9310   -3.9160 o         1 WC1     -0.927833
      9 OAJ         1.4360    3.7190   -2.4540 o         1 WC1     -0.927833
     10 CAB         1.2540    1.9290   -0.2200 c3        1 WC1      0.010800
     11 CAA         1.5590    2.4780    1.1330 cc        1 WC1      0.023800
     12 CAO         2.5830    3.3560    1.4910 cd        1 WC1     -0.181300
     13 CAT         3.5880    4.0370    0.6370 c3        1 WC1     -0.036500
     14 CAU         3.3380    5.5350    0.6190 c3        1 WC1     -0.053100
     15 CAV         5.0390    3.7510    1.0430 c3        1 WC1     -0.028700
     16 CAX         5.2640    2.2800    1.3220 c3        1 WC1     -0.102600
     17 CAW         5.9670    4.1950   -0.0730 c3        1 WC1     -0.102600
     18 NAN         2.4830    3.7300    2.8800 na        1 WC1     -0.288300
     19 CAM         1.4280    2.9660    3.4110 cc        1 WC1      0.176900
     20 CAS         0.9530    2.9450    4.7410 ce        1 WC1     -0.337600
     21 CAR        -0.2120    2.2500    5.0000 cf        1 WC1     -0.119000
     22 CAL         0.7630    2.2460    2.3550 cc        1 WC1     -0.236700
     23 CAP        -0.4270    1.5630    2.6320 c1        1 WC1     -0.125800
     24 CAQ        -0.9090    1.5850    3.9630 cf        1 WC1     -0.258300
     25 CAY        -2.1480    0.8970    4.2290 ca        1 WC1      0.103200
     26 CAZ        -2.8250    0.9300    5.4650 ca        1 WC1     -0.178000
     27 CBA        -4.0260    0.2450    5.6520 ca        1 WC1     -0.147500
     28 CBB        -4.5920   -0.4910    4.6200 ca        1 WC1     -0.247000
     29 CBC        -3.9370   -0.5340    3.3780 ca        1 WC1     -0.147500
     30 CBD        -2.7470    0.1400    3.1820 ca        1 WC1     -0.178000
     31 H3          3.3600    1.6350   -0.6710 hc        1 WC1      0.070700
     32 H6          0.4410    1.1550   -0.0850 hc        1 WC1      0.065200
     33 H7          0.7770    2.7920   -0.7820 hc        1 WC1      0.065200
     34 H8          3.4430    3.6520   -0.4400 hc        1 WC1      0.199700
     35 H9          2.2610    5.7260    0.3950 hc        1 WC1      0.003367
     36 H10         3.9560    6.0150   -0.1770 hc        1 WC1      0.003367
     37 H11         3.5920    6.0120    1.5980 hc        1 WC1      0.003367
     38 H12         5.2820    4.3330    1.9800 hc        1 WC1     -0.041300
     39 H13         6.3100    2.1100    1.6840 hc        1 WC1      0.034367
     40 H14         5.1000    1.6860    0.3870 hc        1 WC1      0.034367
     41 H15         4.5520    1.9050    2.0950 hc        1 WC1      0.034367
     42 H16         5.5470    3.8180   -1.0550 hc        1 WC1      0.034367
     43 H17         6.9980    3.7920    0.0820 hc        1 WC1      0.034367
     44 H18         6.0370    5.3090   -0.1120 hc        1 WC1      0.034367
     45 H19         3.3360    3.7650    3.3860 hn        1 WC1      0.209700
     46 H20         1.4960    3.4650    5.5390 ha        1 WC1      0.057000
     47 H21        -0.5780    2.2190    6.0380 ha        1 WC1      0.045000
     48 H22         1.5240   -0.4720    1.0540 ho        1 WC1      0.393000
     49 H23        -2.4120    1.5080    6.3010 ha        1 WC1      0.157500
     50 H24        -4.5270    0.2900    6.6300 ha        1 WC1      0.076000
     51 H25        -5.5350   -1.0310    4.7670 ha        1 WC1      0.067000
     52 H26        -4.3780   -1.1150    2.5560 ha        1 WC1      0.076000
     53 H27        -2.1990    0.1340    2.2130 ha        1 WC1      0.157500
@<TRIPOS>BOND
     1    1    2 1   
     2    1   48 1   
     3    2    3 1   
     4    2    4 1   
     5    2    5 1   
     6    5    6 1   
     7    5   10 1   
     8    5   31 1   
     9    6    7 1   
    10    6    8 1   
    11    6    9 1   
    12   10   11 1   
    13   10   32 1   
    14   10   33 1   
    15   11   12 2   
    16   11   22 1   
    17   12   13 1   
    18   12   18 1   
    19   13   14 1   
    20   13   15 1   
    21   13   34 1   
    22   14   35 1   
    23   14   36 1   
    24   14   37 1   
    25   15   16 1   
    26   15   17 1   
    27   15   38 1   
    28   16   39 1   
    29   16   40 1   
    30   16   41 1   
    31   17   42 1   
    32   17   43 1   
    33   17   44 1   
    34   18   19 2   
    35   18   45 1   
    36   19   20 1   
    37   19   22 1   
    38   20   21 2   
    39   20   46 1   
    40   21   24 1   
    41   21   47 1   
    42   22   23 2   
    43   23   24 2   
    44   24   25 1   
    45   25   26 ar  
    46   25   30 ar  
    47   26   27 ar  
    48   26   49 1   
    49   27   28 ar  
    50   27   50 1   
    51   28   29 ar  
    52   28   51 1   
    53   29   30 ar  
    54   29   52 1   
    55   30   53 1   
@<TRIPOS>SUBSTRUCTURE
     1 WC1         1 TEMP              0 ****  ****    0 ROOT
