@<TRIPOS>MOLECULE
WCE
   17    17     1     0     0
SMALL
bcc


@<TRIPOS>ATOM
      1 C1         -0.0350   -0.0090   -0.0220 ca        1 WCE      0.007400
      2 CL         -0.8650   -0.0220   -1.4900 cl        1 WCE     -0.007400
      3 C2          1.3640   -0.0120   -0.0190 ca        1 WCE     -0.035000
      4 C3          2.0570   -0.0020    1.2050 ca        1 WCE     -0.198600
      5 C4          1.3460    0.0120    2.4170 ca        1 WCE     -0.096000
      6 C5         -0.0440    0.0150    2.3990 ca        1 WCE     -0.110000
      7 C6         -0.7420    0.0040    1.1870 ca        1 WCE     -0.042000
      8 C7          3.5120   -0.0050    1.1160 c         1 WCE      0.576700
      9 N           4.2880   -0.0000    2.4260 n4        1 WCE     -0.763400
     10 O           4.2330   -0.0120    0.1290 o         1 WCE     -0.410100
     11 H2          1.9250   -0.0220   -0.9720 ha        1 WCE      0.186000
     12 H6         -1.8470    0.0060    1.1870 ha        1 WCE      0.184000
     13 H4          1.8520    0.0210    3.3930 ha        1 WCE      0.127000
     14 H5         -0.6060    0.0250    3.3490 ha        1 WCE      0.174000
     15 HN1         4.0470   -0.8290    2.9770 hn        1 WCE      0.469133
     16 HN2         5.2970   -0.0060    2.2300 hn        1 WCE      0.469133
     17 HN3         4.0540    0.8380    2.9660 hn        1 WCE      0.469133
@<TRIPOS>BOND
     1    1    2 1   
     2    1    3 ar  
     3    1    7 ar  
     4    3    4 ar  
     5    3   11 1   
     6    4    5 ar  
     7    4    8 1   
     8    5    6 ar  
     9    5   13 1   
    10    6    7 ar  
    11    6   14 1   
    12    7   12 1   
    13    8    9 1   
    14    8   10 2   
    15    9   15 1   
    16    9   16 1   
    17    9   17 1   
@<TRIPOS>SUBSTRUCTURE
     1 WCE         1 TEMP              0 ****  ****    0 ROOT
