@<TRIPOS>MOLECULE
WCE
   17    17     1     0     0
SMALL
bcc


@<TRIPOS>ATOM
      1 C1         -0.0360   -0.0090   -0.0210 ca        1 WCE      0.007400
      2 Cl         -0.8660   -0.0210   -1.4900 cl        1 WCE     -0.007400
      3 C2          1.3630   -0.0110   -0.0190 ca        1 WCE     -0.035000
      4 C3          2.0570   -0.0010    1.2050 ca        1 WCE     -0.198600
      5 C4          1.3460    0.0110    2.4170 ca        1 WCE     -0.096000
      6 C5         -0.0440    0.0120    2.3990 ca        1 WCE     -0.110000
      7 C6         -0.7420    0.0020    1.1880 ca        1 WCE     -0.042000
      8 C7          3.5110   -0.0030    1.1150 c         1 WCE      0.576700
      9 N           4.2880    0.0010    2.4260 nz        1 WCE     -0.763400
     10 O           4.2320   -0.0080    0.1280 o         1 WCE     -0.410100
     11 H2          1.9240   -0.0200   -0.9720 ha        1 WCE      0.186000
     12 H6         -1.8470    0.0030    1.1880 ha        1 WCE      0.184000
     13 H4          1.8530    0.0190    3.3930 ha        1 WCE      0.127000
     14 H5         -0.6050    0.0210    3.3490 ha        1 WCE      0.174000
     15 HN1         4.0540    0.8380    2.9660 hn        1 WCE      0.469133
     16 HN2         5.2970   -0.0040    2.2290 hn        1 WCE      0.469133
     17 HN3         4.0480   -0.8290    2.9750 hn        1 WCE      0.469133
@<TRIPOS>BOND
     1    1    2 1   
     2    1    3 ar  
     3    1    7 ar  
     4    3    4 ar  
     5    3   11 1   
     6    4    5 ar  
     7    4    8 1   
     8    5    6 ar  
     9    5   13 1   
    10    6    7 ar  
    11    6   14 1   
    12    7   12 1   
    13    8    9 1   
    14    8   10 2   
    15    9   15 1   
    16    9   16 1   
    17    9   17 1   
@<TRIPOS>SUBSTRUCTURE
     1 WCE         1 TEMP              0 ****  ****    0 ROOT
