@<TRIPOS>MOLECULE
WCP
   64    70     1     0     0
SMALL
bcc


@<TRIPOS>ATOM
      1 O1          0.2270   -1.1810   -0.1780 o         1 WCP     -0.605500
      2 C2          4.7860   -0.3440   -0.0270 ca        1 WCP     -0.158300
      3 C3          6.0100   -0.4030    0.6200 ca        1 WCP      0.092600
      4 C4          6.0430   -0.9920    1.9410 ca        1 WCP      0.342200
      5 C5          3.7740   -1.4540    1.9570 ca        1 WCP      0.362100
      6 C6          2.5420   -1.9930    2.5110 cc        1 WCP     -0.132800
      7 C7          1.3910   -1.9110    1.8060 cd        1 WCP     -0.228200
      8 C8          1.2820   -1.2910    0.4670 c         1 WCP      0.705700
      9 C9          4.3170    0.0940   -1.4010 c3        1 WCP      0.213100
     10 C11         4.6940    1.5220   -1.7890 c3        1 WCP     -0.092400
     11 C14         2.8890    4.7480   -0.0680 c3        1 WCP      0.087200
     12 C15         4.0820    5.2180   -0.9250 c3        1 WCP     -0.088400
     13 C18         0.8000    7.9980    0.1380 ca        1 WCP      0.332600
     14 C19        -0.0040    9.1810    1.9700 ca        1 WCP      0.530200
     15 C20        -1.0100   10.3890    3.8190 c         1 WCP      0.678500
     16 C21        -1.4820   11.4320    2.8250 c3        1 WCP      0.055400
     17 C22        -0.2640   10.3190    1.1190 ca        1 WCP      0.000800
     18 O3         -1.2550   10.4620    5.0290 o         1 WCP     -0.550500
     19 N5         -0.3000    9.2840    3.3330 n         1 WCP     -0.555400
     20 O4         -0.7060   11.5180    1.6270 os        1 WCP     -0.287900
     21 N4          0.5190    8.0320    1.4670 nb        1 WCP     -0.740000
     22 C23         0.0260   10.2480   -0.2400 ca        1 WCP     -0.076000
     23 C24         0.5760    9.0630   -0.7440 ca        1 WCP     -0.209300
     24 N3          2.1370    5.9140    0.5320 n4        1 WCP     -0.744000
     25 C13         1.9730    3.8670   -0.9560 c3        1 WCP      0.129400
     26 O2          2.7190    2.8310   -1.5760 os        1 WCP     -0.392600
     27 C16         4.8260    3.9930   -1.4360 c3        1 WCP     -0.105400
     28 C25         3.4390    3.8540    1.0690 c3        1 WCP     -0.088400
     29 C26         4.0190    2.5890    0.4570 c3        1 WCP     -0.105400
     30 C12         4.0640    2.7060   -1.0660 c3        1 WCP      0.159800
     31 O5          4.9410   -0.7850   -2.3290 oh        1 WCP     -0.568800
     32 C10         2.7580   -0.1990   -1.3650 c3        1 WCP      0.061000
     33 N1          2.4800   -0.7760   -0.0550 n         1 WCP     -0.352000
     34 N2          4.9920   -1.4940    2.5780 nb        1 WCP     -0.577000
     35 C1          3.6590   -0.8830    0.6700 ca        1 WCP     -0.022700
     36 H1          7.0140   -1.0520    2.4690 h4        1 WCP      0.052100
     37 H2          2.5810   -2.4710    3.5040 ha        1 WCP      0.171000
     38 H3          0.4410   -2.3220    2.1860 ha        1 WCP      0.177000
     39 H4          5.8100    1.6040   -1.6600 hc        1 WCP      0.082200
     40 H5          4.4640    1.6450   -2.8840 hc        1 WCP      0.082200
     41 H6          3.7160    5.8250   -1.7930 hc        1 WCP      0.067950
     42 H7          4.7700    5.8600   -0.3170 hc        1 WCP      0.067950
     43 H8         -1.3910   12.4610    3.2750 h1        1 WCP      0.113700
     44 H9         -2.5510   11.2130    2.5550 h1        1 WCP      0.113700
     45 H10        -0.0680    8.5420    3.9570 hn        1 WCP      0.352500
     46 H11        -0.1660   11.1140   -0.8940 ha        1 WCP      0.185000
     47 H12         0.8180    8.9790   -1.8130 ha        1 WCP      0.162000
     48 H13         1.9910    6.9460   -1.3320 hx        1 WCP      0.112700
     49 H14         0.4680    6.0740   -0.7840 hx        1 WCP      0.112700
     50 H15         1.5060    5.5520    1.2600 hn        1 WCP      0.460300
     51 H17         1.5200    4.4570   -1.7980 h1        1 WCP      0.067700
     52 H18         1.1700    3.3850   -0.3370 h1        1 WCP      0.067700
     53 H19         4.9330    4.0530   -2.5500 hc        1 WCP      0.084950
     54 H20         5.8540    3.9490   -0.9940 hc        1 WCP      0.084950
     55 H21         4.2300    4.4100    1.6370 hc        1 WCP      0.067950
     56 H22         2.6220    3.5810    1.7880 hc        1 WCP      0.067950
     57 H23         5.0540    2.4060    0.8460 hc        1 WCP      0.084950
     58 H24         3.3870    1.7060    0.7400 hc        1 WCP      0.084950
     59 H25         4.5360   -0.6300   -3.1930 ho        1 WCP      0.414000
     60 H26         2.4890   -0.9350   -2.1700 h1        1 WCP      0.086200
     61 H27         2.1590    0.7380   -1.5020 h1        1 WCP      0.086200
     62 C17         1.3370    6.7100   -0.4440 c3        1 WCP      0.073500
     63 H32         2.8210    6.5310    0.9880 hn        1 WCP      0.460300
     64 F           7.1480    0.0730    0.0820 f         1 WCP     -0.113900
@<TRIPOS>BOND
     1    1    8 2   
     2    2    3 ar  
     3    2    9 1   
     4    2   35 ar  
     5    3    4 ar  
     6    3   64 1   
     7    4   34 ar  
     8    4   36 1   
     9    5    6 1   
    10    5   34 ar  
    11    5   35 ar  
    12    6    7 2   
    13    6   37 1   
    14    7    8 1   
    15    7   38 1   
    16    8   33 1   
    17    9   10 1   
    18    9   31 1   
    19    9   32 1   
    20   10   30 1   
    21   10   39 1   
    22   10   40 1   
    23   11   12 1   
    24   11   24 1   
    25   11   25 1   
    26   11   28 1   
    27   12   27 1   
    28   12   41 1   
    29   12   42 1   
    30   13   21 ar  
    31   13   23 ar  
    32   13   62 1   
    33   14   17 ar  
    34   14   19 1   
    35   14   21 ar  
    36   15   16 1   
    37   15   18 2   
    38   15   19 1   
    39   16   20 1   
    40   16   43 1   
    41   16   44 1   
    42   17   20 1   
    43   17   22 ar  
    44   19   45 1   
    45   22   23 ar  
    46   22   46 1   
    47   23   47 1   
    48   24   50 1   
    49   24   62 1   
    50   24   63 1   
    51   25   26 1   
    52   25   51 1   
    53   25   52 1   
    54   26   30 1   
    55   27   30 1   
    56   27   53 1   
    57   27   54 1   
    58   28   29 1   
    59   28   55 1   
    60   28   56 1   
    61   29   30 1   
    62   29   57 1   
    63   29   58 1   
    64   31   59 1   
    65   32   33 1   
    66   32   60 1   
    67   32   61 1   
    68   33   35 1   
    69   48   62 1   
    70   49   62 1   
@<TRIPOS>SUBSTRUCTURE
     1 WCP         1 TEMP              0 ****  ****    0 ROOT
