@<TRIPOS>MOLECULE
WCR
   35    36     1     0     0
SMALL
bcc


@<TRIPOS>ATOM
      1 C1         -1.5300    1.1630    0.4290 c3        1 WCR      0.530400
      2 N1         -0.9080    3.4000    1.4200 n3        1 WCR     -0.918800
      3 O1         -2.1090    1.8730   -0.6470 oh        1 WCR     -0.635800
      4 C2         -1.2950   -1.1720    0.6820 c         1 WCR      0.693700
      5 N2         -0.1050    0.8030    0.0960 nh        1 WCR     -0.739000
      6 O2         -1.5000   -2.3690    0.9200 o         1 WCR     -0.607500
      7 C3         -4.0470   -0.5140   -0.9910 c         1 WCR      0.905600
      8 N3         -2.2190   -0.1180    0.7910 n         1 WCR     -0.443800
      9 O3         -3.2210   -0.2940   -1.9250 o         1 WCR     -0.829800
     10 CZ          5.1560    0.0390   -0.3940 ca        1 WCR      0.102100
     11 CA1        -1.6260    2.1670    1.6450 c3        1 WCR      0.150800
     12 CA2         0.0700   -0.5660    0.3730 ce        1 WCR      0.037800
     13 CA3        -3.6160   -0.2950    0.4860 c3        1 WCR     -0.051000
     14 CB2         1.1980   -1.3040    0.3500 cf        1 WCR     -0.167200
     15 CD1         2.7970    0.1630   -0.8830 ca        1 WCR     -0.094000
     16 CD2         3.6160   -1.3820    0.7880 ca        1 WCR     -0.094000
     17 CE1         4.0980    0.5980   -1.1220 ca        1 WCR     -0.187000
     18 CE2         4.9200   -0.9590    0.5640 ca        1 WCR     -0.187000
     19 CG2         2.5370   -0.8220    0.0800 ca        1 WCR     -0.053800
     20 OXT        -5.2370   -0.8860   -1.1600 o         1 WCR     -0.829800
     21 HN1        -0.8950    3.6270    0.4430 hn        1 WCR      0.351800
     22 HO1        -2.2480    1.2740   -1.4110 ho        1 WCR      0.488000
     23 HN2         0.5800    1.4150    0.4800 hn        1 WCR      0.410800
     24 HOH         6.4790    1.1070   -1.2620 ho        1 WCR      0.411000
     25 HA1        -2.7260    2.3310    1.8310 h1        1 WCR      0.045200
     26 HA3        -4.1530    0.6220    0.8570 h1        1 WCR      0.055200
     27 HA3A       -3.9620   -1.1910    1.0730 h1        1 WCR      0.055200
     28 HB2         1.1030   -2.3830    0.5680 ha        1 WCR      0.152000
     29 HD1         1.9700    0.5850   -1.4760 ha        1 WCR      0.146500
     30 HD2         3.4200   -2.1670    1.5340 ha        1 WCR      0.146500
     31 HE1         4.2930    1.3710   -1.8780 ha        1 WCR      0.132500
     32 HE2         5.7630   -1.3900    1.1190 ha        1 WCR      0.132500
     33 HN         -1.3600    4.1470    1.9110 hn        1 WCR      0.351800
     34 HA1A       -1.1850    1.6760    2.5560 h1        1 WCR      0.045200
     35 OH          6.4690    0.4250   -0.5750 oh        1 WCR     -0.510100
@<TRIPOS>BOND
     1    1    3 1   
     2    1    5 1   
     3    1    8 1   
     4    1   11 1   
     5    2   11 1   
     6    2   21 1   
     7    2   33 1   
     8    3   22 1   
     9    4    6 2   
    10    4    8 1   
    11    4   12 1   
    12    5   12 1   
    13    5   23 1   
    14    7    9 1   
    15    7   13 1   
    16    7   20 1   
    17    8   13 1   
    18   10   17 ar  
    19   10   18 ar  
    20   10   35 1   
    21   11   25 1   
    22   11   34 1   
    23   12   14 2   
    24   13   26 1   
    25   13   27 1   
    26   14   19 1   
    27   14   28 1   
    28   15   17 ar  
    29   15   19 ar  
    30   15   29 1   
    31   16   18 ar  
    32   16   19 ar  
    33   16   30 1   
    34   17   31 1   
    35   18   32 1   
    36   24   35 1   
@<TRIPOS>SUBSTRUCTURE
     1 WCR         1 TEMP              0 ****  ****    0 ROOT
