@<TRIPOS>MOLECULE
WCX
   69    73     1     0     0
SMALL
bcc


@<TRIPOS>ATOM
      1 C01         0.1050   -0.6060   -0.3190 c3        1 WCX     -0.127100
      2 C02         1.5980   -0.3480   -0.2450 c3        1 WCX      0.188400
      3 O03         1.9910   -0.1570    1.1450 os        1 WCX     -0.320900
      4 C04         1.8270    1.0690    1.7100 ca        1 WCX      0.289100
      5 C05         1.2480    2.1750    1.0780 ca        1 WCX     -0.288000
      6 C06         1.1350    3.4110    1.7520 ca        1 WCX      0.184800
      7 N09         0.0950    5.9260   -0.6310 nc        1 WCX     -0.512100
      8 C08         0.5740    4.7390   -0.2940 cd        1 WCX      0.439700
      9 N07         0.5600    4.4970    1.1260 na        1 WCX     -0.120400
     10 C23         0.0020    5.6730    1.7000 ca        1 WCX     -0.114200
     11 C22        -0.3500    6.0330    3.0010 ca        1 WCX     -0.096000
     12 C21        -0.9260    7.2800    3.2000 ca        1 WCX     -0.136000
     13 C12        -1.1710    8.1610    2.1180 ca        1 WCX      0.147100
     14 O13        -1.7270    9.3570    2.5030 os        1 WCX     -0.324900
     15 C14        -1.9880   10.3410    1.4790 c3        1 WCX      0.140100
     16 C15        -2.1030   11.6700    2.2190 c3        1 WCX     -0.090900
     17 C16        -3.3890   11.7700    3.0320 c3        1 WCX      0.170800
     18 N17        -4.5820   11.4790    2.2480 n3        1 WCX     -0.731600
     19 C18        -5.7980   11.6460    3.0100 c3        1 WCX      0.157100
     20 C19        -4.5100   10.1790    1.5950 c3        1 WCX      0.170800
     21 C20        -3.2680   10.0190    0.7220 c3        1 WCX     -0.090900
     22 C11        -0.8670    7.8050    0.7980 ca        1 WCX     -0.145000
     23 C10        -0.2850    6.5560    0.5870 ca        1 WCX      0.112400
     24 C24         1.6370    3.5030    3.0910 ca        1 WCX     -0.200000
     25 C25         2.2010    2.4120    3.7040 ca        1 WCX     -0.032000
     26 C26         2.3140    1.1680    3.0470 ca        1 WCX     -0.307600
     27 C27         2.8610   -0.0150    3.6610 c         1 WCX      0.600700
     28 N28         3.8510    0.2320    4.8100 nz        1 WCX     -0.770400
     29 O29         2.7070   -1.2040    3.4270 o         1 WCX     -0.425100
     30 C30         2.3840   -1.5400   -0.7140 ca        1 WCX     -0.064300
     31 C31         2.5040   -2.6500    0.1300 ca        1 WCX     -0.110000
     32 C32         3.1930   -3.7880   -0.2880 ca        1 WCX     -0.101000
     33 C33         3.7680   -3.8270   -1.5560 ca        1 WCX     -0.113000
     34 C34         3.6600   -2.7240   -2.4040 ca        1 WCX     -0.081000
     35 C35         2.9760   -1.5790   -1.9860 ca        1 WCX     -0.151300
     36 C36         2.8960   -0.3940   -2.9470 c3        1 WCX      0.684200
     37 F39         1.6170    0.0300   -3.2240 f         1 WCX     -0.234300
     38 F38         3.5260    0.7430   -2.4910 f         1 WCX     -0.234300
     39 F37         3.4510   -0.6090   -4.1810 f         1 WCX     -0.234300
     40 H011       -0.1910   -0.7130   -1.3930 hc        1 WCX      0.066700
     41 H012       -0.1580   -1.5430    0.2270 hc        1 WCX      0.066700
     42 H013       -0.4620    0.2430    0.1330 hc        1 WCX      0.066700
     43 H02         1.8850    0.5680   -0.8330 h1        1 WCX      0.075700
     44 H05         0.8500    2.0690    0.0560 ha        1 WCX      0.175000
     45 H24         1.5920    4.4660    3.6250 ha        1 WCX      0.175000
     46 H11        -1.0820    8.4650   -0.0550 ha        1 WCX      0.172000
     47 H21        -1.2100    7.6040    4.2140 ha        1 WCX      0.163000
     48 H14        -1.1110   10.3800    0.7740 h1        1 WCX      0.052700
     49 H151       -2.0640   12.4880    1.4530 hc        1 WCX      0.062700
     50 H152       -1.2330   11.7910    2.9140 hc        1 WCX      0.062700
     51 H201       -3.2370    8.9640    0.3460 hc        1 WCX      0.062700
     52 H202       -3.3310   10.7060   -0.1620 hc        1 WCX      0.062700
     53 H161       -3.2990   11.0770    3.9210 h1        1 WCX      0.038700
     54 H162       -3.4860   12.8220    3.4220 h1        1 WCX      0.038700
     55 H181       -5.8310   12.6920    3.4130 h1        1 WCX      0.035033
     56 H182       -6.6760   11.4950    2.3290 h1        1 WCX      0.035033
     57 H183       -5.8860   10.9280    3.8720 h1        1 WCX      0.035033
     58 H191       -5.4220   10.0730    0.9430 h1        1 WCX      0.038700
     59 H192       -4.5230    9.3360    2.3480 h1        1 WCX      0.038700
     60 H22        -0.2060    5.3570    3.8540 ha        1 WCX      0.137000
     61 H25         2.5540    2.5300    4.7410 ha        1 WCX      0.123000
     62 H281        4.3180   -0.6480    5.0540 hn        1 WCX      0.459800
     63 H282        4.5470    0.9220    4.5210 hn        1 WCX      0.459800
     64 H31         2.0520   -2.6110    1.1350 ha        1 WCX      0.154000
     65 H32         3.2760   -4.6560    0.3840 ha        1 WCX      0.150000
     66 H33         4.3060   -4.7260   -1.8960 ha        1 WCX      0.156000
     67 H34         4.1160   -2.7560   -3.4080 ha        1 WCX      0.166000
     68 H283        3.3540    0.5830    5.6310 hn        1 WCX      0.459800
     69 H08         0.9700    3.9890   -0.9920 h5        1 WCX      0.082800
@<TRIPOS>BOND
     1    1    2 1   
     2    1   40 1   
     3    1   41 1   
     4    1   42 1   
     5    2    3 1   
     6    2   30 1   
     7    2   43 1   
     8    3    4 1   
     9    4    5 ar  
    10    4   26 ar  
    11    5    6 ar  
    12    5   44 1   
    13    6    9 1   
    14    6   24 ar  
    15    7    8 2   
    16    7   23 1   
    17    8    9 1   
    18    8   69 1   
    19    9   10 1   
    20   10   11 ar  
    21   10   23 ar  
    22   11   12 ar  
    23   11   60 1   
    24   12   13 ar  
    25   12   47 1   
    26   13   14 1   
    27   13   22 ar  
    28   14   15 1   
    29   15   16 1   
    30   15   21 1   
    31   15   48 1   
    32   16   17 1   
    33   16   49 1   
    34   16   50 1   
    35   17   18 1   
    36   17   53 1   
    37   17   54 1   
    38   18   19 1   
    39   18   20 1   
    40   19   55 1   
    41   19   56 1   
    42   19   57 1   
    43   20   21 1   
    44   20   58 1   
    45   20   59 1   
    46   21   51 1   
    47   21   52 1   
    48   22   23 ar  
    49   22   46 1   
    50   24   25 ar  
    51   24   45 1   
    52   25   26 ar  
    53   25   61 1   
    54   26   27 1   
    55   27   28 1   
    56   27   29 2   
    57   28   62 1   
    58   28   63 1   
    59   28   68 1   
    60   30   31 ar  
    61   30   35 ar  
    62   31   32 ar  
    63   31   64 1   
    64   32   33 ar  
    65   32   65 1   
    66   33   34 ar  
    67   33   66 1   
    68   34   35 ar  
    69   34   67 1   
    70   35   36 1   
    71   36   37 1   
    72   36   38 1   
    73   36   39 1   
@<TRIPOS>SUBSTRUCTURE
     1 WCX         1 TEMP              0 ****  ****    0 ROOT
