@<TRIPOS>MOLECULE
WCX
   68    72     1     0     0
SMALL
bcc


@<TRIPOS>ATOM
      1 C01        -3.5310   -0.1770   -1.9900 c3        1 WCX     -0.132100
      2 C02        -4.0010   -0.4070   -0.5660 c3        1 WCX      0.189400
      3 O03        -3.8220    0.7820    0.2440 os        1 WCX     -0.335900
      4 C04        -2.5560    1.3310    0.2160 ca        1 WCX      0.183100
      5 C05        -1.4290    0.5860    0.5820 ca        1 WCX     -0.206000
      6 C06        -0.1710    1.2200    0.6700 ca        1 WCX      0.071800
      7 N09         2.2000   -1.0650    2.2210 nc        1 WCX     -0.560100
      8 C08         0.9770   -0.5810    1.9900 cd        1 WCX      0.438700
      9 N07         0.9570    0.4780    1.0430 na        1 WCX     -0.111400
     10 C23         2.3000    0.6700    0.6530 ca        1 WCX     -0.097200
     11 C22         2.9200    1.5230   -0.2660 ca        1 WCX     -0.098000
     12 C21         4.2930    1.4260   -0.4190 ca        1 WCX     -0.139000
     13 C12         5.0500    0.4840    0.3250 ca        1 WCX      0.119100
     14 O13         6.4010    0.5340    0.0430 os        1 WCX     -0.333900
     15 C14         7.2720   -0.3100    0.8180 c3        1 WCX      0.141100
     16 C15         8.6560    0.3240    0.7150 c3        1 WCX     -0.089900
     17 C16         9.2570    0.1690   -0.6780 c3        1 WCX      0.169800
     18 N17         9.2600   -1.2110   -1.1490 n3        1 WCX     -0.731600
     19 C18         9.8760   -1.3420   -2.4500 c3        1 WCX      0.157100
     20 C19         7.9330   -1.8130   -1.1040 c3        1 WCX      0.169800
     21 C20         7.2840   -1.7320    0.2740 c3        1 WCX     -0.089900
     22 C11         4.4550   -0.3950    1.2290 ca        1 WCX     -0.155000
     23 C10         3.0680   -0.3080    1.3990 ca        1 WCX      0.101400
     24 C24        -0.0760    2.6030    0.3940 ca        1 WCX     -0.177000
     25 C25        -1.2060    3.3230    0.0280 ca        1 WCX     -0.067000
     26 C26        -2.4530    2.7040   -0.0760 ca        1 WCX     -0.174600
     27 C27        -3.6550    3.4670   -0.5160 c         1 WCX      0.689700
     28 N28        -3.9370    4.6360    0.1490 n         1 WCX     -0.668000
     29 O29        -4.3740    3.0960   -1.4670 o         1 WCX     -0.612100
     30 C30        -5.4790   -0.6830   -0.5240 ca        1 WCX     -0.039300
     31 C31        -6.3560    0.3690   -0.8220 ca        1 WCX     -0.105000
     32 C32        -7.7340    0.1660   -0.8140 ca        1 WCX     -0.105000
     33 C33        -8.2510   -1.0940   -0.5130 ca        1 WCX     -0.129000
     34 C34        -7.3880   -2.1460   -0.2160 ca        1 WCX     -0.094000
     35 C35        -6.0040   -1.9460   -0.2170 ca        1 WCX     -0.154300
     36 C36        -5.1050   -3.1320    0.1220 c3        1 WCX      0.686200
     37 F39        -4.1870   -3.4530   -0.8490 f         1 WCX     -0.238967
     38 F38        -4.3450   -2.9710    1.2570 f         1 WCX     -0.238967
     39 F37        -5.7680   -4.3150    0.3440 f         1 WCX     -0.238967
     40 H011       -2.4190   -0.0730   -2.0110 hc        1 WCX      0.062367
     41 H012       -3.8260   -1.0420   -2.6290 hc        1 WCX      0.062367
     42 H013       -3.9860    0.7620   -2.3960 hc        1 WCX      0.062367
     43 H02        -3.4160   -1.2410   -0.0860 h1        1 WCX      0.058700
     44 H05        -1.5400   -0.4880    0.7940 ha        1 WCX      0.158000
     45 H24         0.8930    3.1200    0.4770 ha        1 WCX      0.154000
     46 H11         5.0290   -1.1410    1.7940 ha        1 WCX      0.158000
     47 H21         4.8220    2.0790   -1.1280 ha        1 WCX      0.152000
     48 H14         6.9400   -0.3050    1.8940 h1        1 WCX      0.051700
     49 H151        8.5880    1.4160    0.9520 hc        1 WCX      0.059450
     50 H152        9.3140   -0.1670    1.4780 hc        1 WCX      0.059450
     51 H201        7.8400   -2.3810    1.0000 hc        1 WCX      0.059450
     52 H202        6.2350   -2.1180    0.1890 hc        1 WCX      0.059450
     53 H161        8.6870    0.8450   -1.3830 h1        1 WCX      0.036950
     54 H162       10.3260    0.5210   -0.6500 h1        1 WCX      0.036950
     55 H181       10.9200   -0.9370   -2.3980 h1        1 WCX      0.031700
     56 H182        9.9230   -2.4290   -2.7190 h1        1 WCX      0.031700
     57 H183        9.3220   -0.7970   -3.2640 h1        1 WCX      0.031700
     58 H191        7.2360   -1.3300   -1.8510 h1        1 WCX      0.036950
     59 H192        8.0430   -2.8980   -1.3870 h1        1 WCX      0.036950
     60 H22         2.3410    2.2430   -0.8620 ha        1 WCX      0.143000
     61 H25        -1.1100    4.3980   -0.1940 ha        1 WCX      0.147000
     62 H281       -3.4520    4.8730    0.9760 hn        1 WCX      0.312500
     63 H282       -4.7620    5.1340   -0.0780 hn        1 WCX      0.312500
     64 H31        -5.9310    1.3630   -1.0580 ha        1 WCX      0.178000
     65 H32        -8.4120    1.0010   -1.0490 ha        1 WCX      0.142000
     66 H33        -9.3380   -1.2600   -0.5080 ha        1 WCX      0.141000
     67 H34        -7.7980   -3.1420    0.0220 ha        1 WCX      0.152000
     68 H08         0.0520   -0.9340    2.4660 h5        1 WCX      0.076800
@<TRIPOS>BOND
     1    1    2 1   
     2    1   40 1   
     3    1   41 1   
     4    1   42 1   
     5    2    3 1   
     6    2   30 1   
     7    2   43 1   
     8    3    4 1   
     9    4    5 ar  
    10    4   26 ar  
    11    5    6 ar  
    12    5   44 1   
    13    6    9 1   
    14    6   24 ar  
    15    7    8 2   
    16    7   23 1   
    17    8    9 1   
    18    8   68 1   
    19    9   10 1   
    20   10   11 ar  
    21   10   23 ar  
    22   11   12 ar  
    23   11   60 1   
    24   12   13 ar  
    25   12   47 1   
    26   13   14 1   
    27   13   22 ar  
    28   14   15 1   
    29   15   16 1   
    30   15   21 1   
    31   15   48 1   
    32   16   17 1   
    33   16   49 1   
    34   16   50 1   
    35   17   18 1   
    36   17   53 1   
    37   17   54 1   
    38   18   19 1   
    39   18   20 1   
    40   19   55 1   
    41   19   56 1   
    42   19   57 1   
    43   20   21 1   
    44   20   58 1   
    45   20   59 1   
    46   21   51 1   
    47   21   52 1   
    48   22   23 ar  
    49   22   46 1   
    50   24   25 ar  
    51   24   45 1   
    52   25   26 ar  
    53   25   61 1   
    54   26   27 1   
    55   27   28 1   
    56   27   29 2   
    57   28   62 1   
    58   28   63 1   
    59   30   31 ar  
    60   30   35 ar  
    61   31   32 ar  
    62   31   64 1   
    63   32   33 ar  
    64   32   65 1   
    65   33   34 ar  
    66   33   66 1   
    67   34   35 ar  
    68   34   67 1   
    69   35   36 1   
    70   36   37 1   
    71   36   38 1   
    72   36   39 1   
@<TRIPOS>SUBSTRUCTURE
     1 WCX         1 TEMP              0 ****  ****    0 ROOT
