@<TRIPOS>MOLECULE
WCX
   69    73     1     0     0
SMALL
bcc


@<TRIPOS>ATOM
      1 C01         0.0960   -0.6090   -0.3140 c3        1 WCX     -0.127100
      2 C02         1.5890   -0.3530   -0.2400 c3        1 WCX      0.188400
      3 O03         1.9840   -0.1610    1.1490 os        1 WCX     -0.320900
      4 C04         1.8210    1.0660    1.7130 ca        1 WCX      0.289100
      5 C05         1.2420    2.1720    1.0810 ca        1 WCX     -0.288000
      6 C06         1.1310    3.4090    1.7540 ca        1 WCX      0.184800
      7 N09         0.0910    5.9220   -0.6310 nc        1 WCX     -0.512100
      8 C08         0.5700    4.7350   -0.2940 cd        1 WCX      0.439700
      9 N07         0.5570    4.4940    1.1260 na        1 WCX     -0.120400
     10 C23         0.0010    5.6720    1.7000 ca        1 WCX     -0.114200
     11 C22        -0.3490    6.0340    3.0010 ca        1 WCX     -0.096000
     12 C21        -0.9230    7.2820    3.2000 ca        1 WCX     -0.136000
     13 C12        -1.1680    8.1620    2.1160 ca        1 WCX      0.147100
     14 O13        -1.7220    9.3590    2.5010 os        1 WCX     -0.324900
     15 C14        -1.9820   10.3430    1.4760 c3        1 WCX      0.140100
     16 C15        -2.0930   11.6730    2.2150 c3        1 WCX     -0.090900
     17 C16        -3.3790   11.7770    3.0290 c3        1 WCX      0.170800
     18 N17        -4.5720   11.4870    2.2450 n3        1 WCX     -0.731600
     19 C18        -5.7880   11.6580    3.0080 c3        1 WCX      0.157100
     20 C19        -4.5040   10.1870    1.5930 c3        1 WCX      0.170800
     21 C20        -3.2630   10.0230    0.7200 c3        1 WCX     -0.090900
     22 C11        -0.8660    7.8040    0.7970 ca        1 WCX     -0.145000
     23 C10        -0.2860    6.5540    0.5860 ca        1 WCX      0.112400
     24 C24         1.6350    3.5010    3.0910 ca        1 WCX     -0.200000
     25 C25         2.1980    2.4110    3.7050 ca        1 WCX     -0.032000
     26 C26         2.3100    1.1660    3.0500 ca        1 WCX     -0.307600
     27 C27         2.8560   -0.0170    3.6640 c         1 WCX      0.600700
     28 N28         3.8470    0.2310    4.8110 n4        1 WCX     -0.770400
     29 O29         2.7010   -1.2060    3.4300 o         1 WCX     -0.425100
     30 C30         2.3740   -1.5450   -0.7100 ca        1 WCX     -0.064300
     31 C31         2.4940   -2.6550    0.1350 ca        1 WCX     -0.110000
     32 C32         3.1830   -3.7930   -0.2820 ca        1 WCX     -0.101000
     33 C33         3.7570   -3.8330   -1.5510 ca        1 WCX     -0.113000
     34 C34         3.6490   -2.7310   -2.3990 ca        1 WCX     -0.081000
     35 C35         2.9650   -1.5860   -1.9820 ca        1 WCX     -0.151300
     36 C36         2.8850   -0.4010   -2.9440 c3        1 WCX      0.684200
     37 F39         1.6060    0.0230   -3.2200 f         1 WCX     -0.234300
     38 F38         3.5160    0.7350   -2.4900 f         1 WCX     -0.234300
     39 F37         3.4390   -0.6180   -4.1790 f         1 WCX     -0.234300
     40 H011       -0.2010   -0.7170   -1.3860 hc        1 WCX      0.066700
     41 H012       -0.1670   -1.5460    0.2340 hc        1 WCX      0.066700
     42 H013       -0.4700    0.2400    0.1390 hc        1 WCX      0.066700
     43 H02         1.8760    0.5630   -0.8290 h1        1 WCX      0.075700
     44 H05         0.8430    2.0650    0.0590 ha        1 WCX      0.175000
     45 H24         1.5910    4.4650    3.6250 ha        1 WCX      0.175000
     46 H11        -1.0810    8.4630   -0.0570 ha        1 WCX      0.172000
     47 H21        -1.2070    7.6080    4.2130 ha        1 WCX      0.163000
     48 H14        -1.1050   10.3800    0.7710 h1        1 WCX      0.052700
     49 H151       -1.2220   11.7930    2.9090 hc        1 WCX      0.062700
     50 H152       -2.0530   12.4900    1.4480 hc        1 WCX      0.062700
     51 H201       -3.2350    8.9670    0.3450 hc        1 WCX      0.062700
     52 H202       -3.3250   10.7090   -0.1650 hc        1 WCX      0.062700
     53 H161       -3.2890   11.0850    3.9180 h1        1 WCX      0.038700
     54 H162       -3.4730   12.8290    3.4180 h1        1 WCX      0.038700
     55 H181       -5.8180   12.7050    3.4090 h1        1 WCX      0.035033
     56 H182       -5.8770   10.9410    3.8710 h1        1 WCX      0.035033
     57 H183       -6.6660   11.5080    2.3270 h1        1 WCX      0.035033
     58 H191       -5.4170   10.0820    0.9420 h1        1 WCX      0.038700
     59 H192       -4.5180    9.3450    2.3470 h1        1 WCX      0.038700
     60 H22        -0.2060    5.3580    3.8540 ha        1 WCX      0.137000
     61 H25         2.5520    2.5300    4.7420 ha        1 WCX      0.123000
     62 H281        3.3510    0.5820    5.6320 hn        1 WCX      0.459800
     63 H282        4.5440    0.9200    4.5220 hn        1 WCX      0.459800
     64 H31         2.0440   -2.6150    1.1410 ha        1 WCX      0.154000
     65 H32         3.2660   -4.6610    0.3900 ha        1 WCX      0.150000
     66 H33         4.2940   -4.7330   -1.8910 ha        1 WCX      0.156000
     67 H34         4.1030   -2.7640   -3.4040 ha        1 WCX      0.166000
     68 H283        4.3140   -0.6490    5.0560 hn        1 WCX      0.459800
     69 H08         0.9640    3.9830   -0.9920 h5        1 WCX      0.082800
@<TRIPOS>BOND
     1    1    2 1   
     2    1   40 1   
     3    1   41 1   
     4    1   42 1   
     5    2    3 1   
     6    2   30 1   
     7    2   43 1   
     8    3    4 1   
     9    4    5 ar  
    10    4   26 ar  
    11    5    6 ar  
    12    5   44 1   
    13    6    9 1   
    14    6   24 ar  
    15    7    8 2   
    16    7   23 1   
    17    8    9 1   
    18    8   69 1   
    19    9   10 1   
    20   10   11 ar  
    21   10   23 ar  
    22   11   12 ar  
    23   11   60 1   
    24   12   13 ar  
    25   12   47 1   
    26   13   14 1   
    27   13   22 ar  
    28   14   15 1   
    29   15   16 1   
    30   15   21 1   
    31   15   48 1   
    32   16   17 1   
    33   16   49 1   
    34   16   50 1   
    35   17   18 1   
    36   17   53 1   
    37   17   54 1   
    38   18   19 1   
    39   18   20 1   
    40   19   55 1   
    41   19   56 1   
    42   19   57 1   
    43   20   21 1   
    44   20   58 1   
    45   20   59 1   
    46   21   51 1   
    47   21   52 1   
    48   22   23 ar  
    49   22   46 1   
    50   24   25 ar  
    51   24   45 1   
    52   25   26 ar  
    53   25   61 1   
    54   26   27 1   
    55   27   28 1   
    56   27   29 2   
    57   28   62 1   
    58   28   63 1   
    59   28   68 1   
    60   30   31 ar  
    61   30   35 ar  
    62   31   32 ar  
    63   31   64 1   
    64   32   33 ar  
    65   32   65 1   
    66   33   34 ar  
    67   33   66 1   
    68   34   35 ar  
    69   34   67 1   
    70   35   36 1   
    71   36   37 1   
    72   36   38 1   
    73   36   39 1   
@<TRIPOS>SUBSTRUCTURE
     1 WCX         1 TEMP              0 ****  ****    0 ROOT
