@<TRIPOS>MOLECULE
WCX
   69    73     1     0     0
SMALL
bcc


@<TRIPOS>ATOM
      1 C01         0.1040   -0.6010   -0.3360 c3        1 WCX     -0.127100
      2 C02         1.5960   -0.3480   -0.2490 c3        1 WCX      0.188400
      3 O03         1.9800   -0.1620    1.1440 os        1 WCX     -0.320900
      4 C04         1.8150    1.0620    1.7120 ca        1 WCX      0.289100
      5 C05         1.2430    2.1710    1.0800 ca        1 WCX     -0.288000
      6 C06         1.1290    3.4060    1.7580 ca        1 WCX      0.184800
      7 N09         0.1130    5.9320   -0.6240 nc        1 WCX     -0.512100
      8 C08         0.5870    4.7420   -0.2880 cd        1 WCX      0.439700
      9 N07         0.5610    4.4950    1.1310 na        1 WCX     -0.120400
     10 C23         0.0020    5.6710    1.7050 ca        1 WCX     -0.114200
     11 C22        -0.3590    6.0270    3.0040 ca        1 WCX     -0.096000
     12 C21        -0.9330    7.2750    3.2040 ca        1 WCX     -0.136000
     13 C12        -1.1680    8.1600    2.1230 ca        1 WCX      0.147100
     14 O13        -1.7240    9.3560    2.5080 os        1 WCX     -0.324900
     15 C14        -1.9720   10.3450    1.4860 c3        1 WCX      0.140100
     16 C15        -2.0880   11.6720    2.2300 c3        1 WCX     -0.090900
     17 C16        -3.3810   11.7740    3.0330 c3        1 WCX      0.170800
     18 N17        -4.5680   11.4900    2.2370 n3        1 WCX     -0.731600
     19 C18        -5.7900   11.6590    2.9900 c3        1 WCX      0.157100
     20 C19        -4.4960   10.1930    1.5790 c3        1 WCX      0.170800
     21 C20        -3.2470   10.0310    0.7170 c3        1 WCX     -0.090900
     22 C11        -0.8540    7.8080    0.8040 ca        1 WCX     -0.145000
     23 C10        -0.2740    6.5580    0.5930 ca        1 WCX      0.112400
     24 C24         1.6200    3.4910    3.1010 ca        1 WCX     -0.200000
     25 C25         2.1770    2.3970    3.7140 ca        1 WCX     -0.032000
     26 C26         2.2920    1.1550    3.0540 ca        1 WCX     -0.307600
     27 C27         2.8310   -0.0310    3.6670 c         1 WCX      0.600700
     28 N28         3.8140    0.2090    4.8240 n4        1 WCX     -0.770400
     29 O29         2.6770   -1.2190    3.4270 o         1 WCX     -0.425100
     30 C30         2.3830   -1.5400   -0.7180 ca        1 WCX     -0.064300
     31 C31         2.4940   -2.6530    0.1240 ca        1 WCX     -0.110000
     32 C32         3.1840   -3.7910   -0.2930 ca        1 WCX     -0.101000
     33 C33         3.7680   -3.8270   -1.5580 ca        1 WCX     -0.113000
     34 C34         3.6690   -2.7210   -2.4020 ca        1 WCX     -0.081000
     35 C35         2.9840   -1.5760   -1.9850 ca        1 WCX     -0.151300
     36 C36         2.9140   -0.3870   -2.9420 c3        1 WCX      0.684200
     37 F39         1.6380    0.0420   -3.2270 f         1 WCX     -0.234300
     38 F38         3.5440    0.7470   -2.4780 f         1 WCX     -0.234300
     39 F37         3.4780   -0.5990   -4.1740 f         1 WCX     -0.234300
     40 H011       -0.1660   -1.5400    0.2050 hc        1 WCX      0.066700
     41 H012       -0.4640    0.2480    0.1150 hc        1 WCX      0.066700
     42 H013       -0.1840   -0.7030   -1.4110 hc        1 WCX      0.066700
     43 H02         1.8910    0.5700   -0.8320 h1        1 WCX      0.075700
     44 H05         0.8520    2.0700    0.0550 ha        1 WCX      0.175000
     45 H24         1.5730    4.4530    3.6380 ha        1 WCX      0.175000
     46 H11        -1.0610    8.4720   -0.0480 ha        1 WCX      0.172000
     47 H21        -1.2250    7.5960    4.2160 ha        1 WCX      0.163000
     48 H14        -1.0890   10.3840    0.7890 h1        1 WCX      0.052700
     49 H151       -1.2240   11.7870    2.9330 hc        1 WCX      0.062700
     50 H152       -2.0400   12.4930    1.4680 hc        1 WCX      0.062700
     51 H201       -3.3000   10.7220   -0.1650 hc        1 WCX      0.062700
     52 H202       -3.2170    8.9770    0.3370 hc        1 WCX      0.062700
     53 H161       -3.4770   12.8250    3.4260 h1        1 WCX      0.038700
     54 H162       -3.3010   11.0770    3.9190 h1        1 WCX      0.038700
     55 H181       -6.6630   11.5140    2.3000 h1        1 WCX      0.035367
     56 H182       -5.8890   10.9380    3.8480 h1        1 WCX      0.035367
     57 H183       -5.8230   12.7040    3.3960 h1        1 WCX      0.035367
     58 H191       -5.4030   10.0930    0.9190 h1        1 WCX      0.038700
     59 H192       -4.5190    9.3470    2.3290 h1        1 WCX      0.038700
     60 H22        -0.2240    5.3470    3.8560 ha        1 WCX      0.137000
     61 H25         2.5230    2.5100    4.7540 ha        1 WCX      0.123000
     62 H281        4.5140    0.8980    4.5430 hn        1 WCX      0.459800
     63 H282        4.2780   -0.6730    5.0680 hn        1 WCX      0.459800
     64 H31         2.0360   -2.6160    1.1260 ha        1 WCX      0.154000
     65 H32         3.2600   -4.6620    0.3760 ha        1 WCX      0.150000
     66 H33         4.3060   -4.7260   -1.8970 ha        1 WCX      0.156000
     67 H34         4.1310   -2.7500   -3.4030 ha        1 WCX      0.166000
     68 H283        3.3120    0.5580    5.6420 hn        1 WCX      0.459800
     69 H08         0.9860    3.9930   -0.9860 h5        1 WCX      0.082800
@<TRIPOS>BOND
     1    1    2 1   
     2    1   40 1   
     3    1   41 1   
     4    1   42 1   
     5    2    3 1   
     6    2   30 1   
     7    2   43 1   
     8    3    4 1   
     9    4    5 ar  
    10    4   26 ar  
    11    5    6 ar  
    12    5   44 1   
    13    6    9 1   
    14    6   24 ar  
    15    7    8 2   
    16    7   23 1   
    17    8    9 1   
    18    8   69 1   
    19    9   10 1   
    20   10   11 ar  
    21   10   23 ar  
    22   11   12 ar  
    23   11   60 1   
    24   12   13 ar  
    25   12   47 1   
    26   13   14 1   
    27   13   22 ar  
    28   14   15 1   
    29   15   16 1   
    30   15   21 1   
    31   15   48 1   
    32   16   17 1   
    33   16   49 1   
    34   16   50 1   
    35   17   18 1   
    36   17   53 1   
    37   17   54 1   
    38   18   19 1   
    39   18   20 1   
    40   19   55 1   
    41   19   56 1   
    42   19   57 1   
    43   20   21 1   
    44   20   58 1   
    45   20   59 1   
    46   21   51 1   
    47   21   52 1   
    48   22   23 ar  
    49   22   46 1   
    50   24   25 ar  
    51   24   45 1   
    52   25   26 ar  
    53   25   61 1   
    54   26   27 1   
    55   27   28 1   
    56   27   29 2   
    57   28   62 1   
    58   28   63 1   
    59   28   68 1   
    60   30   31 ar  
    61   30   35 ar  
    62   31   32 ar  
    63   31   64 1   
    64   32   33 ar  
    65   32   65 1   
    66   33   34 ar  
    67   33   66 1   
    68   34   35 ar  
    69   34   67 1   
    70   35   36 1   
    71   36   37 1   
    72   36   38 1   
    73   36   39 1   
@<TRIPOS>SUBSTRUCTURE
     1 WCX         1 TEMP              0 ****  ****    0 ROOT
