@<TRIPOS>MOLECULE
WDL
   12    12     1     0     0
SMALL
bcc


@<TRIPOS>ATOM
      1 NAE         0.1040    0.2180   -0.1610 nb        1 WDL     -0.810000
      2 CAH         1.4630    0.2180    0.0930 ca        1 WDL      0.919300
      3 OAB         2.3250    0.2140   -0.9700 oh        1 WDL     -0.567300
      4 N6          2.0780    0.2230    1.3210 nb        1 WDL     -0.810000
      5 CAI         1.1790    0.2270    2.3710 ca        1 WDL      0.919300
      6 NAF        -0.1930    0.2270    2.2900 nb        1 WDL     -0.810000
      7 OAC         1.6690    0.2310    3.6490 oh        1 WDL     -0.567300
      8 CAG        -0.6520    0.2220    0.9860 ca        1 WDL      0.919300
      9 OAA        -2.0040    0.2220    0.7710 oh        1 WDL     -0.567300
     10 HAB         1.8040    0.2110   -1.7950 ho        1 WDL      0.458000
     11 HAC         2.6430    0.2310    3.6100 ho        1 WDL      0.458000
     12 HAA        -2.4580    0.2250    1.6350 ho        1 WDL      0.458000
@<TRIPOS>BOND
     1    1    2 ar  
     2    1    8 ar  
     3    2    3 1   
     4    2    4 ar  
     5    3   10 1   
     6    4    5 ar  
     7    5    6 ar  
     8    5    7 1   
     9    6    8 ar  
    10    7   11 1   
    11    8    9 1   
    12    9   12 1   
@<TRIPOS>SUBSTRUCTURE
     1 WDL         1 TEMP              0 ****  ****    0 ROOT
