@<TRIPOS>MOLECULE
WDL
   12    12     1     0     0
SMALL
bcc


@<TRIPOS>ATOM
      1 NAE        -1.2810   -0.0050   -0.3080 nb        1 WDL     -0.809333
      2 CAH        -0.4840   -1.1130   -0.1230 ca        1 WDL      0.918633
      3 OAB        -1.0540   -2.3570   -0.1910 oh        1 WDL     -0.564967
      4 N6          0.8650   -1.1200    0.1320 nb        1 WDL     -0.809333
      5 CAI         1.4050    0.1510    0.1940 ca        1 WDL      0.918633
      6 NAF         0.7530    1.3550    0.0330 nb        1 WDL     -0.809333
      7 OAC         2.7460    0.2730    0.4430 oh        1 WDL     -0.564967
      8 CAG        -0.5920    1.1850   -0.2150 ca        1 WDL      0.918633
      9 OAA        -1.2800    2.3580   -0.3820 oh        1 WDL     -0.564967
     10 HAB        -2.0060   -2.2560   -0.3740 ho        1 WDL      0.455667
     11 HAC         3.1280   -0.6190    0.5430 ho        1 WDL      0.455667
     12 HAA        -2.2170    2.1500   -0.5520 ho        1 WDL      0.455667
@<TRIPOS>BOND
     1    1    2 ar  
     2    1    8 ar  
     3    2    3 1   
     4    2    4 ar  
     5    3   10 1   
     6    4    5 ar  
     7    5    6 ar  
     8    5    7 1   
     9    6    8 ar  
    10    7   11 1   
    11    8    9 1   
    12    9   12 1   
@<TRIPOS>SUBSTRUCTURE
     1 WDL         1 TEMP              0 ****  ****    0 ROOT
