@<TRIPOS>MOLECULE
WDR
   42    44     1     0     0
SMALL
bcc


@<TRIPOS>ATOM
      1 CAA        -0.0020   -0.1650    0.0220 c         1 WDR      0.799500
      2 NAB         1.3890   -0.4020   -0.0060 n         1 WDR     -0.468100
      3 CAC         2.1780   -0.2830    1.1330 ca        1 WDR      0.105600
      4 CAD         1.5620   -0.1070    2.3940 ca        1 WDR     -0.188300
      5 CAE         0.0620    0.0020    2.5100 c3        1 WDR      0.352800
      6 CAF         2.3390   -0.0170    3.5470 ca        1 WDR     -0.055000
      7 CAG         3.7350   -0.0960    3.4800 ca        1 WDR     -0.046000
      8 CAH         4.5410   -0.0110    4.6700 cc        1 WDR     -0.267600
      9 CAI         5.7050   -0.7040    4.9720 cd        1 WDR      0.274000
     10 OAJ         6.1340   -0.2850    6.2530 os        1 WDR     -0.117100
     11 CAK         6.5300   -1.7070    4.3020 c3        1 WDR     -0.141400
     12 CAL         4.3170    0.8440    5.8480 cc        1 WDR      0.334600
     13 NAM         5.3070    0.6190    6.7370 nd        1 WDR     -0.362300
     14 CAN         3.2040    1.7950    6.0250 c3        1 WDR     -0.136400
     15 CAO         3.5880   -0.3620    1.0660 ca        1 WDR     -0.187000
     16 CAP         4.3430   -0.2710    2.2260 ca        1 WDR     -0.074000
     17 NAQ        -0.6240    0.1750    1.2360 n         1 WDR     -0.460800
     18 CAR        -2.0660    0.1270    1.2830 c3        1 WDR      0.067300
     19 OAS        -0.6220   -0.2100   -1.0650 o         1 WDR     -0.649500
     20 OAT        -0.4770   -1.0620    3.3040 os        1 WDR     -0.437600
     21 CAU        -0.2330   -2.3870    2.8420 c3        1 WDR      0.122400
     22 CAV        -1.4200   -3.2380    3.2870 c3        1 WDR      0.122400
     23 OAW        -2.4070   -3.1420    2.2740 oh        1 WDR     -0.602800
     24 HNAB        1.8170   -0.4710   -0.9010 hn        1 WDR      0.344500
     25 HAE        -0.2090    0.9080    3.1460 h2        1 WDR      0.096700
     26 HAF         1.8380    0.1040    4.5220 ha        1 WDR      0.150000
     27 HAK         7.3510   -1.2040    3.7280 hc        1 WDR      0.066700
     28 HAKA        6.9950   -2.3980    5.0490 hc        1 WDR      0.066700
     29 HAKB        5.9040   -2.3000    3.5900 hc        1 WDR      0.066700
     30 HAN         2.3380    1.2780    6.5110 hc        1 WDR      0.060367
     31 HANA        2.8790    2.1830    5.0270 hc        1 WDR      0.060367
     32 HANB        3.5030    2.6600    6.6680 hc        1 WDR      0.060367
     33 HAO         4.0910   -0.4950    0.0960 ha        1 WDR      0.142000
     34 HAP         5.4420   -0.3330    2.1640 ha        1 WDR      0.138000
     35 HAR        -2.4830    0.3730    0.2710 h1        1 WDR      0.060700
     36 HARA       -2.4250   -0.8910    1.6000 h1        1 WDR      0.060700
     37 HARB       -2.4140    0.8880    2.0300 h1        1 WDR      0.060700
     38 HAU        -0.1240   -2.4270    1.7280 h1        1 WDR      0.052200
     39 HAUA        0.7070   -2.7560    3.3310 h1        1 WDR      0.052200
     40 HAV        -1.0930   -4.3070    3.3960 h1        1 WDR      0.037200
     41 HAVA       -1.8220   -2.8650    4.2660 h1        1 WDR      0.037200
     42 HOAW       -3.2010   -3.5660    2.6170 ho        1 WDR      0.403000
@<TRIPOS>BOND
     1    1    2 1   
     2    1   17 1   
     3    1   19 2   
     4    2    3 1   
     5    2   24 1   
     6    3    4 ar  
     7    3   15 ar  
     8    4    5 1   
     9    4    6 ar  
    10    5   17 1   
    11    5   20 1   
    12    5   25 1   
    13    6    7 ar  
    14    6   26 1   
    15    7    8 1   
    16    7   16 ar  
    17    8    9 2   
    18    8   12 1   
    19    9   10 1   
    20    9   11 1   
    21   10   13 1   
    22   11   27 1   
    23   11   28 1   
    24   11   29 1   
    25   12   13 2   
    26   12   14 1   
    27   14   30 1   
    28   14   31 1   
    29   14   32 1   
    30   15   16 ar  
    31   15   33 1   
    32   16   34 1   
    33   17   18 1   
    34   18   35 1   
    35   18   36 1   
    36   18   37 1   
    37   20   21 1   
    38   21   22 1   
    39   21   38 1   
    40   21   39 1   
    41   22   23 1   
    42   22   40 1   
    43   22   41 1   
    44   23   42 1   
@<TRIPOS>SUBSTRUCTURE
     1 WDR         1 TEMP              0 ****  ****    0 ROOT
