@<TRIPOS>MOLECULE
WDR
   42    44     1     0     0
SMALL
bcc


@<TRIPOS>ATOM
      1 CAA         0.0480   -0.0700   -0.1250 c         1 WDR      0.804500
      2 NAB         1.4300   -0.3490   -0.1010 ns        1 WDR     -0.465100
      3 CAC         2.1740   -0.2680    1.0720 ca        1 WDR      0.101600
      4 CAD         1.5100   -0.1210    2.3120 ca        1 WDR     -0.186300
      5 CAE         0.0060   -0.0090    2.3690 c3        1 WDR      0.359800
      6 CAF         2.2400   -0.0650    3.4970 ca        1 WDR     -0.055000
      7 CAG         3.6380   -0.1520    3.4830 ca        1 WDR     -0.042000
      8 CAH         4.3970   -0.1010    4.7050 cc        1 WDR     -0.270600
      9 CAI         5.5430   -0.8100    5.0360 cd        1 WDR      0.276000
     10 OAJ         5.9240   -0.4250    6.3420 os        1 WDR     -0.116100
     11 CAK         6.3860   -1.8040    4.3760 c3        1 WDR     -0.142400
     12 CAL         4.1330    0.7280    5.8930 cc        1 WDR      0.335600
     13 NAM         5.0850    0.4750    6.8140 nd        1 WDR     -0.361300
     14 CAN         3.0210    1.6840    6.0480 c3        1 WDR     -0.136400
     15 CAO         3.5850   -0.3550    1.0580 ca        1 WDR     -0.185000
     16 CAP         4.2940   -0.3000    2.2490 ca        1 WDR     -0.074000
     17 NAQ        -0.6140    0.2350    1.0760 n         1 WDR     -0.475800
     18 CAR        -2.0510    0.3390    1.0600 c3        1 WDR      0.078300
     19 OAS        -0.5330   -0.0610   -1.2340 o         1 WDR     -0.651500
     20 OAT        -0.5740   -1.1170    3.0700 os        1 WDR     -0.448600
     21 CAU        -0.3350   -2.4070    2.5120 c3        1 WDR      0.079400
     22 CAV        -0.8460   -3.4120    3.5410 c3        1 WDR      0.132400
     23 OAW        -2.2470   -3.3340    3.6950 oh        1 WDR     -0.597800
     24 HNAB        1.8930   -0.3970   -0.9800 hn        1 WDR      0.346500
     25 HAE        -0.2900    0.8590    3.0460 h2        1 WDR      0.095700
     26 HAF         1.7030    0.0350    4.4550 ha        1 WDR      0.150000
     27 HAK         6.8150   -2.5180    5.1240 hc        1 WDR      0.067367
     28 HAKA        7.2340   -1.2960    3.8480 hc        1 WDR      0.067367
     29 HAKB        5.7850   -2.3750    3.6240 hc        1 WDR      0.067367
     30 HAN         3.3010    2.5330    6.7210 hc        1 WDR      0.059700
     31 HANA        2.1330    1.1640    6.4900 hc        1 WDR      0.059700
     32 HANB        2.7360    2.0960    5.0480 hc        1 WDR      0.059700
     33 HAO         4.1250   -0.4670    0.1060 ha        1 WDR      0.143000
     34 HAP         5.3940   -0.3680    2.2290 ha        1 WDR      0.140000
     35 HAR        -2.4060    0.5670    0.0200 h1        1 WDR      0.055367
     36 HARA       -2.3520    1.1720    1.7500 h1        1 WDR      0.055367
     37 HARB       -2.5250   -0.6160    1.4140 h1        1 WDR      0.055367
     38 HAU         0.7600   -2.5550    2.3270 h1        1 WDR      0.048200
     39 HAUA       -0.9030   -2.5080    1.5500 h1        1 WDR      0.048200
     40 HAV        -0.6480   -4.4560    3.1790 h1        1 WDR      0.054200
     41 HAVA       -0.3380   -3.2440    4.5280 h1        1 WDR      0.054200
     42 HOAW       -2.4520   -2.4260    3.9520 ho        1 WDR      0.410000
@<TRIPOS>BOND
     1    1    2 1   
     2    1   17 1   
     3    1   19 2   
     4    2    3 1   
     5    2   24 1   
     6    3    4 ar  
     7    3   15 ar  
     8    4    5 1   
     9    4    6 ar  
    10    5   17 1   
    11    5   20 1   
    12    5   25 1   
    13    6    7 ar  
    14    6   26 1   
    15    7    8 1   
    16    7   16 ar  
    17    8    9 2   
    18    8   12 1   
    19    9   10 1   
    20    9   11 1   
    21   10   13 1   
    22   11   27 1   
    23   11   28 1   
    24   11   29 1   
    25   12   13 2   
    26   12   14 1   
    27   14   30 1   
    28   14   31 1   
    29   14   32 1   
    30   15   16 ar  
    31   15   33 1   
    32   16   34 1   
    33   17   18 1   
    34   18   35 1   
    35   18   36 1   
    36   18   37 1   
    37   20   21 1   
    38   21   22 1   
    39   21   38 1   
    40   21   39 1   
    41   22   23 1   
    42   22   40 1   
    43   22   41 1   
    44   23   42 1   
@<TRIPOS>SUBSTRUCTURE
     1 WDR         1 TEMP              0 ****  ****    0 ROOT
