@<TRIPOS>MOLECULE
WDR
   42    39     1     0     0
SMALL
bcc


@<TRIPOS>ATOM
      1 CAA        -1.7910    0.2570   -3.4430 c1        1 WDR      0.397000
      2 NAB        -0.3370    0.2060   -3.4580 n2        1 WDR     -0.316000
      3 CAC         0.4120    0.1820   -2.1990 c2        1 WDR      0.118000
      4 CAD        -0.2410    0.3620   -1.0080 c2        1 WDR     -0.143000
      5 CAE        -1.7610    0.3320   -0.9640 c3        1 WDR      0.197000
      6 CAF         0.5070    0.4860    0.2030 c1        1 WDR     -0.058000
      7 CAG         1.9020    0.4240    0.1730 c1        1 WDR     -0.042000
      8 CAH         2.9560    0.4180    1.3140 c2        1 WDR     -0.139000
      9 CAI         3.5070   -0.7030    1.8880 c1        1 WDR     -0.012000
     10 OAJ         4.2400   -0.3100    2.9640 os        1 WDR     -0.059000
     11 CAK         3.2990   -2.1440    1.4250 c2        1 WDR     -0.162500
     12 CAL         3.3620    1.5200    2.0560 c1        1 WDR     -0.089000
     13 NAM         4.1500    1.0760    3.0680 n2        1 WDR     -0.026000
     14 CAN         2.9780    2.9750    1.7880 c2        1 WDR     -0.162500
     15 CAO         1.8260    0.1190   -2.2300 c1        1 WDR     -0.185000
     16 CAP         2.5630    0.2420   -1.0330 c1        1 WDR     -0.075000
     17 NAQ        -2.4910    0.3440   -2.2040 n3        1 WDR     -0.317000
     18 CAR        -3.9100    0.5270   -2.1950 c3        1 WDR     -0.081000
     19 OAS        -2.4030    0.2940   -4.4860 o         1 WDR     -0.377000
     20 OAT        -2.1580   -0.8930   -0.2260 os        1 WDR     -0.301000
     21 CAU        -3.0850   -0.6520    0.8720 c3        1 WDR     -0.067000
     22 CAV        -3.3280   -1.9450    1.6190 c3        1 WDR     -0.017000
     23 OAW        -2.7850   -1.8440    2.9450 oh        1 WDR     -0.325000
     24 HNAB        0.0960    0.1510   -4.2320 hn        1 WDR      0.260000
     25 HAE        -2.0600    1.1180   -0.4330 h2        1 WDR      0.108000
     26 HAF         0.0370    0.5640    1.0670 ha        1 WDR      0.143000
     27 HAK         2.4140   -2.5000    1.8010 ha        1 WDR      0.102833
     28 HAKA        3.2730   -2.1760    0.4070 ha        1 WDR      0.102833
     29 HAKB        4.0800   -2.7270    1.7680 ha        1 WDR      0.102833
     30 HAN         3.3990    3.2790    0.9240 ha        1 WDR      0.102833
     31 HANA        1.9910    3.0490    1.7200 ha        1 WDR      0.102833
     32 HANB        3.2960    3.5360    2.5190 ha        1 WDR      0.102833
     33 HAO         2.3070   -0.0120   -3.1100 ha        1 WDR      0.142000
     34 HAP         3.5580    0.1960   -1.0540 ha        1 WDR      0.139000
     35 HAR        -4.1450    1.3300   -2.7430 h1        1 WDR      0.091000
     36 HARA       -4.2160    0.6580   -1.2740 h1        1 WDR      0.091000
     37 HARB       -4.3500   -0.2730   -2.5780 h1        1 WDR      0.091000
     38 HAU        -3.9100   -0.3280    0.5250 h1        1 WDR      0.078000
     39 HAUA       -2.6970    0.0230    1.4910 h1        1 WDR      0.078000
     40 HAV        -2.8860   -2.6960    1.1360 h1        1 WDR      0.095500
     41 HAVA       -4.3110   -2.1150    1.6730 h1        1 WDR      0.095500
     42 HOAW       -3.2880   -2.3510    3.5200 ho        1 WDR      0.214000
@<TRIPOS>BOND
     1    1   17 1   
     2    1   19 1   
     3    2    3 1   
     4    2   24 1   
     5    3    4 1   
     6    3   15 1   
     7    4    5 1   
     8    4    6 1   
     9    5   17 1   
    10    5   20 1   
    11    5   25 1   
    12    6   26 1   
    13    7    8 1   
    14    7   16 1   
    15    8    9 1   
    16    8   12 1   
    17    9   10 1   
    18   10   13 1   
    19   11   27 1   
    20   11   28 1   
    21   11   29 1   
    22   12   13 1   
    23   14   30 1   
    24   14   31 1   
    25   14   32 1   
    26   15   33 1   
    27   16   34 1   
    28   17   18 1   
    29   18   35 1   
    30   18   36 1   
    31   18   37 1   
    32   20   21 1   
    33   21   22 1   
    34   21   38 1   
    35   21   39 1   
    36   22   23 1   
    37   22   40 1   
    38   22   41 1   
    39   23   42 1   
@<TRIPOS>SUBSTRUCTURE
     1 WDR         1 TEMP              0 ****  ****    0 ROOT
