@<TRIPOS>MOLECULE
WDR
   42    44     1     0     0
SMALL
bcc


@<TRIPOS>ATOM
      1 CAA        -3.2270    1.4430   -0.3490 c         1 WDR      0.799500
      2 NAB        -2.1620    1.7730   -1.2140 n         1 WDR     -0.468100
      3 CAC        -0.8480    1.4150   -0.9310 ca        1 WDR      0.105600
      4 CAD        -0.5790    0.5380    0.1450 ca        1 WDR     -0.188300
      5 CAE        -1.6970    0.0260    1.0190 c3        1 WDR      0.352800
      6 CAF         0.7300    0.1470    0.4200 ca        1 WDR     -0.055000
      7 CAG         1.7970    0.6140   -0.3570 ca        1 WDR     -0.046000
      8 CAH         3.1500    0.2070   -0.0810 cc        1 WDR     -0.267600
      9 CAI         4.1680   -0.0670   -0.9840 cd        1 WDR      0.274000
     10 OAJ         5.3160   -0.4270   -0.2410 os        1 WDR     -0.117100
     11 CAK         4.3040   -0.0650   -2.4390 c3        1 WDR     -0.141400
     12 CAL         3.7730   -0.0080    1.2360 cc        1 WDR      0.334600
     13 NAM         5.0560   -0.3810    1.0490 nd        1 WDR     -0.362300
     14 CAN         3.1100    0.1640    2.5430 c3        1 WDR     -0.136400
     15 CAO         0.2310    1.8880   -1.7150 ca        1 WDR     -0.187000
     16 CAP         1.5260    1.4860   -1.4250 ca        1 WDR     -0.074000
     17 NAQ        -2.9690    0.7070    0.8220 n         1 WDR     -0.460800
     18 CAR        -4.1010    0.1480    1.5210 c3        1 WDR      0.067300
     19 OAS        -4.3660    1.8780   -0.6350 o         1 WDR     -0.649500
     20 OAT        -1.8000   -1.4020    0.9450 os        1 WDR     -0.437600
     21 CAU        -2.0490   -1.9570   -0.3420 c3        1 WDR      0.122400
     22 CAV        -2.8480   -3.2400   -0.1270 c3        1 WDR      0.122400
     23 OAW        -4.2190   -2.8780   -0.0960 oh        1 WDR     -0.602800
     24 HNAB       -2.3530    2.4320   -1.9330 hn        1 WDR      0.344500
     25 HAE        -1.4220    0.1680    2.1160 h2        1 WDR      0.096700
     26 HAF         0.9170   -0.5500    1.2540 ha        1 WDR      0.150000
     27 HAK         4.6900    0.9280   -2.7850 hc        1 WDR      0.066700
     28 HAKA        5.0240   -0.8570   -2.7680 hc        1 WDR      0.066700
     29 HAKB        3.3080   -0.2500   -2.9140 hc        1 WDR      0.066700
     30 HAN         2.6350   -0.8000    2.8560 hc        1 WDR      0.060367
     31 HANA        3.8390    0.4700    3.3340 hc        1 WDR      0.060367
     32 HANB        2.3160    0.9470    2.4610 hc        1 WDR      0.060367
     33 HAO         0.0460    2.5740   -2.5550 ha        1 WDR      0.142000
     34 HAP         2.3600    1.8590   -2.0400 ha        1 WDR      0.138000
     35 HAR        -4.9960    0.8090    1.3780 h1        1 WDR      0.060700
     36 HARA       -4.3350   -0.8870    1.1460 h1        1 WDR      0.060700
     37 HARB       -3.8420    0.0930    2.6120 h1        1 WDR      0.060700
     38 HAU        -2.6200   -1.2500   -0.9980 h1        1 WDR      0.052200
     39 HAUA       -1.0590   -2.1970   -0.8120 h1        1 WDR      0.052200
     40 HAV        -2.6620   -3.9430   -0.9820 h1        1 WDR      0.037200
     41 HAVA       -2.5480   -3.7290    0.8370 h1        1 WDR      0.037200
     42 HOAW       -4.7080   -3.6630    0.1740 ho        1 WDR      0.403000
@<TRIPOS>BOND
     1    1    2 1   
     2    1   17 1   
     3    1   19 2   
     4    2    3 1   
     5    2   24 1   
     6    3    4 ar  
     7    3   15 ar  
     8    4    5 1   
     9    4    6 ar  
    10    5   17 1   
    11    5   20 1   
    12    5   25 1   
    13    6    7 ar  
    14    6   26 1   
    15    7    8 1   
    16    7   16 ar  
    17    8    9 2   
    18    8   12 1   
    19    9   10 1   
    20    9   11 1   
    21   10   13 1   
    22   11   27 1   
    23   11   28 1   
    24   11   29 1   
    25   12   13 2   
    26   12   14 1   
    27   14   30 1   
    28   14   31 1   
    29   14   32 1   
    30   15   16 ar  
    31   15   33 1   
    32   16   34 1   
    33   17   18 1   
    34   18   35 1   
    35   18   36 1   
    36   18   37 1   
    37   20   21 1   
    38   21   22 1   
    39   21   38 1   
    40   21   39 1   
    41   22   23 1   
    42   22   40 1   
    43   22   41 1   
    44   23   42 1   
@<TRIPOS>SUBSTRUCTURE
     1 WDR         1 TEMP              0 ****  ****    0 ROOT
