@<TRIPOS>MOLECULE
WDS
   59    62     1     0     0
SMALL
bcc


@<TRIPOS>ATOM
      1 C29        -0.2760   -0.7960   -0.3720 ca        1 WDS     -0.094000
      2 C31         1.0780   -1.1110   -0.4760 ca        1 WDS     -0.236300
      3 C4         -3.6910   -0.3650    9.1370 ca        1 WDS     -0.063000
      4 C9         -3.9620    0.9610    9.4340 ca        1 WDS     -0.122000
      5 C24        -0.8040   -0.4810    0.8810 ca        1 WDS     -0.225300
      6 C6         -2.8360    1.6760    7.3980 ca        1 WDS     -0.102000
      7 C30         1.8560   -1.0960    0.6980 ca        1 WDS      0.397200
      8 C1         -2.9920   -0.6910    7.9670 ca        1 WDS     -0.182600
      9 C11        -3.5240    1.9760    8.5650 ca        1 WDS     -0.094600
     10 C2         -2.5580    0.3230    7.0750 ca        1 WDS      0.189400
     11 C20         0.0500   -0.4920    2.0060 ca        1 WDS      0.396600
     12 C3         -2.7000   -2.1020    7.6490 c         1 WDS      0.711100
     13 C10        -1.6250   -1.2630    5.6320 cc        1 WDS      0.499800
     14 C26        -0.7470    5.1710    9.6650 c3        1 WDS     -0.093400
     15 C27        -1.8040    6.2370    9.9300 c3        1 WDS     -0.093400
     16 C21        -1.4600    4.0220    8.9310 c3        1 WDS      0.078000
     17 C22        -3.1240    5.6930    9.3610 c3        1 WDS      0.078000
     18 C28         1.5860   -7.4700    5.9560 c3        1 WDS     -0.093100
     19 C16        -0.5190   -0.1350    3.3410 c3        1 WDS     -0.072600
     20 C23         1.3550   -6.0400    6.3720 c3        1 WDS     -0.079400
     21 C19        -0.0420   -5.5780    6.0150 c3        1 WDS     -0.076400
     22 C15        -0.2630   -4.1410    6.4380 c3        1 WDS     -0.101400
     23 N25         1.3710   -0.7960    1.9140 nb        1 WDS     -0.651000
     24 N5         -1.8690    0.0100    5.9030 nd        1 WDS     -0.660100
     25 N7         -2.0160   -2.3460    6.4340 n         1 WDS     -0.382300
     26 N17        -2.8730    4.3530    8.8480 n         1 WDS     -0.452800
     27 O8         -3.0290   -3.0570    8.3750 o         1 WDS     -0.616500
     28 O18        -5.0420    3.7080    9.1990 o         1 WDS     -0.588100
     29 S13        -0.7700   -1.6810    4.1800 ss        1 WDS     -0.124300
     30 H1         -0.9210   -0.7950   -1.2630 ha        1 WDS      0.143000
     31 H2          1.5340   -1.3640   -1.4410 ha        1 WDS      0.147000
     32 H3         -4.0230   -1.1770    9.8050 ha        1 WDS      0.163000
     33 H4         -4.5330    1.2310   10.3360 ha        1 WDS      0.156000
     34 H5         -1.8670   -0.2290    0.9950 ha        1 WDS      0.149000
     35 H6         -2.5120    2.4770    6.7150 ha        1 WDS      0.160000
     36 H7          2.9340   -1.3390    0.6650 h4        1 WDS      0.027100
     37 H8          0.0820    5.5740    9.0330 hc        1 WDS      0.052950
     38 H9         -0.3020    4.8020   10.6210 hc        1 WDS      0.052950
     39 H10        -1.5370    7.2000    9.4310 hc        1 WDS      0.052950
     40 H11        -1.9060    6.4350   11.0250 hc        1 WDS      0.052950
     41 H12        -1.0570    3.9150    7.8860 h1        1 WDS      0.055700
     42 H13        -1.3020    3.0460    9.4640 h1        1 WDS      0.055700
     43 H14        -3.9310    5.6720   10.1440 h1        1 WDS      0.055700
     44 H15        -3.4860    6.3330    8.5100 h1        1 WDS      0.055700
     45 H16         2.6200   -7.7910    6.2290 hc        1 WDS      0.033700
     46 H17         1.4600   -7.5850    4.8520 hc        1 WDS      0.033700
     47 H18         0.8600   -8.1500    6.4630 hc        1 WDS      0.033700
     48 H19        -1.4820    0.4180    3.2170 h1        1 WDS      0.099200
     49 H20         0.1770    0.5180    3.9250 h1        1 WDS      0.099200
     50 H21         2.1080   -5.3750    5.8720 hc        1 WDS      0.041700
     51 H22         1.5100   -5.9390    7.4790 hc        1 WDS      0.041700
     52 H23        -0.7960   -6.2400    6.5160 hc        1 WDS      0.042700
     53 H24        -0.1970   -5.6750    4.9080 hc        1 WDS      0.042700
     54 H25        -0.1230   -4.0480    7.5470 hc        1 WDS      0.057700
     55 H26         0.4930   -3.4770    5.9410 hc        1 WDS      0.057700
     56 H27        -1.8050   -3.8010    4.9340 h1        1 WDS      0.076700
     57 H28        -2.4200   -4.3920    6.5530 h1        1 WDS      0.076700
     58 C14        -3.8710    3.3880    8.9120 c         1 WDS      0.659700
     59 C12        -1.6770   -3.7040    6.0530 c3        1 WDS      0.077000
@<TRIPOS>BOND
     1    1    2 ar  
     2    1    5 ar  
     3    1   30 1   
     4    2    7 ar  
     5    2   31 1   
     6    3    4 ar  
     7    3    8 ar  
     8    3   32 1   
     9    4    9 ar  
    10    4   33 1   
    11    5   11 ar  
    12    5   34 1   
    13    6    9 ar  
    14    6   10 ar  
    15    6   35 1   
    16    7   23 ar  
    17    7   36 1   
    18    8   10 ar  
    19    8   12 1   
    20    9   58 1   
    21   10   24 1   
    22   11   19 1   
    23   11   23 ar  
    24   12   25 1   
    25   12   27 2   
    26   13   24 2   
    27   13   25 1   
    28   13   29 1   
    29   14   15 1   
    30   14   16 1   
    31   14   37 1   
    32   14   38 1   
    33   15   17 1   
    34   15   39 1   
    35   15   40 1   
    36   16   26 1   
    37   16   41 1   
    38   16   42 1   
    39   17   26 1   
    40   17   43 1   
    41   17   44 1   
    42   18   20 1   
    43   18   45 1   
    44   18   46 1   
    45   18   47 1   
    46   19   29 1   
    47   19   48 1   
    48   19   49 1   
    49   20   21 1   
    50   20   50 1   
    51   20   51 1   
    52   21   22 1   
    53   21   52 1   
    54   21   53 1   
    55   22   54 1   
    56   22   55 1   
    57   22   59 1   
    58   25   59 1   
    59   26   58 1   
    60   28   58 2   
    61   56   59 1   
    62   57   59 1   
@<TRIPOS>SUBSTRUCTURE
     1 WDS         1 TEMP              0 ****  ****    0 ROOT
