@<TRIPOS>MOLECULE
WDT
   28    29     1     0     0
SMALL
bcc


@<TRIPOS>ATOM
      1 C17         0.3000    0.1590   -0.2540 c1        1 WDT     -0.068000
      2 C14         1.7190    0.3580    0.0240 c3        1 WDT     -0.239000
      3 C15        -0.5560   -0.1280    0.8420 c2        1 WDT     -0.238000
      4 C9          3.4280    3.5170    3.7310 c3        1 WDT     -0.179000
      5 C10         2.1660    0.2760    1.4280 c2        1 WDT      0.085000
      6 C11        -0.1000   -0.2050    2.1220 c2        1 WDT      0.026000
      7 C4          3.0140    2.1550    3.4900 c1        1 WDT     -0.049000
      8 C3          1.5990    2.1700    5.4660 c2        1 WDT      0.069000
      9 C12         2.8460    4.2020    4.9190 c2        1 WDT     -0.151000
     10 C8          1.9610    3.5490    5.7430 c2        1 WDT      0.079000
     11 C5          1.2940    0.0050    2.4420 c2        1 WDT     -0.889000
     12 C1          2.1200    1.5130    4.3960 c2        1 WDT     -0.831000
     13 O19         2.8330    6.2100    6.0950 o         1 WDT     -0.471200
     14 O18         4.0490    6.0910    4.3790 o         1 WDT     -0.471200
     15 O13         1.4310    4.2010    6.8200 oh        1 WDT     -0.196000
     16 S2          1.7920   -0.1200    4.0260 s6        1 WDT      2.904000
     17 H1          2.0100    1.3660   -0.4030 hc        1 WDT      0.179000
     18 H2          3.2380    0.4510    1.6440 ha        1 WDT      0.171000
     19 H3         -0.7750   -0.4380    2.9680 ha        1 WDT      0.157000
     20 H4          3.2130    4.1210    2.7940 hc        1 WDT      0.199500
     21 H5          2.2870   -0.4040   -0.5940 hc        1 WDT      0.179000
     22 H6         -1.6240   -0.2910    0.6180 ha        1 WDT      0.155000
     23 H7          4.5640    3.5150    3.8040 hc        1 WDT      0.199500
     24 H8          0.8840    1.6750    6.1550 ha        1 WDT      0.178000
     25 H9          0.8440    3.5910    7.2970 ho        1 WDT      0.235000
     26 N16         3.2680    5.6050    5.1570 no        1 WDT      0.830400
     27 O6          0.7210   -0.5050    4.8520 o         1 WDT     -0.932000
     28 O7          2.9660   -0.8660    4.1310 o         1 WDT     -0.932000
@<TRIPOS>BOND
     1    1    2 1   
     2    1    3 1   
     3    2    5 1   
     4    2   17 1   
     5    2   21 1   
     6    3    6 1   
     7    3   22 1   
     8    4    7 1   
     9    4    9 1   
    10    4   20 1   
    11    4   23 1   
    12    5   11 1   
    13    5   18 1   
    14    6   11 1   
    15    6   19 1   
    16    7   12 1   
    17    8   10 1   
    18    8   12 1   
    19    8   24 1   
    20    9   10 1   
    21    9   26 1   
    22   10   15 1   
    23   11   16 1   
    24   12   16 1   
    25   13   26 2   
    26   14   26 2   
    27   15   25 1   
    28   16   27 1   
    29   16   28 1   
@<TRIPOS>SUBSTRUCTURE
     1 WDT         1 TEMP              0 ****  ****    0 ROOT
