@<TRIPOS>MOLECULE
WDT
   28    29     1     0     0
SMALL
bcc


@<TRIPOS>ATOM
      1 C17         2.0320    0.3050    0.3360 c2        1 WDT     -0.148000
      2 C14         0.9790   -0.4950    0.1150 c2        1 WDT     -0.181000
      3 C15         2.0320    1.4560    1.2740 c3        1 WDT     -0.141000
      4 C9          1.6310    3.4680    3.6300 c3        1 WDT     -0.127000
      5 C10         1.6820   -1.3070    2.1810 c1        1 WDT      0.329000
      6 C11         1.3260    1.0990    2.5780 c3        1 WDT     -0.003000
      7 C4          1.6820    2.0060    3.7170 c2        1 WDT      0.162000
      8 C3          2.3770    1.9800    6.0550 c1        1 WDT      0.002000
      9 C12         2.0090    4.1530    4.9030 c2        1 WDT     -0.207000
     10 C8          2.3540    3.4400    6.0270 c2        1 WDT      0.108000
     11 C5          1.6670   -0.2960    3.0400 c2        1 WDT     -1.107000
     12 C1          2.0380    1.3280    4.8570 c2        1 WDT     -0.874000
     13 O19         2.2560    6.2700    5.8270 o         1 WDT     -0.481200
     14 O18         1.6700    6.1500    3.8080 o         1 WDT     -0.481200
     15 O13         2.6910    4.0930    7.1680 oh        1 WDT     -0.193000
     16 S2          2.0390   -0.3610    4.7190 s6        1 WDT      2.926000
     17 H1          2.9900    0.1310   -0.1860 ha        1 WDT      0.148000
     18 H2         -0.0100   -0.3300    0.5680 ha        1 WDT      0.135000
     19 H3          1.5170    2.3370    0.8030 hc        1 WDT      0.111500
     20 H4          0.5910    3.7940    3.3220 hc        1 WDT      0.174500
     21 H5          1.0360   -1.3480   -0.5770 ha        1 WDT      0.135000
     22 H6          3.0910    1.7610    1.4900 hc        1 WDT      0.111500
     23 H7          2.3170    3.8150    2.7960 hc        1 WDT      0.174500
     24 H8          0.2070    1.1650    2.4210 hc        1 WDT      0.140000
     25 H9          2.9000    3.4180    7.8440 ho        1 WDT      0.262000
     26 N16         1.9790    5.6320    4.8530 no        1 WDT      0.836400
     27 O6          0.9810   -0.9350    5.4070 o         1 WDT     -0.906500
     28 O7          3.3010   -0.9060    4.8880 o         1 WDT     -0.906500
@<TRIPOS>BOND
     1    1    2 1   
     2    1    3 1   
     3    1   17 1   
     4    2   18 1   
     5    2   21 1   
     6    3    6 1   
     7    3   19 1   
     8    3   22 1   
     9    4    7 1   
    10    4    9 1   
    11    4   20 1   
    12    4   23 1   
    13    5   11 1   
    14    6    7 1   
    15    6   11 1   
    16    6   24 1   
    17    7   12 1   
    18    8   10 1   
    19    8   12 1   
    20    9   10 1   
    21    9   26 1   
    22   10   15 1   
    23   11   16 1   
    24   12   16 1   
    25   13   26 2   
    26   14   26 2   
    27   15   25 1   
    28   16   27 1   
    29   16   28 1   
@<TRIPOS>SUBSTRUCTURE
     1 WDT         1 TEMP              0 ****  ****    0 ROOT
