@<TRIPOS>MOLECULE
WDU
   29    29     1     0     0
SMALL
bcc


@<TRIPOS>ATOM
      1 C15         0.7060   -0.3720   -0.5130 ce        1 WDU     -0.024100
      2 C16        -3.4540    0.9480    3.3700 c2        1 WDU     -0.135000
      3 C17         1.9150   -0.5450    0.2590 ce        1 WDU     -0.201000
      4 C18        -2.7880   -0.1490    3.0070 c2        1 WDU     -0.069900
      5 C14        -0.5010   -0.4290   -0.0110 c1        1 WDU     -0.050800
      6 C19         3.1570   -0.5040   -0.2510 c2        1 WDU      0.016400
      7 C2         -5.5020   -3.3560    1.9020 cc        1 WDU      0.097400
      8 C1         -4.2000   -3.1200    1.3860 cc        1 WDU     -0.218100
      9 C5         -5.8060   -4.7100    1.4700 cd        1 WDU     -0.081500
     10 C4         -3.3660   -1.9270    1.4820 c2        1 WDU      0.500100
     11 C11        -1.7220   -0.4000    0.4600 c2        1 WDU     -0.058100
     12 N3         -3.8260   -4.3010    0.6990 na        1 WDU      0.036500
     13 N7         -4.7440   -5.2340    0.7650 nd        1 WDU     -0.217700
     14 N8         -2.5560   -1.5530    0.4870 nu        1 WDU     -0.553800
     15 N10        -7.0740   -5.4440    1.7390 no        1 WDU      0.344100
     16 O13        -7.5020   -6.1610    0.8860 o         1 WDU     -0.138500
     17 O9         -3.5550   -1.2850    2.6560 os        1 WDU     -0.198200
     18 O12        -7.5940   -5.2630    2.8000 o         1 WDU     -0.138500
     19 Cl1         3.5430   -0.2590   -1.8670 cl        1 WDU     -0.053400
     20 H1          0.8230   -0.1710   -1.6020 ha        1 WDU      0.182000
     21 H2         -2.9170    1.8110    3.7970 ha        1 WDU      0.166500
     22 H3          1.7940   -0.7130    1.3440 ha        1 WDU      0.153000
     23 H4          4.0480   -0.6360    0.3860 h4        1 WDU      0.177000
     24 H5         -4.5460    1.0490    3.2930 ha        1 WDU      0.166500
     25 H6         -1.7100   -0.3500    3.0750 h4        1 WDU      0.181000
     26 H8         -2.2170    0.5310    0.8030 h4        1 WDU      0.193000
     27 H7         -2.9180   -4.5250    0.3430 hn        1 WDU      0.355700
     28 H82        -2.5120   -2.1360   -0.3330 hn        1 WDU      0.480800
     29 Cl6        -6.4820   -2.3360    2.7400 cl        1 WDU      0.086600
@<TRIPOS>BOND
     1    1    3 1   
     2    1    5 2   
     3    1   20 1   
     4    2    4 2   
     5    2   21 1   
     6    2   24 1   
     7    3    6 2   
     8    3   22 1   
     9    4   17 1   
    10    4   25 1   
    11    5   11 2   
    12    6   19 1   
    13    6   23 1   
    14    7    8 1   
    15    7    9 2   
    16    7   29 1   
    17    8   10 2   
    18    8   12 1   
    19    9   13 1   
    20    9   15 1   
    21   10   14 1   
    22   10   17 1   
    23   11   14 1   
    24   11   26 1   
    25   12   13 2   
    26   12   27 1   
    27   14   28 1   
    28   15   16 1   
    29   15   18 1   
@<TRIPOS>SUBSTRUCTURE
     1 WDU         1 TEMP              0 ****  ****    0 ROOT
