@<TRIPOS>MOLECULE
WDV
   45    47     1     0     0
SMALL
bcc


@<TRIPOS>ATOM
      1 C8          0.1900   -0.0750   -0.2190 ca        1 WDV     -0.108000
      2 C11         1.5480    0.2200   -0.1450 ca        1 WDV     -0.114000
      3 C4         -0.5600   -0.2790    0.9360 ca        1 WDV     -0.157000
      4 C24        -2.8850   -4.7540    9.1910 ca        1 WDV     -0.023000
      5 C22        -3.9180   -4.5530    8.2850 ca        1 WDV     -0.231000
      6 C3          1.4170    0.1280    2.2790 ca        1 WDV     -0.115000
      7 C19        -1.9590   -2.5700    8.6010 ca        1 WDV     -0.033000
      8 C7          2.1480    0.3160    1.1110 ca        1 WDV     -0.141300
      9 C18        -2.9910   -2.3630    7.6910 ca        1 WDV     -0.116300
     10 C1          0.0350   -0.1770    2.2140 ca        1 WDV      0.139600
     11 C21        -1.9070   -3.7580    9.3500 ca        1 WDV     -0.219200
     12 C20        -3.9750   -3.3640    7.5380 ca        1 WDV      0.187100
     13 C5         -2.1530   -0.3490    3.2760 c3        1 WDV      0.186300
     14 C6         -0.1890   -1.2180    4.3990 c3        1 WDV      0.186300
     15 C9         -2.8790   -0.2470    4.6340 c3        1 WDV      0.165300
     16 C10        -0.9220   -1.1130    5.7510 c3        1 WDV      0.165300
     17 C17        -3.0640   -1.0930    6.8930 c3        1 WDV      0.225100
     18 C12         3.6400    0.6200    1.2090 c3        1 WDV      0.686200
     19 N2         -0.7090   -0.2790    3.4140 nh        1 WDV     -0.637000
     20 N13        -2.3690   -1.1930    5.6160 n3        1 WDV     -0.730600
     21 N25        -0.8030   -3.9630   10.3190 no        1 WDV      0.319200
     22 O27         0.0350   -3.1100   10.4360 o         1 WDV     -0.212000
     23 O26        -0.7750   -4.9790   10.9630 o         1 WDV     -0.212000
     24 O23        -4.9880   -3.1130    6.6520 oh        1 WDV     -0.478100
     25 F14         4.1450    1.3530    0.1620 f         1 WDV     -0.237300
     26 F15         4.0100    1.3310    2.3250 f         1 WDV     -0.237300
     27 F16         4.4390   -0.4980    1.2480 f         1 WDV     -0.237300
     28 H1         -0.2980   -0.1540   -1.2030 ha        1 WDV      0.140000
     29 H2          2.1420    0.3800   -1.0580 ha        1 WDV      0.152000
     30 H3         -1.6290   -0.5230    0.8310 ha        1 WDV      0.139000
     31 H5         -4.6890   -5.3260    8.1520 ha        1 WDV      0.150000
     32 H6          1.9250    0.2390    3.2510 ha        1 WDV      0.155000
     33 H7         -1.1800   -1.7970    8.7350 ha        1 WDV      0.173000
     34 H8         -2.4910    0.5210    2.6460 h1        1 WDV      0.047700
     35 H9         -2.4760   -1.3040    2.7680 h1        1 WDV      0.047700
     36 H10        -0.2670   -2.2800    4.0250 h1        1 WDV      0.047700
     37 H11         0.8970   -0.9910    4.5840 h1        1 WDV      0.047700
     38 H12        -3.9650   -0.4850    4.4530 h1        1 WDV      0.043200
     39 H13        -2.8110    0.8180    5.0020 h1        1 WDV      0.043200
     40 H14        -0.5880   -1.9780    6.3890 h1        1 WDV      0.043200
     41 H15        -0.6010   -0.1580    6.2630 h1        1 WDV      0.043200
     42 H16        -2.6560   -0.2490    7.5260 h1        1 WDV      0.052200
     43 H17        -4.1530   -0.8720    6.6880 h1        1 WDV      0.052200
     44 H19        -5.5690   -3.8890    6.6250 ho        1 WDV      0.429000
     45 H4         -2.8320   -5.6860    9.7810 ha        1 WDV      0.173000
@<TRIPOS>BOND
     1    1    2 ar  
     2    1    3 ar  
     3    1   28 1   
     4    2    8 ar  
     5    2   29 1   
     6    3   10 ar  
     7    3   30 1   
     8    4    5 ar  
     9    4   11 ar  
    10    4   45 1   
    11    5   12 ar  
    12    5   31 1   
    13    6    8 ar  
    14    6   10 ar  
    15    6   32 1   
    16    7    9 ar  
    17    7   11 ar  
    18    7   33 1   
    19    8   18 1   
    20    9   12 ar  
    21    9   17 1   
    22   10   19 1   
    23   11   21 1   
    24   12   24 1   
    25   13   15 1   
    26   13   19 1   
    27   13   34 1   
    28   13   35 1   
    29   14   16 1   
    30   14   19 1   
    31   14   36 1   
    32   14   37 1   
    33   15   20 1   
    34   15   38 1   
    35   15   39 1   
    36   16   20 1   
    37   16   40 1   
    38   16   41 1   
    39   17   20 1   
    40   17   42 1   
    41   17   43 1   
    42   18   25 1   
    43   18   26 1   
    44   18   27 1   
    45   21   22 1   
    46   21   23 1   
    47   24   44 1   
@<TRIPOS>SUBSTRUCTURE
     1 WDV         1 TEMP              0 ****  ****    0 ROOT
