@<TRIPOS>MOLECULE
WDW
   34    36     1     0     0
SMALL
bcc


@<TRIPOS>ATOM
      1 C14        -0.0670    0.4880    0.0180 ca        1 WDW     -0.101000
      2 C10         1.3110    0.6040    0.0120 ca        1 WDW     -0.147000
      3 C12        -0.1100   -0.2370    2.3430 ca        1 WDW     -0.072000
      4 C11         2.2730   -0.3500    3.4060 cc        1 WDW     -0.109200
      5 C8          1.2820   -0.1290    2.3810 ca        1 WDW     -0.109800
      6 C15        -0.7820    0.0710    1.1660 ca        1 WDW     -0.109300
      7 C7          1.9990    0.2930    1.1990 ca        1 WDW     -0.035200
      8 C13         3.5180   -0.0780    2.8370 cd        1 WDW     -0.135300
      9 C4          7.6210   -2.8440    2.9800 c2        1 WDW     -0.153200
     10 C5          6.7190   -2.7530    1.9990 c2        1 WDW     -0.202200
     11 C16         4.8260   -0.1100    3.5340 c         1 WDW      0.680300
     12 C3          7.8200   -1.7540    3.9640 c3        1 WDW     -0.079200
     13 C6          5.8310   -1.5630    1.8060 c3        1 WDW      0.113200
     14 C2          7.2540   -0.4280    3.4480 c3        1 WDW      0.076000
     15 C17        -2.2580   -0.0280    1.0880 c3        1 WDW     -0.048800
     16 N9          3.3640    0.2820    1.4850 na        1 WDW     -0.176400
     17 N1          5.9540   -0.5240    2.8120 n         1 WDW     -0.458800
     18 O18         4.9200    0.3080    4.7040 o         1 WDW     -0.576100
     19 H1         -0.6340    0.7260   -0.8950 ha        1 WDW      0.131000
     20 H2          1.8510    0.9280   -0.8870 ha        1 WDW      0.134000
     21 H3         -0.6600   -0.5610    3.2390 ha        1 WDW      0.137000
     22 H4          2.0870   -0.6600    4.4310 ha        1 WDW      0.170000
     23 H6          6.5680   -3.5540    1.2610 ha        1 WDW      0.134000
     24 H7          8.9130   -1.6140    4.1740 hc        1 WDW      0.062700
     25 H8          7.3240   -2.0340    4.9320 hc        1 WDW      0.062700
     26 H9          4.7680   -1.9400    1.7590 h1        1 WDW      0.060700
     27 H10         6.0790   -1.0950    0.8060 h1        1 WDW      0.060700
     28 H11         7.1970    0.3050    4.3020 h1        1 WDW      0.066200
     29 H12         7.9590   -0.0140    2.6710 h1        1 WDW      0.066200
     30 H13        -2.5570   -0.7520    0.2890 hc        1 WDW      0.042033
     31 H14        -2.6950   -0.3730    2.0570 hc        1 WDW      0.042033
     32 H15        -2.7010    0.9680    0.8370 hc        1 WDW      0.042033
     33 H16         4.0740    0.6720    0.9240 hn        1 WDW      0.303700
     34 H5          8.2520   -3.7370    3.1070 ha        1 WDW      0.129000
@<TRIPOS>BOND
     1    1    2 ar  
     2    1    6 ar  
     3    1   19 1   
     4    2    7 ar  
     5    2   20 1   
     6    3    5 ar  
     7    3    6 ar  
     8    3   21 1   
     9    4    5 1   
    10    4    8 2   
    11    4   22 1   
    12    5    7 ar  
    13    6   15 1   
    14    7   16 1   
    15    8   11 1   
    16    8   16 1   
    17    9   10 2   
    18    9   12 1   
    19    9   34 1   
    20   10   13 1   
    21   10   23 1   
    22   11   17 1   
    23   11   18 2   
    24   12   14 1   
    25   12   24 1   
    26   12   25 1   
    27   13   17 1   
    28   13   26 1   
    29   13   27 1   
    30   14   17 1   
    31   14   28 1   
    32   14   29 1   
    33   15   30 1   
    34   15   31 1   
    35   15   32 1   
    36   16   33 1   
@<TRIPOS>SUBSTRUCTURE
     1 WDW         1 TEMP              0 ****  ****    0 ROOT
