@<TRIPOS>MOLECULE
WDW
   34    36     1     0     0
SMALL
bcc


@<TRIPOS>ATOM
      1 C14        -0.0730    0.4880    0.0290 ca        1 WDW     -0.101000
      2 C10         1.3040    0.6080    0.0210 ca        1 WDW     -0.147000
      3 C12        -0.1110   -0.2450    2.3500 ca        1 WDW     -0.072000
      4 C11         2.2740   -0.3570    3.4100 cc        1 WDW     -0.109200
      5 C8          1.2810   -0.1340    2.3870 ca        1 WDW     -0.109800
      6 C15        -0.7850    0.0660    1.1760 ca        1 WDW     -0.109300
      7 C7          1.9960    0.2930    1.2050 ca        1 WDW     -0.035200
      8 C13         3.5180   -0.0810    2.8390 cd        1 WDW     -0.135300
      9 C4          7.6280   -2.8380    2.9640 c2        1 WDW     -0.153200
     10 C5          6.7230   -2.7450    1.9850 c2        1 WDW     -0.202200
     11 C16         4.8270   -0.1120    3.5340 c         1 WDW      0.680300
     12 C3          7.8260   -1.7510    3.9510 c3        1 WDW     -0.079200
     13 C6          5.8320   -1.5560    1.7980 c3        1 WDW      0.113200
     14 C2          7.2560   -0.4240    3.4420 c3        1 WDW      0.076000
     15 C17        -2.2610   -0.0360    1.1000 c3        1 WDW     -0.048800
     16 N9          3.3610    0.2840    1.4890 na        1 WDW     -0.176400
     17 N1          5.9550   -0.5210    2.8080 n         1 WDW     -0.458800
     18 O18         4.9220    0.3010    4.7050 o         1 WDW     -0.576100
     19 H1         -0.6420    0.7290   -0.8820 ha        1 WDW      0.131000
     20 H2          1.8420    0.9370   -0.8780 ha        1 WDW      0.134000
     21 H3         -0.6580   -0.5740    3.2460 ha        1 WDW      0.137000
     22 H4          2.0910   -0.6720    4.4340 ha        1 WDW      0.170000
     23 H6          6.5720   -3.5430    1.2440 ha        1 WDW      0.134000
     24 H7          7.3320   -2.0360    4.9190 hc        1 WDW      0.062700
     25 H8          8.9190   -1.6090    4.1600 hc        1 WDW      0.062700
     26 H9          4.7700   -1.9350    1.7520 h1        1 WDW      0.060700
     27 H10         6.0770   -1.0840    0.8000 h1        1 WDW      0.060700
     28 H11         7.9580   -0.0060    2.6650 h1        1 WDW      0.066200
     29 H12         7.1990    0.3050    4.2990 h1        1 WDW      0.066200
     30 H13        -2.5600   -0.7600    0.3010 hc        1 WDW      0.042033
     31 H14        -2.6960   -0.3840    2.0690 hc        1 WDW      0.042033
     32 H15        -2.7070    0.9600    0.8520 hc        1 WDW      0.042033
     33 H16         4.0690    0.6780    0.9280 hn        1 WDW      0.303700
     34 H5          8.2610   -3.7300    3.0860 ha        1 WDW      0.129000
@<TRIPOS>BOND
     1    1    2 ar  
     2    1    6 ar  
     3    1   19 1   
     4    2    7 ar  
     5    2   20 1   
     6    3    5 ar  
     7    3    6 ar  
     8    3   21 1   
     9    4    5 1   
    10    4    8 2   
    11    4   22 1   
    12    5    7 ar  
    13    6   15 1   
    14    7   16 1   
    15    8   11 1   
    16    8   16 1   
    17    9   10 2   
    18    9   12 1   
    19    9   34 1   
    20   10   13 1   
    21   10   23 1   
    22   11   17 1   
    23   11   18 2   
    24   12   14 1   
    25   12   24 1   
    26   12   25 1   
    27   13   17 1   
    28   13   26 1   
    29   13   27 1   
    30   14   17 1   
    31   14   28 1   
    32   14   29 1   
    33   15   30 1   
    34   15   31 1   
    35   15   32 1   
    36   16   33 1   
@<TRIPOS>SUBSTRUCTURE
     1 WDW         1 TEMP              0 ****  ****    0 ROOT
