@<TRIPOS>MOLECULE
WDX
   43    45     1     0     0
SMALL
bcc


@<TRIPOS>ATOM
      1 C14        -0.1620    0.6970    0.1550 ca        1 WDX     -0.102000
      2 C10         1.2050    0.9080    0.1520 ca        1 WDX     -0.146000
      3 C12        -0.0980   -0.4330    2.3110 ca        1 WDX     -0.073000
      4 C11         2.3130   -0.5690    3.3050 cc        1 WDX     -0.117200
      5 C8          1.2840   -0.2370    2.3500 ca        1 WDX     -0.107800
      6 C15        -0.8180    0.0340    1.2180 ca        1 WDX     -0.108300
      7 C7          1.9420    0.4380    1.2530 ca        1 WDX     -0.037200
      8 C13         3.5230   -0.1150    2.7770 cd        1 WDX     -0.131300
      9 C16         4.8510   -0.1740    3.4340 c         1 WDX      0.674300
     10 C3          7.8470   -1.7760    3.7270 c3        1 WDX     -0.103400
     11 C5          6.3950   -2.9080    2.0530 c3        1 WDX     -0.103400
     12 C2          7.2800   -0.4350    3.2620 c3        1 WDX      0.072000
     13 C6          5.8550   -1.5400    1.6320 c3        1 WDX      0.072000
     14 C4          7.8090   -2.8010    2.6050 c3        1 WDX     -0.063700
     15 C17        -2.2860   -0.1520    1.1430 c3        1 WDX     -0.048800
     16 C19         8.2840   -4.1650    3.0750 c3        1 WDX     -0.081400
     17 C20         9.7850   -4.1830    3.3130 c3        1 WDX      0.132400
     18 N9          3.3110    0.4720    1.5160 na        1 WDX     -0.175400
     19 N1          5.9660   -0.5080    2.6450 n         1 WDX     -0.448800
     20 O18         4.9720    0.1600    4.6270 o         1 WDX     -0.570100
     21 O21        10.1360   -5.5230    3.6240 oh        1 WDX     -0.601800
     22 H1         -0.7660    1.0550   -0.6930 ha        1 WDX      0.131000
     23 H2          1.7000    1.4250   -0.6810 ha        1 WDX      0.134000
     24 H3         -0.6020   -0.9490    3.1410 ha        1 WDX      0.137000
     25 H4          2.1730   -1.0690    4.2600 ha        1 WDX      0.168000
     26 H5          7.2620   -2.1530    4.6060 hc        1 WDX      0.054200
     27 H6          8.9030   -1.6140    4.0640 hc        1 WDX      0.054200
     28 H7          5.7240   -3.3640    2.8280 hc        1 WDX      0.054200
     29 H8          6.3850   -3.5800    1.1560 hc        1 WDX      0.054200
     30 H9          7.9710    0.0010    2.4840 h1        1 WDX      0.061450
     31 H10         7.2400    0.2710    4.1390 h1        1 WDX      0.061450
     32 H11         6.4440   -1.1800    0.7390 h1        1 WDX      0.061450
     33 H12         4.7830   -1.6690    1.3170 h1        1 WDX      0.061450
     34 H13         8.4860   -2.4460    1.7760 hc        1 WDX      0.047700
     35 H14        -2.6740   -0.6960    2.0380 hc        1 WDX      0.042033
     36 H15        -2.5570   -0.7390    0.2300 hc        1 WDX      0.042033
     37 H16        -2.8000    0.8400    1.0840 hc        1 WDX      0.042033
     38 H17         8.0330   -4.9400    2.3040 hc        1 WDX      0.058200
     39 H18         7.7560   -4.4540    4.0210 hc        1 WDX      0.058200
     40 H19        10.3370   -3.8490    2.3930 h1        1 WDX      0.020700
     41 H20        10.0620   -3.5070    4.1660 h1        1 WDX      0.020700
     42 H21         3.9810    1.0000    1.0220 hn        1 WDX      0.304700
     43 H22        11.0820   -5.5240    3.8060 ho        1 WDX      0.400000
@<TRIPOS>BOND
     1    1    2 ar  
     2    1    6 ar  
     3    1   22 1   
     4    2    7 ar  
     5    2   23 1   
     6    3    5 ar  
     7    3    6 ar  
     8    3   24 1   
     9    4    5 1   
    10    4    8 2   
    11    4   25 1   
    12    5    7 ar  
    13    6   15 1   
    14    7   18 1   
    15    8    9 1   
    16    8   18 1   
    17    9   19 1   
    18    9   20 2   
    19   10   12 1   
    20   10   14 1   
    21   10   26 1   
    22   10   27 1   
    23   11   13 1   
    24   11   14 1   
    25   11   28 1   
    26   11   29 1   
    27   12   19 1   
    28   12   30 1   
    29   12   31 1   
    30   13   19 1   
    31   13   32 1   
    32   13   33 1   
    33   14   16 1   
    34   14   34 1   
    35   15   35 1   
    36   15   36 1   
    37   15   37 1   
    38   16   17 1   
    39   16   38 1   
    40   16   39 1   
    41   17   21 1   
    42   17   40 1   
    43   17   41 1   
    44   18   42 1   
    45   21   43 1   
@<TRIPOS>SUBSTRUCTURE
     1 WDX         1 TEMP              0 ****  ****    0 ROOT
