@<TRIPOS>MOLECULE
WDX
   43    45     1     0     0
SMALL
bcc


@<TRIPOS>ATOM
      1 C14        -0.1660    0.6610    0.1300 ca        1 WDX     -0.102000
      2 C10         1.2030    0.8590    0.1050 ca        1 WDX     -0.146000
      3 C12        -0.0890   -0.3900    2.3250 ca        1 WDX     -0.073000
      4 C11         2.3310   -0.5130    3.2990 cc        1 WDX     -0.117200
      5 C8          1.2950   -0.2060    2.3420 ca        1 WDX     -0.107800
      6 C15        -0.8170    0.0430    1.2230 ca        1 WDX     -0.108300
      7 C7          1.9470    0.4230    1.2150 ca        1 WDX     -0.037200
      8 C13         3.5390   -0.0890    2.7420 cd        1 WDX     -0.131300
      9 C16         4.8740   -0.1360    3.3860 c         1 WDX      0.674300
     10 C3          7.8580   -1.7550    3.7060 c3        1 WDX     -0.103400
     11 C5          6.3780   -2.9340    2.0910 c3        1 WDX     -0.103400
     12 C2          7.2980   -0.4270    3.1980 c3        1 WDX      0.072000
     13 C6          5.8450   -1.5770    1.6260 c3        1 WDX      0.072000
     14 C4          7.7990   -2.8210    2.6230 c3        1 WDX     -0.063700
     15 C17        -2.2870   -0.1320    1.1700 c3        1 WDX     -0.048800
     16 C19         8.2670   -4.1700    3.1380 c3        1 WDX     -0.081400
     17 C20         9.7700   -4.1940    3.3590 c3        1 WDX      0.132400
     18 N9          3.3190    0.4530    1.4620 na        1 WDX     -0.175400
     19 N1          5.9770   -0.5100    2.5990 n         1 WDX     -0.448800
     20 O18         5.0110    0.2400    4.5650 o         1 WDX     -0.570100
     21 O21        10.1120   -5.5240    3.7160 oh        1 WDX     -0.601800
     22 H1         -0.7760    0.9940   -0.7240 ha        1 WDX      0.131000
     23 H2          1.6930    1.3410   -0.7510 ha        1 WDX      0.134000
     24 H3         -0.5890   -0.8710    3.1780 ha        1 WDX      0.137000
     25 H4          2.1960   -0.9770    4.2720 ha        1 WDX      0.168000
     26 H5          8.9190   -1.5910    4.0260 hc        1 WDX      0.054200
     27 H6          7.2800   -2.0940    4.6050 hc        1 WDX      0.054200
     28 H7          6.3520   -3.6380    1.2200 hc        1 WDX      0.054200
     29 H8          5.7120   -3.3550    2.8890 hc        1 WDX      0.054200
     30 H9          7.9840   -0.0260    2.3980 h1        1 WDX      0.061450
     31 H10         7.2740    0.3100    4.0490 h1        1 WDX      0.061450
     32 H11         4.7690   -1.7080    1.3270 h1        1 WDX      0.061450
     33 H12         6.4270   -1.2560    0.7140 h1        1 WDX      0.061450
     34 H13         8.4690   -2.5020    1.7740 hc        1 WDX      0.047700
     35 H14        -2.6700   -0.6400    2.0880 hc        1 WDX      0.042033
     36 H15        -2.5730   -0.7490    0.2810 hc        1 WDX      0.042033
     37 H16        -2.7930    0.8620    1.0800 hc        1 WDX      0.042033
     38 H17         7.7470   -4.4200    4.0990 hc        1 WDX      0.058200
     39 H18         8.0000   -4.9710    2.3980 hc        1 WDX      0.058200
     40 H19        10.0630   -3.4890    4.1840 h1        1 WDX      0.020700
     41 H20        10.3150   -3.9000    2.4220 h1        1 WDX      0.020700
     42 H21         3.9880    0.9570    0.9430 hn        1 WDX      0.304700
     43 H22        11.0610   -5.5280    3.8870 ho        1 WDX      0.400000
@<TRIPOS>BOND
     1    1    2 ar  
     2    1    6 ar  
     3    1   22 1   
     4    2    7 ar  
     5    2   23 1   
     6    3    5 ar  
     7    3    6 ar  
     8    3   24 1   
     9    4    5 1   
    10    4    8 2   
    11    4   25 1   
    12    5    7 ar  
    13    6   15 1   
    14    7   18 1   
    15    8    9 1   
    16    8   18 1   
    17    9   19 1   
    18    9   20 2   
    19   10   12 1   
    20   10   14 1   
    21   10   26 1   
    22   10   27 1   
    23   11   13 1   
    24   11   14 1   
    25   11   28 1   
    26   11   29 1   
    27   12   19 1   
    28   12   30 1   
    29   12   31 1   
    30   13   19 1   
    31   13   32 1   
    32   13   33 1   
    33   14   16 1   
    34   14   34 1   
    35   15   35 1   
    36   15   36 1   
    37   15   37 1   
    38   16   17 1   
    39   16   38 1   
    40   16   39 1   
    41   17   21 1   
    42   17   40 1   
    43   17   41 1   
    44   18   42 1   
    45   21   43 1   
@<TRIPOS>SUBSTRUCTURE
     1 WDX         1 TEMP              0 ****  ****    0 ROOT
