@<TRIPOS>MOLECULE
WEF
   48    51     1     0     0
SMALL
bcc


@<TRIPOS>ATOM
      1 O01         0.9070   -2.7550   -0.4320 o         1 WEF     -0.539300
      2 C02         1.9880   -2.1860   -0.5950 c2        1 WEF      0.631300
      3 N03         2.8840   -2.2570    0.6340 n4        1 WEF     -0.667800
      4 C04         2.9320   -0.9670    1.3960 c3        1 WEF     -0.005500
      5 C05         3.2090   -1.1950    2.8850 c3        1 WEF     -0.046100
      6 C06         2.1870   -2.0630    3.5240 ca        1 WEF     -0.163300
      7 C07         2.4750   -3.4050    3.8090 ca        1 WEF     -0.092000
      8 C08         1.5310   -4.2240    4.4150 ca        1 WEF     -0.178500
      9 C09         0.2740   -3.6880    4.7450 ca        1 WEF      0.139100
     10 O10        -0.6200   -4.5460    5.3380 oh        1 WEF     -0.490100
     11 C11        -0.0260   -2.3450    4.4740 ca        1 WEF     -0.178500
     12 C12         0.9340   -1.5420    3.8670 ca        1 WEF     -0.092000
     13 C13         4.0280   -0.0100    0.8320 c         1 WEF      0.747600
     14 O14         4.7200   -0.4560   -0.1670 os        1 WEF     -0.442900
     15 O15         4.1790    1.0980    1.3600 o         1 WEF     -0.653500
     16 C16         2.5180   -1.5320   -1.7370 ce        1 WEF     -0.319900
     17 C17         1.7980   -1.5170   -2.9860 ce        1 WEF      0.499600
     18 C18         0.4770   -2.1670   -3.1530 c3        1 WEF     -0.129400
     19 N19         2.4220   -0.8500   -3.9890 nf        1 WEF     -0.568300
     20 C20         3.6190   -0.3540   -3.5220 cf        1 WEF     -0.235600
     21 C21         4.5030    0.4350   -4.3690 ca        1 WEF     -0.003800
     22 C22         4.3860    0.4320   -5.7660 ca        1 WEF     -0.110500
     23 C23         6.3880    1.9550   -4.5400 ca        1 WEF     -0.087000
     24 C24         6.2660    1.9380   -5.9310 ca        1 WEF     -0.161300
     25 C25         7.2390    2.7410   -6.7850 c3        1 WEF      0.687200
     26 F26         8.3700    2.0490   -7.1500 f         1 WEF     -0.237633
     27 F27         7.7250    3.8780   -6.1860 f         1 WEF     -0.237633
     28 F28         6.7230    3.1860   -7.9780 f         1 WEF     -0.237633
     29 C29         5.2670    1.1810   -6.5450 ca        1 WEF     -0.087000
     30 C30         5.5100    1.2060   -3.7620 ca        1 WEF     -0.110500
     31 S31         3.9510   -0.6750   -1.9220 sx        1 WEF      0.349100
     32 H1          2.5350   -2.9970    1.2560 hn        1 WEF      0.453800
     33 H2          1.9270   -0.4660    1.2780 hx        1 WEF      0.108700
     34 H3          4.2370   -1.6260    3.0200 hc        1 WEF      0.091200
     35 H4          3.2170   -0.1730    3.3610 hc        1 WEF      0.091200
     36 H5          3.4700   -3.8140    3.5730 ha        1 WEF      0.138000
     37 H6          1.7490   -5.2770    4.6470 ha        1 WEF      0.150500
     38 H7         -1.4340   -4.0540    5.5230 ho        1 WEF      0.426000
     39 H8         -1.0090   -1.9300    4.7410 ha        1 WEF      0.150500
     40 H9          0.7090   -0.4830    3.6590 ha        1 WEF      0.138000
     41 H11         0.0920   -2.0740   -4.1980 hc        1 WEF      0.065033
     42 H12         0.5610   -3.2520   -2.8890 hc        1 WEF      0.065033
     43 H13        -0.2570   -1.6980   -2.4500 hc        1 WEF      0.065033
     44 H14         3.5980   -0.1610   -6.2570 ha        1 WEF      0.159000
     45 H15         7.1730    2.5630   -4.0630 ha        1 WEF      0.153500
     46 H16         5.1730    1.1820   -7.6430 ha        1 WEF      0.153500
     47 H17         5.6050    1.2240   -2.6630 ha        1 WEF      0.159000
     48 H032        3.8440   -2.4750    0.3330 hn        1 WEF      0.453800
@<TRIPOS>BOND
     1    1    2 1   
     2    2    3 1   
     3    2   16 2   
     4    3    4 1   
     5    3   32 1   
     6    3   48 1   
     7    4    5 1   
     8    4   13 1   
     9    4   33 1   
    10    5    6 1   
    11    5   34 1   
    12    5   35 1   
    13    6    7 ar  
    14    6   12 ar  
    15    7    8 ar  
    16    7   36 1   
    17    8    9 ar  
    18    8   37 1   
    19    9   10 1   
    20    9   11 ar  
    21   10   38 1   
    22   11   12 ar  
    23   11   39 1   
    24   12   40 1   
    25   13   14 1   
    26   13   15 2   
    27   14   31 1   
    28   16   17 1   
    29   16   31 1   
    30   17   18 1   
    31   17   19 2   
    32   18   41 1   
    33   18   42 1   
    34   18   43 1   
    35   19   20 1   
    36   20   21 1   
    37   20   31 2   
    38   21   22 ar  
    39   21   30 ar  
    40   22   29 ar  
    41   22   44 1   
    42   23   24 ar  
    43   23   30 ar  
    44   23   45 1   
    45   24   25 1   
    46   24   29 ar  
    47   25   26 1   
    48   25   27 1   
    49   25   28 1   
    50   29   46 1   
    51   30   47 1   
@<TRIPOS>SUBSTRUCTURE
     1 WEF         1 TEMP              0 ****  ****    0 ROOT
