@<TRIPOS>MOLECULE
WEF
   48    51     1     0     0
SMALL
bcc


@<TRIPOS>ATOM
      1 O01         0.9930   -2.8040   -0.4040 o         1 WEF     -0.539300
      2 C02         2.0550   -2.2020   -0.5660 c2        1 WEF      0.631300
      3 N03         2.9390   -2.2160    0.6740 ny        1 WEF     -0.667800
      4 C04         2.9330   -0.9090    1.4080 c3        1 WEF     -0.005500
      5 C05         3.1990   -1.0960    2.9050 c3        1 WEF     -0.046100
      6 C06         2.1980   -1.9840    3.5500 ca        1 WEF     -0.163300
      7 C07         2.5270   -3.3090    3.8680 ca        1 WEF     -0.092000
      8 C08         1.6030   -4.1460    4.4810 ca        1 WEF     -0.178500
      9 C09         0.3240   -3.6450    4.7830 ca        1 WEF      0.139100
     10 O10        -0.5480   -4.5190    5.3840 oh        1 WEF     -0.490100
     11 C11        -0.0170   -2.3190    4.4790 ca        1 WEF     -0.178500
     12 C12         0.9240   -1.4970    3.8660 ca        1 WEF     -0.092000
     13 C13         4.0050    0.0720    0.8370 c         1 WEF      0.747600
     14 O14         4.1130    1.1940    1.3430 o         1 WEF     -0.653500
     15 O15         4.7220   -0.3720   -0.1450 os        1 WEF     -0.442900
     16 C16         2.5770   -1.5540   -1.7170 ce        1 WEF     -0.319900
     17 C17         1.8720   -1.5900   -2.9730 ce        1 WEF      0.499600
     18 C18         0.5770   -2.2880   -3.1420 c3        1 WEF     -0.129400
     19 N19         2.4860   -0.9240   -3.9830 nf        1 WEF     -0.568300
     20 C20         3.6600   -0.3780   -3.5140 cf        1 WEF     -0.235600
     21 C21         4.5270    0.4230   -4.3670 ca        1 WEF     -0.003800
     22 C22         5.5000    1.2410   -3.7650 ca        1 WEF     -0.110500
     23 C23         6.3610    2.0020   -4.5480 ca        1 WEF     -0.087000
     24 C24         6.2560    1.9540   -5.9410 ca        1 WEF     -0.161300
     25 C25         7.2120    2.7710   -6.8000 c3        1 WEF      0.687200
     26 F26         8.3690    2.1100   -7.1390 f         1 WEF     -0.237633
     27 F27         6.6940    3.1740   -8.0080 f         1 WEF     -0.237633
     28 F28         7.6520    3.9360   -6.2190 f         1 WEF     -0.237633
     29 C29         5.2910    1.1510   -6.5490 ca        1 WEF     -0.087000
     30 C30         4.4260    0.3880   -5.7650 ca        1 WEF     -0.110500
     31 S31         3.9830   -0.6530   -1.9030 sx        1 WEF      0.349100
     32 H1          2.6070   -2.9540    1.3080 hn        1 WEF      0.453800
     33 H2          1.9140   -0.4450    1.2670 hx        1 WEF      0.108700
     34 H3          4.2390   -1.4900    3.0620 hc        1 WEF      0.091200
     35 H4          3.1670   -0.0650    3.3580 hc        1 WEF      0.091200
     36 H5          3.5380   -3.6890    3.6540 ha        1 WEF      0.138000
     37 H6          1.8530   -5.1850    4.7390 ha        1 WEF      0.150500
     38 H7         -1.3800   -4.0510    5.5480 ho        1 WEF      0.426000
     39 H8         -1.0160   -1.9320    4.7240 ha        1 WEF      0.150500
     40 H9          0.6660   -0.4520    3.6320 ha        1 WEF      0.138000
     41 H11        -0.1820   -1.8310   -2.4570 hc        1 WEF      0.065033
     42 H12         0.2010   -2.2300   -4.1920 hc        1 WEF      0.065033
     43 H13         0.6940   -3.3640   -2.8540 hc        1 WEF      0.065033
     44 H14         5.5820    1.2840   -2.6650 ha        1 WEF      0.159000
     45 H15         7.1200    2.6470   -4.0750 ha        1 WEF      0.153500
     46 H16         5.2090    1.1260   -7.6480 ha        1 WEF      0.153500
     47 H17         3.6640   -0.2410   -6.2520 ha        1 WEF      0.159000
     48 H032        3.9090   -2.4080    0.3890 hn        1 WEF      0.453800
@<TRIPOS>BOND
     1    1    2 1   
     2    2    3 1   
     3    2   16 2   
     4    3    4 1   
     5    3   32 1   
     6    3   48 1   
     7    4    5 1   
     8    4   13 1   
     9    4   33 1   
    10    5    6 1   
    11    5   34 1   
    12    5   35 1   
    13    6    7 ar  
    14    6   12 ar  
    15    7    8 ar  
    16    7   36 1   
    17    8    9 ar  
    18    8   37 1   
    19    9   10 1   
    20    9   11 ar  
    21   10   38 1   
    22   11   12 ar  
    23   11   39 1   
    24   12   40 1   
    25   13   14 2   
    26   13   15 1   
    27   15   31 1   
    28   16   17 1   
    29   16   31 1   
    30   17   18 1   
    31   17   19 2   
    32   18   41 1   
    33   18   42 1   
    34   18   43 1   
    35   19   20 1   
    36   20   21 1   
    37   20   31 2   
    38   21   22 ar  
    39   21   30 ar  
    40   22   23 ar  
    41   22   44 1   
    42   23   24 ar  
    43   23   45 1   
    44   24   25 1   
    45   24   29 ar  
    46   25   26 1   
    47   25   27 1   
    48   25   28 1   
    49   29   30 ar  
    50   29   46 1   
    51   30   47 1   
@<TRIPOS>SUBSTRUCTURE
     1 WEF         1 TEMP              0 ****  ****    0 ROOT
