@<TRIPOS>MOLECULE
WF3
   50    46     1     0     0
SMALL
bcc


@<TRIPOS>ATOM
      1 C1         -4.4240   -2.6650   -2.6190 c3        1 WF3     -0.065000
      2 O2         -3.0370   -2.8710   -2.7680 os        1 WF3     -0.264000
      3 C3         -2.2860   -2.5360   -1.6280 c2        1 WF3      0.368000
      4 O4         -2.7530   -1.7900   -0.7910 o         1 WF3     -0.351000
      5 C5         -0.9130   -3.1360   -1.4250 c2        1 WF3     -0.162000
      6 C6         -0.7550   -4.1940   -0.6060 c1        1 WF3      0.042000
      7 O7         -1.8660   -4.7400    0.0580 o         1 WF3     -0.206000
      8 C8         -1.8520   -6.1490    0.1310 c3        1 WF3     -0.079000
      9 C9          0.2830   -2.5490   -2.1400 c2        1 WF3     -0.037000
     10 C10         0.8690   -3.2390   -3.1900 c1        1 WF3     -0.112000
     11 C11         2.0020   -2.7300   -3.8060 c1        1 WF3     -0.126000
     12 C12         2.5490   -1.5320   -3.3720 c1        1 WF3     -0.126000
     13 C13         1.9630   -0.8420   -2.3220 c1        1 WF3     -0.112000
     14 C14         0.8300   -1.3490   -1.7060 c2        1 WF3     -0.062000
     15 C15         0.2250   -0.6250   -0.5150 c3        1 WF3      0.016000
     16 O16         1.1940    0.2340    0.0560 os        1 WF3     -0.191000
     17 C17         0.6680    1.4560    0.5270 c2        1 WF3      0.137000
     18 C18         0.4700    2.6860   -0.0950 c2        1 WF3     -0.129000
     19 C19         0.1030    3.4430   -1.3530 c3        1 WF3      0.494000
     20 F20        -1.0250    4.1350   -1.1460 f         1 WF3     -0.152333
     21 F21         1.0930    4.2890   -1.6700 f         1 WF3     -0.152333
     22 F22        -0.0820    2.5770   -2.3580 f         1 WF3     -0.152333
     23 N23         0.5920    3.8250    0.6110 n1        1 WF3     -0.031000
     24 C24         0.9110    3.7750    1.9370 c1        1 WF3     -0.077000
     25 C25         1.0390    4.9690    2.6780 c2        1 WF3     -0.074000
     26 C26         1.3640    4.9170    4.0280 c1        1 WF3     -0.076000
     27 C27         1.2990    6.0770    5.0010 c2        1 WF3     -0.182000
     28 C28         1.5620    3.6870    4.6510 c2        1 WF3     -0.098000
     29 C29         1.4350    2.5100    3.9210 c1        1 WF3     -0.111000
     30 C30         1.1060    2.5610    2.5520 c1        1 WF3      0.020000
     31 N31         0.9820    1.4060    1.8340 n2        1 WF3     -0.173000
     32 H1         -4.8830   -2.9150   -3.4490 h1        1 WF3      0.089333
     33 H1A        -4.5940   -1.7180   -2.4230 h1        1 WF3      0.089333
     34 H1B        -4.7590   -3.2170   -1.8800 h1        1 WF3      0.089333
     35 H6          0.1310   -4.5820   -0.4750 ha        1 WF3      0.148000
     36 H8         -2.6750   -6.4620    0.5650 h1        1 WF3      0.088667
     37 H8A        -1.7980   -6.5230   -0.7750 h1        1 WF3      0.088667
     38 H8B        -1.0750   -6.4420    0.6530 h1        1 WF3      0.088667
     39 H10         0.4840   -4.0820   -3.4950 ha        1 WF3      0.141000
     40 H11         2.4150   -3.2160   -4.5460 ha        1 WF3      0.136000
     41 H12         3.3470   -1.1750   -3.8070 ha        1 WF3      0.136000
     42 H13         2.3480    0.0010   -2.0170 ha        1 WF3      0.161000
     43 H15        -0.5450   -0.0980   -0.8110 h1        1 WF3      0.123500
     44 H15A       -0.0640   -1.2810    0.1530 h1        1 WF3      0.123500
     45 H25         0.9060    5.8320    2.2410 ha        1 WF3      0.157000
     46 H27         1.9720    5.9530    5.7020 ha        1 WF3      0.089000
     47 H27A        0.4070    6.1130    5.4070 ha        1 WF3      0.089000
     48 H27B        1.4750    6.9150    4.5220 ha        1 WF3      0.089000
     49 H28         1.7900    3.6510    5.5990 ha        1 WF3      0.141000
     50 H29         1.5740    1.6490    4.3580 ha        1 WF3      0.158000
@<TRIPOS>BOND
     1    1    2 1   
     2    1   32 1   
     3    1   33 1   
     4    1   34 1   
     5    2    3 1   
     6    3    4 1   
     7    3    5 1   
     8    5    6 1   
     9    5    9 1   
    10    6   35 1   
    11    7    8 1   
    12    8   36 1   
    13    8   37 1   
    14    8   38 1   
    15    9   10 1   
    16    9   14 1   
    17   10   39 1   
    18   11   12 1   
    19   11   40 1   
    20   12   41 1   
    21   13   14 1   
    22   13   42 1   
    23   14   15 1   
    24   15   16 1   
    25   15   43 1   
    26   15   44 1   
    27   16   17 1   
    28   17   18 1   
    29   17   31 1   
    30   18   19 1   
    31   18   23 1   
    32   19   20 1   
    33   19   21 1   
    34   19   22 1   
    35   24   25 1   
    36   24   30 1   
    37   25   26 1   
    38   25   45 1   
    39   26   28 1   
    40   27   46 1   
    41   27   47 1   
    42   27   48 1   
    43   28   29 1   
    44   28   49 1   
    45   29   50 1   
    46   30   31 1   
@<TRIPOS>SUBSTRUCTURE
     1 WF3         1 TEMP              0 ****  ****    0 ROOT
