@<TRIPOS>MOLECULE
WF3
   50    52     1     0     0
SMALL
bcc


@<TRIPOS>ATOM
      1 C1          0.1770   -0.4970    0.0930 c3        1 WF3      0.125700
      2 O2          1.5950   -0.3160    0.0730 os        1 WF3     -0.416900
      3 C3          2.2240   -0.3240    1.2880 c         1 WF3      0.647300
      4 O4          1.5240   -0.4860    2.2970 o         1 WF3     -0.571000
      5 C5          3.6800   -0.1290    1.2410 ce        1 WF3     -0.187400
      6 C6          4.3230   -0.1220    2.4380 c2        1 WF3      0.107100
      7 O7          5.6780    0.0700    2.4860 os        1 WF3     -0.311900
      8 C8          6.2320    0.0020    3.8030 c3        1 WF3      0.105700
      9 C9          4.3430    0.0100   -0.0560 ca        1 WF3     -0.015800
     10 C10         4.5070   -1.1270   -0.8590 ca        1 WF3     -0.105000
     11 C11         5.1360   -1.0340   -2.0990 ca        1 WF3     -0.128000
     12 C12         5.6060    0.1970   -2.5510 ca        1 WF3     -0.124000
     13 C13         5.4420    1.3360   -1.7650 ca        1 WF3     -0.109000
     14 C14         4.8160    1.2520   -0.5180 ca        1 WF3     -0.076300
     15 C15         4.6160    2.4610    0.3350 c3        1 WF3      0.186700
     16 O16         5.4950    3.5020   -0.1540 os        1 WF3     -0.429100
     17 C17         5.4710    4.6960    0.5140 ca        1 WF3      0.569300
     18 C18         6.3930    5.7050   -0.0110 ca        1 WF3      0.228300
     19 C19         7.2870    5.3480   -1.2150 c3        1 WF3      0.613600
     20 F20         7.7330    6.4130   -1.9530 f         1 WF3     -0.222967
     21 F21         8.4250    4.6760   -0.8510 f         1 WF3     -0.222967
     22 F22         6.6720    4.5410   -2.1370 f         1 WF3     -0.222967
     23 N23         6.4940    6.8990    0.5430 nb        1 WF3     -0.556000
     24 C24         5.6850    7.1740    1.6310 ca        1 WF3      0.250300
     25 C25         5.7520    8.4540    2.2610 ca        1 WF3     -0.138300
     26 C26         4.9500    8.7400    3.3420 ca        1 WF3     -0.083300
     27 C27         5.0020   10.0610    4.0100 c3        1 WF3     -0.056800
     28 C28         4.0480    7.7600    3.8370 ca        1 WF3     -0.097000
     29 C29         3.9540    6.5190    3.2620 ca        1 WF3     -0.178300
     30 C30         4.7710    6.1830    2.1390 ca        1 WF3      0.347300
     31 N31         4.6790    4.9320    1.5630 nb        1 WF3     -0.708000
     32 H1         -0.3040    0.3240    0.6770 h1        1 WF3      0.051367
     33 H1A        -0.1050   -0.4540   -0.9870 h1        1 WF3      0.051367
     34 H1B        -0.0750   -1.4860    0.5450 h1        1 WF3      0.051367
     35 H6          3.7870   -0.2610    3.3950 h4        1 WF3      0.162000
     36 H8          7.3230    0.1860    3.6350 h1        1 WF3      0.053033
     37 H8A         6.0620   -1.0100    4.2430 h1        1 WF3      0.053033
     38 H8B         5.7890    0.7940    4.4530 h1        1 WF3      0.053033
     39 H10         4.1270   -2.0960   -0.5060 ha        1 WF3      0.135000
     40 H11         5.2610   -1.9350   -2.7180 ha        1 WF3      0.132000
     41 H12         6.1040    0.2750   -3.5290 ha        1 WF3      0.134000
     42 H13         5.8140    2.3110   -2.1220 ha        1 WF3      0.156000
     43 H15         4.8810    2.2370    1.4040 h1        1 WF3      0.070200
     44 H15A        3.5550    2.8210    0.2640 h1        1 WF3      0.070200
     45 H25         6.4550    9.2060    1.8660 ha        1 WF3      0.158000
     46 H27         4.0000   10.5570    3.9620 hc        1 WF3      0.050367
     47 H27A        5.2800    9.9380    5.0860 hc        1 WF3      0.050367
     48 H27B        5.7530   10.7330    3.5260 hc        1 WF3      0.050367
     49 H28         3.4170    8.0170    4.7020 ha        1 WF3      0.142000
     50 H29         3.2500    5.7670    3.6530 ha        1 WF3      0.156000
@<TRIPOS>BOND
     1    1    2 1   
     2    1   32 1   
     3    1   33 1   
     4    1   34 1   
     5    2    3 1   
     6    3    4 2   
     7    3    5 1   
     8    5    6 2   
     9    5    9 1   
    10    6    7 1   
    11    6   35 1   
    12    7    8 1   
    13    8   36 1   
    14    8   37 1   
    15    8   38 1   
    16    9   10 ar  
    17    9   14 ar  
    18   10   11 ar  
    19   10   39 1   
    20   11   12 ar  
    21   11   40 1   
    22   12   13 ar  
    23   12   41 1   
    24   13   14 ar  
    25   13   42 1   
    26   14   15 1   
    27   15   16 1   
    28   15   43 1   
    29   15   44 1   
    30   16   17 1   
    31   17   18 ar  
    32   17   31 ar  
    33   18   19 1   
    34   18   23 ar  
    35   19   20 1   
    36   19   21 1   
    37   19   22 1   
    38   23   24 ar  
    39   24   25 ar  
    40   24   30 ar  
    41   25   26 ar  
    42   25   45 1   
    43   26   27 1   
    44   26   28 ar  
    45   27   46 1   
    46   27   47 1   
    47   27   48 1   
    48   28   29 ar  
    49   28   49 1   
    50   29   30 ar  
    51   29   50 1   
    52   30   31 ar  
@<TRIPOS>SUBSTRUCTURE
     1 WF3         1 TEMP              0 ****  ****    0 ROOT
