@<TRIPOS>MOLECULE
WF3
   50    52     1     0     0
SMALL
bcc


@<TRIPOS>ATOM
      1 C1          5.0460    2.0720    2.8570 c3        1 WF3      0.125700
      2 O2          4.4900    1.2650    1.8170 os        1 WF3     -0.416900
      3 C3          4.1580    1.9130    0.6590 c         1 WF3      0.647300
      4 O4          4.3640    3.1330    0.6040 o         1 WF3     -0.571000
      5 C5          3.5820    1.0620   -0.3920 ce        1 WF3     -0.187400
      6 C6          3.2350    1.6880   -1.5460 c2        1 WF3      0.107100
      7 O7          2.6750    0.9730   -2.5710 os        1 WF3     -0.311900
      8 C8          2.4060    1.7450   -3.7450 c3        1 WF3      0.105700
      9 C9          3.4480   -0.3760   -0.1570 ca        1 WF3     -0.015800
     10 C10         4.5970   -1.1780   -0.1900 ca        1 WF3     -0.105000
     11 C11         4.5090   -2.5520    0.0250 ca        1 WF3     -0.128000
     12 C12         3.2710   -3.1380    0.2800 ca        1 WF3     -0.124000
     13 C13         2.1220   -2.3500    0.3230 ca        1 WF3     -0.109000
     14 C14         2.2000   -0.9720    0.1030 ca        1 WF3     -0.076300
     15 C15         0.9860   -0.1050    0.1600 c3        1 WF3      0.186700
     16 O16        -0.1770   -0.9610    0.0550 os        1 WF3     -0.429100
     17 C17        -1.4000   -0.3460    0.0710 ca        1 WF3      0.569300
     18 C18        -2.5390   -1.2570   -0.0570 ca        1 WF3      0.228300
     19 C19        -2.2760   -2.7690   -0.2070 c3        1 WF3      0.613600
     20 F20        -3.3100   -3.5860    0.1680 f         1 WF3     -0.222967
     21 F21        -1.9950   -3.1340   -1.4990 f         1 WF3     -0.222967
     22 F22        -1.2130   -3.2180    0.5330 f         1 WF3     -0.222967
     23 N23        -3.7800   -0.8080   -0.0770 nb        1 WF3     -0.556000
     24 C24        -3.9720    0.5570    0.0450 ca        1 WF3      0.250300
     25 C25        -5.2960    1.0910    0.0370 ca        1 WF3     -0.138300
     26 C26        -5.4990    2.4470    0.1610 ca        1 WF3     -0.083300
     27 C27        -6.8640    3.0230    0.1570 c3        1 WF3     -0.056800
     28 C28        -4.3890    3.3220    0.2990 ca        1 WF3     -0.097000
     29 C29        -3.1020    2.8500    0.3100 ca        1 WF3     -0.178300
     30 C30        -2.8500    1.4490    0.1820 ca        1 WF3      0.347300
     31 N31        -1.5530    0.9740    0.1890 nb        1 WF3     -0.708000
     32 H1          4.3160    2.8590    3.1620 h1        1 WF3      0.051367
     33 H1A         5.2310    1.3410    3.6830 h1        1 WF3      0.051367
     34 H1B         5.9950    2.5450    2.5070 h1        1 WF3      0.051367
     35 H6          3.3800    2.7740   -1.6940 h4        1 WF3      0.162000
     36 H8          1.6830    2.5640   -3.5150 h1        1 WF3      0.053033
     37 H8A         3.3550    2.1630   -4.1600 h1        1 WF3      0.053033
     38 H8B         1.9570    1.0000   -4.4490 h1        1 WF3      0.053033
     39 H10         5.5750   -0.7120   -0.3810 ha        1 WF3      0.135000
     40 H11         5.4180   -3.1700   -0.0060 ha        1 WF3      0.132000
     41 H12         3.1970   -4.2230    0.4500 ha        1 WF3      0.134000
     42 H13         1.1420   -2.8140    0.5240 ha        1 WF3      0.156000
     43 H15         0.9420    0.4460    1.1370 h1        1 WF3      0.070200
     44 H15A        0.9800    0.6200   -0.6980 h1        1 WF3      0.070200
     45 H25        -6.1490    0.4010   -0.0690 ha        1 WF3      0.158000
     46 H27        -7.0570    3.5650    1.1170 hc        1 WF3      0.050367
     47 H27A       -6.9720    3.7530   -0.6850 hc        1 WF3      0.050367
     48 H27B       -7.6420    2.2290    0.0370 hc        1 WF3      0.050367
     49 H28        -4.5820    4.4030    0.3990 ha        1 WF3      0.142000
     50 H29        -2.2480    3.5380    0.4190 ha        1 WF3      0.156000
@<TRIPOS>BOND
     1    1    2 1   
     2    1   32 1   
     3    1   33 1   
     4    1   34 1   
     5    2    3 1   
     6    3    4 2   
     7    3    5 1   
     8    5    6 2   
     9    5    9 1   
    10    6    7 1   
    11    6   35 1   
    12    7    8 1   
    13    8   36 1   
    14    8   37 1   
    15    8   38 1   
    16    9   10 ar  
    17    9   14 ar  
    18   10   11 ar  
    19   10   39 1   
    20   11   12 ar  
    21   11   40 1   
    22   12   13 ar  
    23   12   41 1   
    24   13   14 ar  
    25   13   42 1   
    26   14   15 1   
    27   15   16 1   
    28   15   43 1   
    29   15   44 1   
    30   16   17 1   
    31   17   18 ar  
    32   17   31 ar  
    33   18   19 1   
    34   18   23 ar  
    35   19   20 1   
    36   19   21 1   
    37   19   22 1   
    38   23   24 ar  
    39   24   25 ar  
    40   24   30 ar  
    41   25   26 ar  
    42   25   45 1   
    43   26   27 1   
    44   26   28 ar  
    45   27   46 1   
    46   27   47 1   
    47   27   48 1   
    48   28   29 ar  
    49   28   49 1   
    50   29   30 ar  
    51   29   50 1   
    52   30   31 ar  
@<TRIPOS>SUBSTRUCTURE
     1 WF3         1 TEMP              0 ****  ****    0 ROOT
