@<TRIPOS>MOLECULE
WF4
   26    27     1     0     0
SMALL
bcc


@<TRIPOS>ATOM
      1 C01        -0.0590    0.1430    0.0740 c3        1 WF4     -0.127400
      2 C02         1.4180    0.0480   -0.0180 cc        1 WF4      0.320600
      3 C03         2.2700   -0.0910    1.0900 cd        1 WF4     -0.180000
      4 C04         1.8760   -0.1690    2.5540 c         1 WF4      0.935200
      5 O05         0.7830   -0.7210    2.8490 o         1 WF4     -0.806300
      6 O06         2.6860    0.3170    3.3900 o         1 WF4     -0.806300
      7 S07         3.8580   -0.1560    0.5870 ss        1 WF4     -0.033300
      8 C08         3.3940   -0.0090   -1.0590 cd        1 WF4      0.313900
      9 C09         4.3690   -0.0040   -2.1310 ca        1 WF4     -0.031500
     10 C10         3.9770    0.0320   -3.4800 ca        1 WF4     -0.137500
     11 C11         4.9310    0.0350   -4.4920 ca        1 WF4     -0.082500
     12 C12         6.2900    0.0010   -4.1720 ca        1 WF4     -0.198300
     13 C13         7.3300    0.0210   -5.2770 c3        1 WF4      0.690200
     14 F14         7.7340    1.2800   -5.6630 f         1 WF4     -0.247967
     15 F15         8.5110   -0.6170   -4.9770 f         1 WF4     -0.247967
     16 F16         6.9350   -0.5640   -6.4580 f         1 WF4     -0.247967
     17 C17         6.6960   -0.0350   -2.8350 ca        1 WF4     -0.082500
     18 C18         5.7420   -0.0370   -1.8230 ca        1 WF4     -0.137500
     19 N19         2.0630    0.0980   -1.2410 nc        1 WF4     -0.633000
     20 H1         -0.3960    1.1750   -0.1930 hc        1 WF4      0.051367
     21 H2         -0.5470   -0.5800   -0.6260 hc        1 WF4      0.051367
     22 H3         -0.3780   -0.0920    1.1230 hc        1 WF4      0.051367
     23 H5          2.9070    0.0580   -3.7400 ha        1 WF4      0.154500
     24 H6          4.6190    0.0590   -5.5480 ha        1 WF4      0.138500
     25 H7          7.7680   -0.0660   -2.5880 ha        1 WF4      0.138500
     26 H8          6.0650   -0.0640   -0.7700 ha        1 WF4      0.154500
@<TRIPOS>BOND
     1    1    2 1   
     2    1   20 1   
     3    1   21 1   
     4    1   22 1   
     5    2    3 2   
     6    2   19 1   
     7    3    4 1   
     8    3    7 1   
     9    4    5 1   
    10    4    6 1   
    11    7    8 1   
    12    8    9 1   
    13    8   19 2   
    14    9   10 ar  
    15    9   18 ar  
    16   10   11 ar  
    17   10   23 1   
    18   11   12 ar  
    19   11   24 1   
    20   12   13 1   
    21   12   17 ar  
    22   13   14 1   
    23   13   15 1   
    24   13   16 1   
    25   17   18 ar  
    26   17   25 1   
    27   18   26 1   
@<TRIPOS>SUBSTRUCTURE
     1 WF4         1 TEMP              0 ****  ****    0 ROOT
