@<TRIPOS>MOLECULE
WF8
   38    34     1     0     0
SMALL
bcc


@<TRIPOS>ATOM
      1 CAG         4.0440   -0.3740   -1.3040 c1        1 WF8     -0.105000
      2 CAE         5.4290   -0.2980   -1.3140 c1        1 WF8     -0.125500
      3 CAD         6.0960    0.3300   -0.2740 c1        1 WF8     -0.125500
      4 CAF         5.3790    0.8820    0.7760 c1        1 WF8     -0.125500
      5 CAH         3.9950    0.8060    0.7860 c1        1 WF8     -0.125500
      6 CAP         3.3270    0.1780   -0.2540 c1        1 WF8      0.062000
      7 NAV         1.9100    0.1810   -0.2880 n         1 WF8     -0.190000
      8 NAM         1.1620   -0.7520    0.5420 n2        1 WF8      0.051000
      9 CAT         1.2060    1.1980   -1.0580 c2        1 WF8      0.341000
     10 OAC         1.8370    2.0510   -1.6620 o         1 WF8     -0.346000
     11 CAJ        -0.2730    1.2200   -1.0790 c2        1 WF8     -0.360000
     12 CAR        -1.0180    0.2360   -0.3270 c1        1 WF8      0.185000
     13 NAN        -2.4500    0.1240   -0.5050 n2        1 WF8     -0.311000
     14 CAU        -3.2760    1.3160   -0.5100 c3        1 WF8      0.027000
     15 CAB        -4.1340    1.3400   -1.7850 c3        1 WF8     -0.230000
     16 CAA        -4.1880    1.3090    0.7200 c3        1 WF8     -0.230000
     17 CAS        -0.2920   -0.7630    0.5000 c2        1 WF8     -0.076000
     18 CAQ        -1.0700   -1.8610    1.2280 c2        1 WF8     -0.064000
     19 NAK        -1.3620   -1.8810    2.5430 n2        1 WF8     -0.151000
     20 CAI        -1.9160   -3.0750    2.8280 c1        1 WF8     -0.087000
     21 NAO        -1.9680   -3.7900    1.6940 n2        1 WF8     -0.192000
     22 NAL        -1.4450   -3.0390    0.7030 n2        1 WF8     -0.044000
     23 HAG         3.5720   -0.8180   -2.0390 ha        1 WF8      0.157000
     24 HAE         5.9350   -0.6880   -2.0560 ha        1 WF8      0.137000
     25 HAD         7.0700    0.3840   -0.2810 ha        1 WF8      0.137000
     26 HAF         5.8480    1.3240    1.5070 ha        1 WF8      0.137000
     27 HAH         3.4920    1.1940    1.5250 ha        1 WF8      0.137000
     28 HAJ        -0.7450    1.9010   -1.5950 ha        1 WF8      0.168000
     29 HAN        -2.8320   -0.6990   -0.6360 hn        1 WF8      0.242000
     30 HAU        -2.7050    2.1080   -0.4870 h1        1 WF8      0.099000
     31 HAB1       -4.4660    2.2560   -1.9390 hc        1 WF8      0.085500
     32 HAB2       -4.8960    0.7280   -1.6780 hc        1 WF8      0.085500
     33 HAB3       -3.5890    1.0550   -2.5530 hc        1 WF8      0.085500
     34 HAA1       -3.6380    1.3160    1.5370 hc        1 WF8      0.085500
     35 HAA2       -4.7480    0.5030    0.7080 hc        1 WF8      0.085500
     36 HAA3       -4.7640    2.1080    0.7060 hc        1 WF8      0.085500
     37 HAO        -2.3000   -4.6390    1.6080 DU        1 WF8      0.247500
     38 HAI        -2.2290   -3.3710    3.7110 DU        1 WF8      0.247500
@<TRIPOS>BOND
     1    1    6 1   
     2    1   23 1   
     3    2    3 1   
     4    2   24 1   
     5    3   25 1   
     6    4    5 1   
     7    4   26 1   
     8    5   27 1   
     9    6    7 1   
    10    7    8 1   
    11    7    9 1   
    12    8   17 1   
    13    9   10 1   
    14    9   11 1   
    15   11   12 1   
    16   11   28 1   
    17   12   17 1   
    18   13   14 1   
    19   13   29 1   
    20   14   15 1   
    21   14   16 1   
    22   14   30 1   
    23   15   31 1   
    24   15   32 1   
    25   15   33 1   
    26   16   34 1   
    27   16   35 1   
    28   16   36 1   
    29   17   18 1   
    30   18   19 1   
    31   18   22 1   
    32   19   20 1   
    33   20   21 1   
    34   21   22 1   
@<TRIPOS>SUBSTRUCTURE
     1 WF8         1 TEMP              0 ****  ****    0 ROOT
