@<TRIPOS>MOLECULE
WF8
   38    40     1     0     0
SMALL
bcc


@<TRIPOS>ATOM
      1 CAG        -3.7090    0.7530    0.8830 ca        1 WF8     -0.111000
      2 CAE        -5.0640    0.4380    0.9380 ca        1 WF8     -0.128500
      3 CAD        -5.5750   -0.6310    0.2040 ca        1 WF8     -0.129000
      4 CAF        -4.7240   -1.3890   -0.5980 ca        1 WF8     -0.128500
      5 CAH        -3.3660   -1.0870   -0.6750 ca        1 WF8     -0.111000
      6 CAP        -2.8480   -0.0090    0.0690 ca        1 WF8      0.052600
      7 NAV        -1.4440    0.3170    0.0050 n         1 WF8     -0.116000
      8 NAM        -0.5910   -0.6880    0.0780 nc        1 WF8     -0.364300
      9 CAT        -1.0300    1.6920   -0.1610 c         1 WF8      0.699700
     10 OAC        -1.8840    2.5930   -0.2020 o         1 WF8     -0.619500
     11 CAJ         0.4010    1.9150   -0.2590 cc        1 WF8     -0.361200
     12 CAR         1.3020    0.8700   -0.2100 cd        1 WF8      0.159400
     13 NAN         2.6580    1.0010   -0.4090 nh        1 WF8     -0.737000
     14 CAU         3.3050    2.3010   -0.3970 c3        1 WF8      0.210500
     15 CAB         3.3400    2.9700    0.9790 c3        1 WF8     -0.115600
     16 CAA         4.7350    2.2060   -0.9350 c3        1 WF8     -0.115600
     17 CAS         0.7160   -0.4700   -0.0120 cd        1 WF8      0.271600
     18 CAQ         1.5920   -1.6480    0.0860 cd        1 WF8      0.498700
     19 NAK         1.5960   -2.6890   -0.8720 nd        1 WF8     -0.645000
     20 CAI         2.4950   -3.5660   -0.3810 cc        1 WF8      0.402400
     21 NAO         3.0160   -3.0640    0.8270 na        1 WF8     -0.162400
     22 NAL         2.4590   -1.8920    1.1250 nc        1 WF8     -0.512800
     23 HAG        -3.3230    1.6140    1.4530 ha        1 WF8      0.153500
     24 HAE        -5.7330    1.0430    1.5680 ha        1 WF8      0.135000
     25 HAD        -6.6460   -0.8750    0.2560 ha        1 WF8      0.133000
     26 HAF        -5.1230   -2.2330   -1.1810 ha        1 WF8      0.135000
     27 HAH        -2.7110   -1.6990   -1.3150 ha        1 WF8      0.153500
     28 HAJ         0.6980    2.9640   -0.3850 ha        1 WF8      0.168000
     29 HAN         3.2350    0.2390   -0.1280 hn        1 WF8      0.429800
     30 HAU         2.7150    2.9670   -1.0970 h1        1 WF8      0.067700
     31 HAB1        3.7950    3.9840    0.8800 hc        1 WF8      0.046367
     32 HAB2        2.3080    3.0800    1.3910 hc        1 WF8      0.046367
     33 HAB3        3.9510    2.3730    1.6980 hc        1 WF8      0.046367
     34 HAA1        4.7490    1.7630   -1.9590 hc        1 WF8      0.046367
     35 HAA2        5.1650    3.2350   -0.9850 hc        1 WF8      0.046367
     36 HAA3        5.3760    1.5860   -0.2650 hc        1 WF8      0.046367
     37 HAO         3.6700   -3.4860    1.4440 hn        1 WF8      0.330700
     38 HAI         2.7960   -4.5200   -0.8240 h5        1 WF8      0.076100
@<TRIPOS>BOND
     1    1    2 ar  
     2    1    6 ar  
     3    1   23 1   
     4    2    3 ar  
     5    2   24 1   
     6    3    4 ar  
     7    3   25 1   
     8    4    5 ar  
     9    4   26 1   
    10    5    6 ar  
    11    5   27 1   
    12    6    7 1   
    13    7    8 1   
    14    7    9 1   
    15    8   17 2   
    16    9   10 2   
    17    9   11 1   
    18   11   12 2   
    19   11   28 1   
    20   12   13 1   
    21   12   17 1   
    22   13   14 1   
    23   13   29 1   
    24   14   15 1   
    25   14   16 1   
    26   14   30 1   
    27   15   31 1   
    28   15   32 1   
    29   15   33 1   
    30   16   34 1   
    31   16   35 1   
    32   16   36 1   
    33   17   18 1   
    34   18   19 1   
    35   18   22 2   
    36   19   20 2   
    37   20   21 1   
    38   20   38 1   
    39   21   22 1   
    40   21   37 1   
@<TRIPOS>SUBSTRUCTURE
     1 WF8         1 TEMP              0 ****  ****    0 ROOT
