@<TRIPOS>MOLECULE
WF8
   39    41     1     0     0
SMALL
bcc


@<TRIPOS>ATOM
      1 CAG         0.0470   -0.0370    0.0270 ca        1 WF8     -0.097000
      2 CAE         1.4390   -0.0910    0.0530 ca        1 WF8     -0.118000
      3 CAD         2.1260   -0.1310    1.2660 ca        1 WF8     -0.097000
      4 CAF         1.4180   -0.1130    2.4680 ca        1 WF8     -0.118000
      5 CAH         0.0260   -0.0550    2.4700 ca        1 WF8     -0.097000
      6 CAP        -0.6610   -0.0140    1.2430 ca        1 WF8      0.005600
      7 NAV        -2.1130    0.0480    1.2240 n         1 WF8     -0.067000
      8 NAM        -2.7660   -0.8090    1.9680 nc        1 WF8     -0.300300
      9 CAT        -2.7540    1.0460    0.4090 c         1 WF8      0.664700
     10 OAC        -2.1080    1.8250   -0.2980 o         1 WF8     -0.527500
     11 CAJ        -4.2290    1.0670    0.4760 cc        1 WF8     -0.184200
     12 CAR        -4.8910    0.1670    1.2560 cd        1 WF8     -0.046600
     13 NAN        -6.3460    0.1270    1.3860 ny        1 WF8     -0.641800
     14 CAU        -7.1360    0.9010    0.3520 c3        1 WF8      0.132500
     15 CAB        -7.0250    0.2730   -1.0290 c3        1 WF8     -0.135100
     16 CAA        -8.5980    0.9820    0.7770 c3        1 WF8     -0.135100
     17 CAS        -4.1040   -0.8000    2.0180 cd        1 WF8      0.260600
     18 CAQ        -4.7530   -1.8040    2.8700 cd        1 WF8      0.466700
     19 NAK        -4.2990   -3.1370    2.9720 nd        1 WF8     -0.619000
     20 CAI        -5.1090   -3.6760    3.9090 cc        1 WF8      0.435400
     21 NAO        -6.0290   -2.7020    4.3400 na        1 WF8     -0.138400
     22 NAL        -5.8110   -1.5480    3.7180 nc        1 WF8     -0.571800
     23 HAG        -0.4810    0.0090   -0.9380 ha        1 WF8      0.151500
     24 HAE         1.9960   -0.1020   -0.8980 ha        1 WF8      0.153000
     25 HAD         3.2260   -0.1750    1.2750 ha        1 WF8      0.153000
     26 HAF         1.9590   -0.1450    3.4270 ha        1 WF8      0.153000
     27 HAH        -0.5150   -0.0480    3.4290 ha        1 WF8      0.151500
     28 HAJ        -4.6970    1.8490   -0.1440 ha        1 WF8      0.190000
     29 HAN        -6.6400   -0.8600    1.3390 hn        1 WF8      0.470300
     30 HAU        -6.7050    1.9480    0.3350 hx        1 WF8      0.107700
     31 HAB1       -7.4910   -0.7420   -1.0540 hc        1 WF8      0.079867
     32 HAB2       -5.9610    0.1940   -1.3600 hc        1 WF8      0.079867
     33 HAB3       -7.5710    0.9270   -1.7560 hc        1 WF8      0.079867
     34 HAA1       -9.1430    1.6070    0.0240 hc        1 WF8      0.079867
     35 HAA2       -8.7130    1.4680    1.7770 hc        1 WF8      0.079867
     36 HAA3       -9.0760   -0.0270    0.8010 hc        1 WF8      0.079867
     37 HAO        -6.7170   -2.7700    5.0590 hn        1 WF8      0.348700
     38 HAI        -5.0820   -4.7050    4.2920 h5        1 WF8      0.101100
     39 HAN2       -6.5890    0.4930    2.3200 hn        1 WF8      0.470300
@<TRIPOS>BOND
     1    1    2 ar  
     2    1    6 ar  
     3    1   23 1   
     4    2    3 ar  
     5    2   24 1   
     6    3    4 ar  
     7    3   25 1   
     8    4    5 ar  
     9    4   26 1   
    10    5    6 ar  
    11    5   27 1   
    12    6    7 1   
    13    7    8 1   
    14    7    9 1   
    15    8   17 2   
    16    9   10 2   
    17    9   11 1   
    18   11   12 2   
    19   11   28 1   
    20   12   13 1   
    21   12   17 1   
    22   13   14 1   
    23   13   29 1   
    24   13   39 1   
    25   14   15 1   
    26   14   16 1   
    27   14   30 1   
    28   15   31 1   
    29   15   32 1   
    30   15   33 1   
    31   16   34 1   
    32   16   35 1   
    33   16   36 1   
    34   17   18 1   
    35   18   19 1   
    36   18   22 2   
    37   19   20 2   
    38   20   21 1   
    39   20   38 1   
    40   21   22 1   
    41   21   37 1   
@<TRIPOS>SUBSTRUCTURE
     1 WF8         1 TEMP              0 ****  ****    0 ROOT
