@<TRIPOS>MOLECULE
WF8
   39    41     1     0     0
SMALL
bcc


@<TRIPOS>ATOM
      1 CAG         0.1180   -0.1890    0.0210 ca        1 WF8     -0.097000
      2 CAE         1.5090   -0.1800    0.1080 ca        1 WF8     -0.119000
      3 CAD         2.1410   -0.0740    1.3470 ca        1 WF8     -0.097000
      4 CAF         1.3800    0.0260    2.5110 ca        1 WF8     -0.119000
      5 CAH        -0.0120    0.0240    2.4510 ca        1 WF8     -0.097000
      6 CAP        -0.6440   -0.0810    1.1990 ca        1 WF8      0.004600
      7 NAV        -2.0950   -0.0840    1.1150 n         1 WF8     -0.066000
      8 NAM        -2.7460   -0.8830    1.9230 nc        1 WF8     -0.301300
      9 CAT        -2.7390    0.7900    0.1700 c         1 WF8      0.664700
     10 OAC        -2.0950    1.5140   -0.5940 o         1 WF8     -0.528500
     11 CAJ        -4.2150    0.7540    0.1770 cc        1 WF8     -0.186200
     12 CAR        -4.8740   -0.0720    1.0370 cd        1 WF8     -0.047600
     13 NAN        -6.3320   -0.1640    1.1070 n4        1 WF8     -0.643800
     14 CAU        -7.0990    0.9880    0.4880 c3        1 WF8      0.131500
     15 CAB        -7.3580    0.7530   -0.9940 c3        1 WF8     -0.136600
     16 CAA        -8.4210    1.1910    1.2210 c3        1 WF8     -0.136600
     17 CAS        -4.0840   -0.9160    1.9300 cd        1 WF8      0.260600
     18 CAQ        -4.7310   -1.8420    2.8670 cd        1 WF8      0.466700
     19 NAK        -4.2590   -2.0660    4.1790 nd        1 WF8     -0.622000
     20 CAI        -5.0730   -3.0380    4.6460 cc        1 WF8      0.435400
     21 NAO        -6.0130   -3.3710    3.6520 na        1 WF8     -0.137400
     22 NAL        -5.8040   -2.6520    2.5550 nc        1 WF8     -0.568800
     23 HAG        -0.3670   -0.2570   -0.9650 ha        1 WF8      0.153500
     24 HAE         2.1070   -0.2570   -0.8130 ha        1 WF8      0.153500
     25 HAD         3.2410   -0.0700    1.4050 ha        1 WF8      0.153000
     26 HAF         1.8780    0.1080    3.4900 ha        1 WF8      0.153500
     27 HAH        -0.5950    0.0980    3.3830 ha        1 WF8      0.153500
     28 HAJ        -4.6890    1.4340   -0.5500 ha        1 WF8      0.191000
     29 HAN        -6.6160   -1.0410    0.6420 hn        1 WF8      0.470300
     30 HAU        -6.4630    1.9150    0.6270 hx        1 WF8      0.112700
     31 HAB1       -8.0570   -0.1050   -1.1530 hc        1 WF8      0.080033
     32 HAB2       -7.8340    1.6740   -1.4160 hc        1 WF8      0.080033
     33 HAB3       -6.4130    0.5600   -1.5580 hc        1 WF8      0.080033
     34 HAA1       -8.2620    1.4150    2.3040 hc        1 WF8      0.080033
     35 HAA2       -9.0880    0.3010    1.1220 hc        1 WF8      0.080033
     36 HAA3       -8.9410    2.0690    0.7590 hc        1 WF8      0.080033
     37 HAO        -6.7070   -4.0870    3.6670 hn        1 WF8      0.348700
     38 HAI        -5.0360   -3.5100    5.6370 h5        1 WF8      0.101100
     39 HAN2       -6.5940   -0.2270    2.1030 hn        1 WF8      0.470300
@<TRIPOS>BOND
     1    1    2 ar  
     2    1    6 ar  
     3    1   23 1   
     4    2    3 ar  
     5    2   24 1   
     6    3    4 ar  
     7    3   25 1   
     8    4    5 ar  
     9    4   26 1   
    10    5    6 ar  
    11    5   27 1   
    12    6    7 1   
    13    7    8 1   
    14    7    9 1   
    15    8   17 2   
    16    9   10 2   
    17    9   11 1   
    18   11   12 2   
    19   11   28 1   
    20   12   13 1   
    21   12   17 1   
    22   13   14 1   
    23   13   29 1   
    24   13   39 1   
    25   14   15 1   
    26   14   16 1   
    27   14   30 1   
    28   15   31 1   
    29   15   32 1   
    30   15   33 1   
    31   16   34 1   
    32   16   35 1   
    33   16   36 1   
    34   17   18 1   
    35   18   19 1   
    36   18   22 2   
    37   19   20 2   
    38   20   21 1   
    39   20   38 1   
    40   21   22 1   
    41   21   37 1   
@<TRIPOS>SUBSTRUCTURE
     1 WF8         1 TEMP              0 ****  ****    0 ROOT
