@<TRIPOS>MOLECULE
WF8
   39    41     1     0     0
SMALL
bcc


@<TRIPOS>ATOM
      1 CAG         0.0460   -0.0400    0.0240 ca        1 WF8     -0.097000
      2 CAE         1.4380   -0.0970    0.0470 ca        1 WF8     -0.118000
      3 CAD         2.1260   -0.1430    1.2600 ca        1 WF8     -0.097000
      4 CAF         1.4200   -0.1300    2.4620 ca        1 WF8     -0.118000
      5 CAH         0.0280   -0.0690    2.4660 ca        1 WF8     -0.097000
      6 CAP        -0.6610   -0.0210    1.2400 ca        1 WF8      0.005600
      7 NAV        -2.1120    0.0440    1.2230 n         1 WF8     -0.067000
      8 NAM        -2.7660   -0.8150    1.9640 nc        1 WF8     -0.300300
      9 CAT        -2.7520    1.0470    0.4140 c         1 WF8      0.664700
     10 OAC        -2.1060    1.8280   -0.2910 o         1 WF8     -0.527500
     11 CAJ        -4.2270    1.0710    0.4820 cc        1 WF8     -0.184200
     12 CAR        -4.8900    0.1700    1.2590 cd        1 WF8     -0.046600
     13 NAN        -6.3450    0.1320    1.3910 n4        1 WF8     -0.641800
     14 CAU        -7.1350    0.9130    0.3610 c3        1 WF8      0.132500
     15 CAB        -7.0270    0.2910   -1.0230 c3        1 WF8     -0.135100
     16 CAA        -8.5960    0.9960    0.7890 c3        1 WF8     -0.135100
     17 CAS        -4.1040   -0.8030    2.0150 cd        1 WF8      0.260600
     18 CAQ        -4.7550   -1.8090    2.8630 cd        1 WF8      0.466700
     19 NAK        -4.3030   -3.1440    2.9590 nd        1 WF8     -0.619000
     20 CAI        -5.1130   -3.6850    3.8940 cc        1 WF8      0.435400
     21 NAO        -6.0310   -2.7120    4.3310 na        1 WF8     -0.138400
     22 NAL        -5.8110   -1.5560    3.7140 nc        1 WF8     -0.571800
     23 HAG        -0.4830    0.0120   -0.9410 ha        1 WF8      0.151500
     24 HAE         1.9940   -0.1050   -0.9040 ha        1 WF8      0.153000
     25 HAD         3.2260   -0.1900    1.2670 ha        1 WF8      0.153000
     26 HAF         1.9620   -0.1670    3.4200 ha        1 WF8      0.153000
     27 HAH        -0.5120   -0.0650    3.4260 ha        1 WF8      0.151500
     28 HAJ        -4.6940    1.8570   -0.1330 ha        1 WF8      0.190000
     29 HAN        -6.6420   -0.8550    1.3390 hn        1 WF8      0.470300
     30 HAU        -6.7020    1.9590    0.3490 hx        1 WF8      0.107700
     31 HAB1       -7.4950   -0.7230   -1.0520 hc        1 WF8      0.079867
     32 HAB2       -5.9630    0.2110   -1.3560 hc        1 WF8      0.079867
     33 HAB3       -7.5720    0.9500   -1.7460 hc        1 WF8      0.079867
     34 HAA1       -9.1400    1.6250    0.0400 hc        1 WF8      0.079867
     35 HAA2       -8.7090    1.4770    1.7910 hc        1 WF8      0.079867
     36 HAA3       -9.0760   -0.0130    0.8090 hc        1 WF8      0.079867
     37 HAO        -6.7180   -2.7810    5.0500 hn        1 WF8      0.348700
     38 HAI        -5.0880   -4.7160    4.2720 h5        1 WF8      0.101100
     39 HAN2       -6.5860    0.4940    2.3270 hn        1 WF8      0.470300
@<TRIPOS>BOND
     1    1    2 ar  
     2    1    6 ar  
     3    1   23 1   
     4    2    3 ar  
     5    2   24 1   
     6    3    4 ar  
     7    3   25 1   
     8    4    5 ar  
     9    4   26 1   
    10    5    6 ar  
    11    5   27 1   
    12    6    7 1   
    13    7    8 1   
    14    7    9 1   
    15    8   17 2   
    16    9   10 2   
    17    9   11 1   
    18   11   12 2   
    19   11   28 1   
    20   12   13 1   
    21   12   17 1   
    22   13   14 1   
    23   13   29 1   
    24   13   39 1   
    25   14   15 1   
    26   14   16 1   
    27   14   30 1   
    28   15   31 1   
    29   15   32 1   
    30   15   33 1   
    31   16   34 1   
    32   16   35 1   
    33   16   36 1   
    34   17   18 1   
    35   18   19 1   
    36   18   22 2   
    37   19   20 2   
    38   20   21 1   
    39   20   38 1   
    40   21   22 1   
    41   21   37 1   
@<TRIPOS>SUBSTRUCTURE
     1 WF8         1 TEMP              0 ****  ****    0 ROOT
