@<TRIPOS>MOLECULE
WFE
   51    54     1     0     0
SMALL
bcc


@<TRIPOS>ATOM
      1 C1          4.0520    3.0620    0.9660 c3        1 WFE     -0.087100
      2 C2          4.7120    2.6370   -0.3260 c3        1 WFE     -0.013200
      3 C3          5.3720    1.3270   -0.2130 cc        1 WFE     -0.082400
      4 C4          6.7270    1.1320    0.0640 cd        1 WFE     -0.119100
      5 N5          7.0370   -0.2310    0.0930 na        1 WFE     -0.281100
      6 C6          5.8680   -0.9480   -0.1680 ca        1 WFE      0.440800
      7 N7          5.6990   -2.3040   -0.2410 nb        1 WFE     -0.702000
      8 C8          4.4300   -2.6660   -0.5190 ca        1 WFE      0.651900
      9 N9          3.3370   -1.8750   -0.7280 nb        1 WFE     -0.766000
     10 C10         3.5040   -0.5260   -0.6630 ca        1 WFE      0.656200
     11 N11         2.4120    0.3890   -0.8960 nh        1 WFE     -0.704300
     12 C12         1.6000    0.0900   -2.0820 c3        1 WFE      0.160800
     13 C13         0.1990   -0.3680   -1.6530 c3        1 WFE     -0.142400
     14 C14         0.1560   -0.2570   -0.1010 c3        1 WFE      0.148200
     15 N15         0.0920   -1.5280    0.5980 n3        1 WFE     -0.900800
     16 C16        -1.0120    0.6760    0.3300 c3        1 WFE      0.104000
     17 N17        -2.3160    0.1440    0.0530 n         1 WFE     -0.564900
     18 C18        -3.3680    0.2850    0.9290 c         1 WFE      0.680700
     19 O19        -3.2390    0.8990    2.0100 o         1 WFE     -0.602100
     20 C20        -4.6740   -0.3490    0.5750 ca        1 WFE     -0.190600
     21 C21        -5.4450   -0.8350    1.6400 ca        1 WFE     -0.033000
     22 C22        -6.6800   -1.4310    1.4290 ca        1 WFE     -0.188000
     23 C23        -7.1770   -1.5410    0.1150 ca        1 WFE      0.172900
     24 F24        -8.3800   -2.1200   -0.1040 f         1 WFE     -0.128900
     25 C25        -6.4360   -1.0520   -0.9700 ca        1 WFE     -0.218000
     26 C26        -5.1830   -0.4560   -0.7360 ca        1 WFE      0.174900
     27 F27        -4.4920    0.0140   -1.8020 f         1 WFE     -0.135900
     28 C28         1.4950    0.4930    0.2420 c3        1 WFE      0.161800
     29 C29         4.7850    0.0170   -0.3710 ca        1 WFE     -0.283400
     30 H1          3.5740    4.0630    0.8380 hc        1 WFE      0.035033
     31 H1A         3.2640    2.3270    1.2620 hc        1 WFE      0.035033
     32 H1B         4.8000    3.1280    1.7910 hc        1 WFE      0.035033
     33 H2          3.9430    2.6010   -1.1440 hc        1 WFE      0.053200
     34 H2A         5.4750    3.4090   -0.6200 hc        1 WFE      0.053200
     35 H4          7.5060    1.8770    0.2420 h4        1 WFE      0.173000
     36 H8          4.2430   -3.7590   -0.5850 h5        1 WFE      0.052100
     37 H12         1.5290    1.0580   -2.6530 h1        1 WFE      0.060700
     38 H12A        2.0810   -0.6680   -2.7540 h1        1 WFE      0.060700
     39 H13        -0.5710    0.2890   -2.1250 hc        1 WFE      0.052700
     40 H13A        0.0100   -1.4140   -1.9970 hc        1 WFE      0.052700
     41 HN15       -0.7290   -2.0350    0.3350 hn        1 WFE      0.360300
     42 HN1A        0.9010   -2.0810    0.3920 hn        1 WFE      0.360300
     43 H16        -0.9270    0.8830    1.4360 h1        1 WFE      0.067200
     44 H16A       -0.8880    1.6520   -0.2250 h1        1 WFE      0.067200
     45 HN17       -2.4540   -0.3110   -0.8170 hn        1 WFE      0.315500
     46 H21        -5.0520   -0.7230    2.6670 ha        1 WFE      0.172000
     47 H22        -7.2750   -1.8120    2.2710 ha        1 WFE      0.161000
     48 H25        -6.8270   -1.1280   -1.9950 ha        1 WFE      0.169000
     49 H28         1.9530    0.1140    1.1930 h1        1 WFE      0.072200
     50 H28A        1.2800    1.5910    0.3700 h1        1 WFE      0.072200
     51 HN5         7.9230   -0.6260    0.2730 hn        1 WFE      0.312700
@<TRIPOS>BOND
     1    1    2 1   
     2    1   30 1   
     3    1   31 1   
     4    1   32 1   
     5    2    3 1   
     6    2   33 1   
     7    2   34 1   
     8    3    4 2   
     9    3   29 1   
    10    4    5 1   
    11    4   35 1   
    12    5    6 1   
    13    5   51 1   
    14    6    7 ar  
    15    6   29 ar  
    16    7    8 ar  
    17    8    9 ar  
    18    8   36 1   
    19    9   10 ar  
    20   10   11 1   
    21   10   29 ar  
    22   11   12 1   
    23   11   28 1   
    24   12   13 1   
    25   12   37 1   
    26   12   38 1   
    27   13   14 1   
    28   13   39 1   
    29   13   40 1   
    30   14   15 1   
    31   14   16 1   
    32   14   28 1   
    33   15   41 1   
    34   15   42 1   
    35   16   17 1   
    36   16   43 1   
    37   16   44 1   
    38   17   18 1   
    39   17   45 1   
    40   18   19 2   
    41   18   20 1   
    42   20   21 ar  
    43   20   26 ar  
    44   21   22 ar  
    45   21   46 1   
    46   22   23 ar  
    47   22   47 1   
    48   23   24 1   
    49   23   25 ar  
    50   25   26 ar  
    51   25   48 1   
    52   26   27 1   
    53   28   49 1   
    54   28   50 1   
@<TRIPOS>SUBSTRUCTURE
     1 WFE         1 TEMP              0 ****  ****    0 ROOT
