@<TRIPOS>MOLECULE
WFE
   53    56     1     0     0
SMALL
bcc


@<TRIPOS>ATOM
      1 C1          0.3520    0.5360    0.0300 c3        1 WFE     -0.092100
      2 C2          1.8390    0.2850    0.1310 c3        1 WFE     -0.025200
      3 C3          2.2730    0.0160    1.5120 cc        1 WFE     -0.054400
      4 C4          2.8320    0.9630    2.3740 cd        1 WFE     -0.070100
      5 N5          3.1320    0.3910    3.6220 na        1 WFE     -0.150600
      6 C6          2.7750   -0.9380    3.5900 cc        1 WFE      0.422300
      7 N7          2.8730   -1.8890    4.5810 nc        1 WFE     -0.621000
      8 C8          2.4310   -3.0970    4.2500 cd        1 WFE      0.552400
      9 N9          1.9060   -3.4670    3.0170 na        1 WFE     -0.326900
     10 C10         1.7820   -2.5380    1.9860 cd        1 WFE      0.272300
     11 N11         1.2260   -2.8670    0.7120 nh        1 WFE     -0.601000
     12 C12         2.1570   -3.5290   -0.2150 c3        1 WFE      0.162800
     13 C13         1.5550   -4.8730   -0.6620 c3        1 WFE     -0.115400
     14 C14         0.2660   -5.0700    0.1800 c3        1 WFE      0.143200
     15 N15         0.4740   -5.9590    1.3010 n3        1 WFE     -0.960800
     16 C16        -0.9330   -5.4440   -0.7340 c3        1 WFE      0.061800
     17 N17        -0.8130   -6.7680   -1.3970 n4        1 WFE     -0.685800
     18 C18        -2.0850   -7.1230   -2.1980 c         1 WFE      0.589700
     19 O19        -3.1250   -6.7430   -1.6880 o         1 WFE     -0.394100
     20 C20        -1.8500   -7.8380   -3.4390 ca        1 WFE     -0.293600
     21 C21        -0.8290   -8.7990   -3.5820 ca        1 WFE     -0.048000
     22 C22        -0.6780   -9.5110   -4.7530 ca        1 WFE     -0.173000
     23 C23        -1.5620   -9.2780   -5.8400 ca        1 WFE      0.261900
     24 F24        -1.4120   -9.9730   -6.9770 f         1 WFE     -0.070900
     25 C25        -2.5910   -8.3290   -5.7260 ca        1 WFE     -0.214000
     26 C26        -2.7410   -7.6140   -4.5270 ca        1 WFE      0.266900
     27 F27        -3.7210   -6.7000   -4.4160 f         1 WFE     -0.085900
     28 C28        -0.0290   -3.6110    0.7120 c3        1 WFE      0.161800
     29 C29         2.2170   -1.2300    2.2450 cc        1 WFE     -0.203100
     30 H1          0.0490    1.3970    0.6730 hc        1 WFE      0.047367
     31 H1A         0.0840    0.7760   -1.0280 hc        1 WFE      0.047367
     32 H1B        -0.2260   -0.3640    0.3480 hc        1 WFE      0.047367
     33 H2          2.3910    1.1880   -0.2560 hc        1 WFE      0.066200
     34 H2A         2.1230   -0.5790   -0.5290 hc        1 WFE      0.066200
     35 H4          3.0450    2.0250    2.1930 h4        1 WFE      0.221000
     36 H8          2.4890   -3.8930    5.0320 h5        1 WFE      0.105100
     37 H12         3.1740   -3.6820    0.2390 h1        1 WFE      0.092200
     38 H12A        2.2700   -2.8380   -1.0980 h1        1 WFE      0.092200
     39 H13         2.2980   -5.6960   -0.5160 hc        1 WFE      0.074200
     40 H13A        1.3050   -4.8220   -1.7510 hc        1 WFE      0.074200
     41 HN15        1.6030   -4.4150    2.8860 hn        1 WFE      0.341700
     42 HN1A        0.9750   -6.7880    1.0630 hn        1 WFE      0.389800
     43 H16        -1.0380   -4.6680   -1.5460 hx        1 WFE      0.126200
     44 H16A       -1.8880   -5.4440   -0.1270 hx        1 WFE      0.126200
     45 HN17       -0.0090   -6.7670   -2.0330 hn        1 WFE      0.451300
     46 H21        -0.1530   -9.0260   -2.7420 ha        1 WFE      0.134000
     47 H22         0.1140  -10.2730   -4.8600 ha        1 WFE      0.193000
     48 H25        -3.2860   -8.1500   -6.5660 ha        1 WFE      0.211000
     49 H28        -0.7010   -3.0730   -0.0170 h1        1 WFE      0.094200
     50 H28A       -0.5390   -3.6190    1.7110 h1        1 WFE      0.094200
     51 HN5         3.5350    0.8660    4.4000 hn        1 WFE      0.355700
     52 H153       -0.3700   -6.1620    1.7950 hn        1 WFE      0.389800
     53 H172       -0.6690   -7.5010   -0.6950 hn        1 WFE      0.451300
@<TRIPOS>BOND
     1    1    2 1   
     2    1   30 1   
     3    1   31 1   
     4    1   32 1   
     5    2    3 1   
     6    2   33 1   
     7    2   34 1   
     8    3    4 2   
     9    3   29 1   
    10    4    5 1   
    11    4   35 1   
    12    5    6 2   
    13    5   51 1   
    14    6    7 1   
    15    6   29 1   
    16    7    8 2   
    17    8    9 1   
    18    8   36 1   
    19    9   10 1   
    20    9   41 1   
    21   10   11 1   
    22   10   29 2   
    23   11   12 1   
    24   11   28 1   
    25   12   13 1   
    26   12   37 1   
    27   12   38 1   
    28   13   14 1   
    29   13   39 1   
    30   13   40 1   
    31   14   15 1   
    32   14   16 1   
    33   14   28 1   
    34   15   42 1   
    35   15   52 1   
    36   16   17 1   
    37   16   43 1   
    38   16   44 1   
    39   17   18 1   
    40   17   45 1   
    41   17   53 1   
    42   18   19 2   
    43   18   20 1   
    44   20   21 ar  
    45   20   26 ar  
    46   21   22 ar  
    47   21   46 1   
    48   22   23 ar  
    49   22   47 1   
    50   23   24 1   
    51   23   25 ar  
    52   25   26 ar  
    53   25   48 1   
    54   26   27 1   
    55   28   49 1   
    56   28   50 1   
@<TRIPOS>SUBSTRUCTURE
     1 WFE         1 TEMP              0 ****  ****    0 ROOT
