@<TRIPOS>MOLECULE
WFE
   53    56     1     0     0
SMALL
bcc


@<TRIPOS>ATOM
      1 C1          0.3670    0.5330   -0.0040 c3        1 WFE     -0.092100
      2 C2          1.8530    0.2780    0.1090 c3        1 WFE     -0.025200
      3 C3          2.2750    0.0180    1.4960 cc        1 WFE     -0.054400
      4 C4          2.8320    0.9690    2.3550 cd        1 WFE     -0.070100
      5 N5          3.1210    0.4060    3.6090 na        1 WFE     -0.150600
      6 C6          2.7590   -0.9210    3.5840 cc        1 WFE      0.422300
      7 N7          2.8460   -1.8650    4.5830 nc        1 WFE     -0.621000
      8 C8          2.4020   -3.0740    4.2590 cd        1 WFE      0.552400
      9 N9          1.8850   -3.4520    3.0250 na        1 WFE     -0.326900
     10 C10         1.7720   -2.5310    1.9860 cd        1 WFE      0.272300
     11 N11         1.2240   -2.8680    0.7110 nh        1 WFE     -0.601000
     12 C12         2.1600   -3.5400   -0.2050 c3        1 WFE      0.162800
     13 C13         1.5560   -4.8850   -0.6460 c3        1 WFE     -0.115400
     14 C14         0.2610   -5.0720    0.1890 c3        1 WFE      0.143200
     15 N15         0.4580   -5.9520    1.3170 n3        1 WFE     -0.960800
     16 C16        -0.9330   -5.4490   -0.7310 c3        1 WFE      0.061800
     17 N17        -0.8110   -6.7790   -1.3840 n4        1 WFE     -0.685800
     18 C18        -2.0820   -7.1370   -2.1860 c         1 WFE      0.590700
     19 O19        -3.1240   -6.7660   -1.6740 o         1 WFE     -0.393100
     20 C20        -1.8430   -7.8460   -3.4300 ca        1 WFE     -0.293600
     21 C21        -0.8200   -8.8040   -3.5750 ca        1 WFE     -0.048000
     22 C22        -0.6650   -9.5110   -4.7490 ca        1 WFE     -0.173000
     23 C23        -1.5480   -9.2750   -5.8370 ca        1 WFE      0.261900
     24 F24        -1.3940   -9.9630   -6.9770 f         1 WFE     -0.070900
     25 C25        -2.5790   -8.3280   -5.7210 ca        1 WFE     -0.214000
     26 C26        -2.7320   -7.6190   -4.5180 ca        1 WFE      0.265900
     27 F27        -3.7150   -6.7070   -4.4060 f         1 WFE     -0.086900
     28 C28        -0.0330   -3.6070    0.7070 c3        1 WFE      0.161800
     29 C29         2.2090   -1.2220    2.2380 cc        1 WFE     -0.203100
     30 H1         -0.2170   -0.3620    0.3170 hc        1 WFE      0.047367
     31 H1A         0.0630    1.4010    0.6290 hc        1 WFE      0.047367
     32 H1B         0.1080    0.7660   -1.0660 hc        1 WFE      0.047367
     33 H2          2.1390   -0.5930   -0.5410 hc        1 WFE      0.066200
     34 H2A         2.4110    1.1760   -0.2810 hc        1 WFE      0.066200
     35 H4          3.0500    2.0290    2.1670 h4        1 WFE      0.221000
     36 H8          2.4510   -3.8650    5.0480 h5        1 WFE      0.105100
     37 H12         2.2810   -2.8550   -1.0920 h1        1 WFE      0.092200
     38 H12A        3.1720   -3.6920    0.2570 h1        1 WFE      0.092200
     39 H13         1.3150   -4.8410   -1.7370 hc        1 WFE      0.073700
     40 H13A        2.2960   -5.7090   -0.4890 hc        1 WFE      0.073700
     41 HN15        1.5800   -4.4010    2.8990 hn        1 WFE      0.341700
     42 HN1A        0.9580   -6.7850    1.0890 hn        1 WFE      0.389800
     43 H16        -1.0300   -4.6780   -1.5500 hx        1 WFE      0.126200
     44 H16A       -1.8910   -5.4420   -0.1310 hx        1 WFE      0.126200
     45 HN17       -0.0050   -6.7830   -2.0170 hn        1 WFE      0.451300
     46 H21        -0.1460   -9.0340   -2.7350 ha        1 WFE      0.134000
     47 H22         0.1280  -10.2710   -4.8580 ha        1 WFE      0.193000
     48 H25        -3.2720   -8.1460   -6.5610 ha        1 WFE      0.211000
     49 H28        -0.5500   -3.6070    1.7020 h1        1 WFE      0.094200
     50 H28A       -0.6990   -3.0740   -0.0310 h1        1 WFE      0.094200
     51 HN5         3.5190    0.8850    4.3860 hn        1 WFE      0.355700
     52 H153       -0.3900   -6.1490    1.8060 hn        1 WFE      0.389800
     53 H172       -0.6710   -7.5060   -0.6760 hn        1 WFE      0.451300
@<TRIPOS>BOND
     1    1    2 1   
     2    1   30 1   
     3    1   31 1   
     4    1   32 1   
     5    2    3 1   
     6    2   33 1   
     7    2   34 1   
     8    3    4 2   
     9    3   29 1   
    10    4    5 1   
    11    4   35 1   
    12    5    6 2   
    13    5   51 1   
    14    6    7 1   
    15    6   29 1   
    16    7    8 2   
    17    8    9 1   
    18    8   36 1   
    19    9   10 1   
    20    9   41 1   
    21   10   11 1   
    22   10   29 2   
    23   11   12 1   
    24   11   28 1   
    25   12   13 1   
    26   12   37 1   
    27   12   38 1   
    28   13   14 1   
    29   13   39 1   
    30   13   40 1   
    31   14   15 1   
    32   14   16 1   
    33   14   28 1   
    34   15   42 1   
    35   15   52 1   
    36   16   17 1   
    37   16   43 1   
    38   16   44 1   
    39   17   18 1   
    40   17   45 1   
    41   17   53 1   
    42   18   19 2   
    43   18   20 1   
    44   20   21 ar  
    45   20   26 ar  
    46   21   22 ar  
    47   21   46 1   
    48   22   23 ar  
    49   22   47 1   
    50   23   24 1   
    51   23   25 ar  
    52   25   26 ar  
    53   25   48 1   
    54   26   27 1   
    55   28   49 1   
    56   28   50 1   
@<TRIPOS>SUBSTRUCTURE
     1 WFE         1 TEMP              0 ****  ****    0 ROOT
