@<TRIPOS>MOLECULE
WFE
   53    56     1     0     0
SMALL
bcc


@<TRIPOS>ATOM
      1 C1          0.3700    0.5370   -0.0060 c3        1 WFE     -0.092100
      2 C2          1.8550    0.2810    0.1110 c3        1 WFE     -0.025200
      3 C3          2.2750    0.0200    1.4980 cc        1 WFE     -0.054400
      4 C4          2.8300    0.9700    2.3580 cd        1 WFE     -0.070100
      5 N5          3.1170    0.4070    3.6120 na        1 WFE     -0.150600
      6 C6          2.7530   -0.9200    3.5870 cc        1 WFE      0.422300
      7 N7          2.8370   -1.8640    4.5860 nc        1 WFE     -0.621000
      8 C8          2.3930   -3.0730    4.2610 cd        1 WFE      0.552400
      9 N9          1.8780   -3.4500    3.0260 na        1 WFE     -0.326900
     10 C10         1.7680   -2.5290    1.9870 cd        1 WFE      0.272300
     11 N11         1.2220   -2.8650    0.7110 nh        1 WFE     -0.601000
     12 C12         2.1590   -3.5380   -0.2030 c3        1 WFE      0.162800
     13 C13         1.5550   -4.8820   -0.6450 c3        1 WFE     -0.115400
     14 C14         0.2570   -5.0670    0.1870 c3        1 WFE      0.143200
     15 N15         0.4520   -5.9490    1.3150 n8        1 WFE     -0.960800
     16 C16        -0.9350   -5.4440   -0.7360 c3        1 WFE      0.061800
     17 N17        -0.8140   -6.7730   -1.3880 ny        1 WFE     -0.685800
     18 C18        -2.0810   -7.1290   -2.1960 c         1 WFE      0.590700
     19 O19        -3.1240   -6.7470   -1.6940 o         1 WFE     -0.393100
     20 C20        -1.8390   -7.8480   -3.4340 ca        1 WFE     -0.293600
     21 C21        -0.8190   -8.8120   -3.5660 ca        1 WFE     -0.048000
     22 C22        -0.6600   -9.5280   -4.7340 ca        1 WFE     -0.173000
     23 C23        -1.5360   -9.2960   -5.8280 ca        1 WFE      0.261900
     24 F24        -1.3780   -9.9930   -6.9630 f         1 WFE     -0.070900
     25 C25        -2.5630   -8.3440   -5.7250 ca        1 WFE     -0.214000
     26 C26        -2.7200   -7.6250   -4.5290 ca        1 WFE      0.266900
     27 F27        -3.6990   -6.7080   -4.4280 f         1 WFE     -0.085900
     28 C28        -0.0360   -3.6030    0.7040 c3        1 WFE      0.161800
     29 C29         2.2060   -1.2200    2.2400 cc        1 WFE     -0.203100
     30 H1          0.0650    1.4050    0.6280 hc        1 WFE      0.047367
     31 H1A         0.1130    0.7700   -1.0680 hc        1 WFE      0.047367
     32 H1B        -0.2150   -0.3580    0.3140 hc        1 WFE      0.047367
     33 H2          2.1410   -0.5910   -0.5390 hc        1 WFE      0.066200
     34 H2A         2.4140    1.1770   -0.2780 hc        1 WFE      0.066200
     35 H4          3.0500    2.0300    2.1710 h4        1 WFE      0.221000
     36 H8          2.4400   -3.8640    5.0500 h5        1 WFE      0.105100
     37 H12         3.1700   -3.6910    0.2610 h1        1 WFE      0.092200
     38 H12A        2.2830   -2.8530   -1.0900 h1        1 WFE      0.092200
     39 H13         2.2930   -5.7070   -0.4860 hc        1 WFE      0.074200
     40 H13A        1.3150   -4.8380   -1.7370 hc        1 WFE      0.074200
     41 HN15        0.9510   -6.7820    1.0880 hn        1 WFE      0.389800
     42 HN1A        1.5720   -4.3980    2.9000 hn        1 WFE      0.341700
     43 H16        -1.0290   -4.6730   -1.5550 hx        1 WFE      0.126200
     44 H16A       -1.8950   -5.4360   -0.1380 hx        1 WFE      0.126200
     45 HN17       -0.0040   -6.7800   -2.0170 hn        1 WFE      0.451300
     46 H21        -0.1500   -9.0380   -2.7200 ha        1 WFE      0.134000
     47 H22         0.1300  -10.2920   -4.8330 ha        1 WFE      0.193000
     48 H25        -3.2510   -8.1650   -6.5710 ha        1 WFE      0.211000
     49 H28        -0.5550   -3.6020    1.6980 h1        1 WFE      0.094200
     50 H28A       -0.7000   -3.0680   -0.0350 h1        1 WFE      0.094200
     51 HN5         3.5140    0.8850    4.3910 hn        1 WFE      0.355700
     52 H153       -0.3980   -6.1440    1.8030 hn        1 WFE      0.389800
     53 H172       -0.6790   -7.5010   -0.6800 hn        1 WFE      0.451300
@<TRIPOS>BOND
     1    1    2 1   
     2    1   30 1   
     3    1   31 1   
     4    1   32 1   
     5    2    3 1   
     6    2   33 1   
     7    2   34 1   
     8    3    4 2   
     9    3   29 1   
    10    4    5 1   
    11    4   35 1   
    12    5    6 2   
    13    5   51 1   
    14    6    7 1   
    15    6   29 1   
    16    7    8 2   
    17    8    9 1   
    18    8   36 1   
    19    9   10 1   
    20    9   42 1   
    21   10   11 1   
    22   10   29 2   
    23   11   12 1   
    24   11   28 1   
    25   12   13 1   
    26   12   37 1   
    27   12   38 1   
    28   13   14 1   
    29   13   39 1   
    30   13   40 1   
    31   14   15 1   
    32   14   16 1   
    33   14   28 1   
    34   15   41 1   
    35   15   52 1   
    36   16   17 1   
    37   16   43 1   
    38   16   44 1   
    39   17   18 1   
    40   17   45 1   
    41   17   53 1   
    42   18   19 2   
    43   18   20 1   
    44   20   21 ar  
    45   20   26 ar  
    46   21   22 ar  
    47   21   46 1   
    48   22   23 ar  
    49   22   47 1   
    50   23   24 1   
    51   23   25 ar  
    52   25   26 ar  
    53   25   48 1   
    54   26   27 1   
    55   28   49 1   
    56   28   50 1   
@<TRIPOS>SUBSTRUCTURE
     1 WFE         1 TEMP              0 ****  ****    0 ROOT
