@<TRIPOS>MOLECULE
WFF
   36    39     1     0     0
SMALL
bcc


@<TRIPOS>ATOM
      1 C1          0.1470    0.8600    0.3190 ca        1 WFF     -0.100000
      2 C2         -2.7360    2.2990   -1.4140 ca        1 WFF     -0.062000
      3 C3          1.5390    0.8400    0.3090 ca        1 WFF     -0.119000
      4 C4         -2.5400    3.4140   -2.2180 ca        1 WFF     -0.183000
      5 C5          0.1180   -0.2010    2.5030 ca        1 WFF     -0.128000
      6 C6         -2.1790    4.7760   -0.2250 ca        1 WFF     -0.211000
      7 C7         -0.5700    0.3430    1.4070 ca        1 WFF     -0.056800
      8 C8         -2.6550    2.3810   -0.0170 ca        1 WFF     -0.092800
      9 C9          1.5220   -0.2330    2.5140 ca        1 WFF      0.018600
     10 C10         2.2240    0.2960    1.3970 ca        1 WFF      0.088100
     11 C11        -2.2600    4.6580   -1.6200 ca        1 WFF      0.164900
     12 C12        -2.3810    3.6370    0.5740 ca        1 WFF      0.180900
     13 C13        -2.8880    1.2020    0.7900 ce        1 WFF     -0.127400
     14 C14        -2.0150    0.3550    1.4030 cf        1 WFF     -0.009400
     15 C15        -4.2720    0.7260    1.0840 c         1 WFF      0.715800
     16 C16         3.6240   -0.6120    3.6490 c         1 WFF      0.676500
     17 C17        -2.8060   -0.7040    2.1460 c3        1 WFF      0.138600
     18 C18         4.2930    0.2030    2.5560 c3        1 WFF      0.059400
     19 N19         2.2460   -0.7670    3.5880 n         1 WFF     -0.469100
     20 O20        -5.3920    1.1020    0.7770 o         1 WFF     -0.542500
     21 O21         4.2670   -1.0990    4.5920 o         1 WFF     -0.602500
     22 O22         3.6030    0.2250    1.3070 os        1 WFF     -0.309900
     23 O23        -4.1980   -0.4120    1.8870 os        1 WFF     -0.410900
     24 F24        -2.0670    5.7490   -2.3960 f         1 WFF     -0.129900
     25 F25        -2.3060    3.7670    1.9190 f         1 WFF     -0.125900
     26 H1         -0.3980    1.2870   -0.5390 ha        1 WFF      0.152000
     27 H3          2.1070    1.2380   -0.5450 ha        1 WFF      0.161000
     28 H4         -2.6080    3.3380   -3.3130 ha        1 WFF      0.159000
     29 H5         -0.4470   -0.6020    3.3590 ha        1 WFF      0.143000
     30 H6         -1.9680    5.7480    0.2430 ha        1 WFF      0.170000
     31 H7         -2.6600   -0.6500    3.2540 h1        1 WFF      0.085200
     32 H8         -2.6050   -1.7350    1.7600 h1        1 WFF      0.085200
     33 H9          4.4160    1.2570    2.9260 h1        1 WFF      0.094700
     34 H10         5.2930   -0.2450    2.3050 h1        1 WFF      0.094700
     35 H11         1.7630   -1.2400    4.3170 hn        1 WFF      0.339500
     36 H2         -2.9670    1.3280   -1.8810 ha        1 WFF      0.151000
@<TRIPOS>BOND
     1    1    3 ar  
     2    1    7 ar  
     3    1   26 1   
     4    2    4 ar  
     5    2    8 ar  
     6    2   36 1   
     7    3   10 ar  
     8    3   27 1   
     9    4   11 ar  
    10    4   28 1   
    11    5    7 ar  
    12    5    9 ar  
    13    5   29 1   
    14    6   11 ar  
    15    6   12 ar  
    16    6   30 1   
    17    7   14 1   
    18    8   12 ar  
    19    8   13 1   
    20    9   10 ar  
    21    9   19 1   
    22   10   22 1   
    23   11   24 1   
    24   12   25 1   
    25   13   14 2   
    26   13   15 1   
    27   14   17 1   
    28   15   20 2   
    29   15   23 1   
    30   16   18 1   
    31   16   19 1   
    32   16   21 2   
    33   17   23 1   
    34   17   31 1   
    35   17   32 1   
    36   18   22 1   
    37   18   33 1   
    38   18   34 1   
    39   19   35 1   
@<TRIPOS>SUBSTRUCTURE
     1 WFF         1 TEMP              0 ****  ****    0 ROOT
