@<TRIPOS>MOLECULE
WFF
   36    39     1     0     0
SMALL
bcc


@<TRIPOS>ATOM
      1 C1          0.1410    0.8530    0.3200 ca        1 WFF     -0.100000
      2 C2         -2.7370    2.2830   -1.4290 ca        1 WFF     -0.062000
      3 C3          1.5320    0.8290    0.3110 ca        1 WFF     -0.119000
      4 C4         -2.5380    3.3900   -2.2430 ca        1 WFF     -0.183000
      5 C5          0.1070   -0.1860    2.5140 ca        1 WFF     -0.128000
      6 C6         -2.1750    4.7710   -0.2630 ca        1 WFF     -0.211000
      7 C7         -0.5790    0.3490    1.4130 ca        1 WFF     -0.056800
      8 C8         -2.6580    2.3790   -0.0330 ca        1 WFF     -0.092800
      9 C9          1.5110   -0.2220    2.5260 ca        1 WFF      0.018600
     10 C10         2.2150    0.2940    1.4050 ca        1 WFF      0.088100
     11 C11        -2.2550    4.6390   -1.6580 ca        1 WFF      0.164900
     12 C12        -2.3800    3.6400    0.5470 ca        1 WFF      0.180900
     13 C13        -2.8940    1.2080    0.7860 ce        1 WFF     -0.127400
     14 C14        -2.0240    0.3650    1.4080 cf        1 WFF     -0.009400
     15 C15        -4.2790    0.7400    1.0840 c         1 WFF      0.715800
     16 C16         3.6110   -0.5960    3.6660 c         1 WFF      0.676500
     17 C17        -2.8190   -0.6850    2.1600 c3        1 WFF      0.138600
     18 C18         4.2830    0.2070    2.5650 c3        1 WFF      0.059400
     19 N19         2.2320   -0.7480    3.6050 ns        1 WFF     -0.469100
     20 O20        -5.3990    1.1160    0.7730 o         1 WFF     -0.542500
     21 O21         4.2520   -1.0770    4.6140 o         1 WFF     -0.602500
     22 O22         3.5940    0.2180    1.3160 os        1 WFF     -0.309900
     23 O23        -4.2090   -0.3900    1.8970 os        1 WFF     -0.410900
     24 F24        -2.0580    5.7220   -2.4440 f         1 WFF     -0.129900
     25 F25        -2.3060    3.7830    1.8900 f         1 WFF     -0.125900
     26 H1         -0.4030    1.2730   -0.5420 ha        1 WFF      0.152000
     27 H3          2.1020    1.2180   -0.5470 ha        1 WFF      0.161000
     28 H4         -2.6050    3.3040   -3.3370 ha        1 WFF      0.159000
     29 H5         -0.4600   -0.5770    3.3730 ha        1 WFF      0.143000
     30 H6         -1.9610    5.7470    0.1950 ha        1 WFF      0.170000
     31 H7         -2.6730   -0.6200    3.2680 h1        1 WFF      0.085200
     32 H8         -2.6210   -1.7190    1.7850 h1        1 WFF      0.085200
     33 H9          5.2820   -0.2470    2.3200 h1        1 WFF      0.094700
     34 H10         4.4090    1.2640    2.9250 h1        1 WFF      0.094700
     35 H11         1.7480   -1.2130    4.3380 hn        1 WFF      0.339500
     36 H2         -2.9710    1.3080   -1.8860 ha        1 WFF      0.151000
@<TRIPOS>BOND
     1    1    3 ar  
     2    1    7 ar  
     3    1   26 1   
     4    2    4 ar  
     5    2    8 ar  
     6    2   36 1   
     7    3   10 ar  
     8    3   27 1   
     9    4   11 ar  
    10    4   28 1   
    11    5    7 ar  
    12    5    9 ar  
    13    5   29 1   
    14    6   11 ar  
    15    6   12 ar  
    16    6   30 1   
    17    7   14 1   
    18    8   12 ar  
    19    8   13 1   
    20    9   10 ar  
    21    9   19 1   
    22   10   22 1   
    23   11   24 1   
    24   12   25 1   
    25   13   14 2   
    26   13   15 1   
    27   14   17 1   
    28   15   20 2   
    29   15   23 1   
    30   16   18 1   
    31   16   19 1   
    32   16   21 2   
    33   17   23 1   
    34   17   31 1   
    35   17   32 1   
    36   18   22 1   
    37   18   33 1   
    38   18   34 1   
    39   19   35 1   
@<TRIPOS>SUBSTRUCTURE
     1 WFF         1 TEMP              0 ****  ****    0 ROOT
