@<TRIPOS>MOLECULE
WFF
   36    39     1     0     0
SMALL
bcc


@<TRIPOS>ATOM
      1 C1         -0.5600    0.3120    1.0970 ca        1 WFF     -0.100000
      2 C2          3.0740    0.6980    1.2880 ca        1 WFF     -0.062000
      3 C3         -1.7520    0.9790    1.3630 ca        1 WFF     -0.119000
      4 C4          3.6000    1.9760    1.4190 ca        1 WFF     -0.183000
      5 C5         -1.7520   -1.3680   -0.1880 ca        1 WFF     -0.128000
      6 C6          2.9730    2.4610   -0.8900 ca        1 WFF     -0.211000
      7 C7         -0.5490   -0.8580    0.3250 ca        1 WFF     -0.056800
      8 C8          2.4850    0.2690    0.0900 ca        1 WFF     -0.092800
      9 C9         -2.9670   -0.7130    0.0700 ca        1 WFF      0.018600
     10 C10        -2.9490    0.4710    0.8560 ca        1 WFF      0.088100
     11 C11         3.5490    2.8620    0.3250 ca        1 WFF      0.164900
     12 C12         2.4440    1.1640   -1.0050 ca        1 WFF      0.180900
     13 C13         1.9660   -1.0780   -0.0170 ce        1 WFF     -0.127400
     14 C14         0.6920   -1.5520    0.0640 cf        1 WFF     -0.009400
     15 C15         2.8720   -2.2390   -0.2630 c         1 WFF      0.715800
     16 C16        -5.3370   -0.4190   -0.3100 c         1 WFF      0.676500
     17 C17         0.7170   -3.0530   -0.1500 c3        1 WFF      0.138600
     18 C18        -5.2040    0.9650    0.3030 c3        1 WFF      0.059400
     19 N19        -4.1890   -1.1890   -0.4240 n         1 WFF     -0.469100
     20 O20         4.0780   -2.3730   -0.4010 o         1 WFF     -0.542500
     21 O21        -6.4230   -0.8480   -0.7320 o         1 WFF     -0.602500
     22 O22        -4.1170    1.1220    1.2140 os        1 WFF     -0.309900
     23 O23         2.1070   -3.4020   -0.3330 os        1 WFF     -0.410900
     24 F24         4.0600    4.1090    0.4440 f         1 WFF     -0.129900
     25 F25         1.8970    0.7890   -2.1840 f         1 WFF     -0.125900
     26 H1          0.3880    0.7090    1.4960 ha        1 WFF      0.152000
     27 H3         -1.7670    1.8940    1.9740 ha        1 WFF      0.161000
     28 H4          4.0630    2.3010    2.3620 ha        1 WFF      0.159000
     29 H5         -1.7410   -2.2850   -0.7980 ha        1 WFF      0.143000
     30 H6          2.9390    3.1490   -1.7470 ha        1 WFF      0.170000
     31 H7          0.3460   -3.6170    0.7420 h1        1 WFF      0.085200
     32 H8          0.1750   -3.3620   -1.0790 h1        1 WFF      0.085200
     33 H9         -5.0960    1.7110   -0.5300 h1        1 WFF      0.094700
     34 H10        -6.1120    1.1960    0.9230 h1        1 WFF      0.094700
     35 H11        -4.2230   -2.0740   -0.8750 hn        1 WFF      0.339500
     36 H2          3.1250    0.0010    2.1400 ha        1 WFF      0.151000
@<TRIPOS>BOND
     1    1    3 ar  
     2    1    7 ar  
     3    1   26 1   
     4    2    4 ar  
     5    2    8 ar  
     6    2   36 1   
     7    3   10 ar  
     8    3   27 1   
     9    4   11 ar  
    10    4   28 1   
    11    5    7 ar  
    12    5    9 ar  
    13    5   29 1   
    14    6   11 ar  
    15    6   12 ar  
    16    6   30 1   
    17    7   14 1   
    18    8   12 ar  
    19    8   13 1   
    20    9   10 ar  
    21    9   19 1   
    22   10   22 1   
    23   11   24 1   
    24   12   25 1   
    25   13   14 2   
    26   13   15 1   
    27   14   17 1   
    28   15   20 2   
    29   15   23 1   
    30   16   18 1   
    31   16   19 1   
    32   16   21 2   
    33   17   23 1   
    34   17   31 1   
    35   17   32 1   
    36   18   22 1   
    37   18   33 1   
    38   18   34 1   
    39   19   35 1   
@<TRIPOS>SUBSTRUCTURE
     1 WFF         1 TEMP              0 ****  ****    0 ROOT
