@<TRIPOS>MOLECULE
WFG
   39    42     1     0     0
SMALL
bcc


@<TRIPOS>ATOM
      1 C1         -0.1180    0.4960   -0.0100 ca        1 WFG     -0.115000
      2 C2         -1.3730   -2.9640    2.1630 ca        1 WFG     -0.081000
      3 C3         -3.3880   -2.8260    3.4970 ca        1 WFG     -0.081000
      4 C4          1.2610    0.6640   -0.1000 ca        1 WFG     -0.118000
      5 C5         -1.0280   -4.1560    2.7880 ca        1 WFG     -0.172500
      6 C6         -3.0560   -4.0130    4.1360 ca        1 WFG     -0.172500
      7 C7          0.0880   -0.1950    2.3090 ca        1 WFG     -0.128000
      8 C8         -2.5490   -2.2800    2.5110 ca        1 WFG     -0.068800
      9 C9         -0.7100    0.0660    1.1870 ca        1 WFG     -0.051800
     10 C10         1.4820   -0.0300    2.2420 ca        1 WFG      0.019600
     11 C11         2.0570    0.4030    1.0180 ca        1 WFG      0.081100
     12 C12        -1.8700   -4.6850    3.7850 ca        1 WFG      0.140900
     13 C13        -2.9120   -1.0480    1.8490 ce        1 WFG     -0.103400
     14 C14        -2.1470   -0.0780    1.2730 cf        1 WFG     -0.039400
     15 C15        -4.3430   -0.6570    1.6700 c         1 WFG      0.713800
     16 C16         3.6570    0.0690    3.2940 c         1 WFG      0.675500
     17 C17         4.1600    0.7820    2.0510 c3        1 WFG      0.059400
     18 C18        -3.0580    0.9780    0.6600 c3        1 WFG      0.160300
     19 C19        -2.8640    2.3610    1.2360 c3        1 WFG     -0.100100
     20 N20         2.3140   -0.2790    3.3410 ns        1 WFG     -0.468100
     21 O21        -5.4120   -1.1450    2.0100 o         1 WFG     -0.557500
     22 O22         4.4000   -0.1690    4.2600 o         1 WFG     -0.602500
     23 O23         3.4290    0.5080    0.8560 os        1 WFG     -0.309900
     24 O24        -4.4110    0.5320    0.9560 os        1 WFG     -0.409900
     25 F25        -1.5390   -5.8420    4.4030 f         1 WFG     -0.135900
     26 H1         -0.7450    0.6980   -0.8920 ha        1 WFG      0.144000
     27 H3         -4.3310   -2.3130    3.7550 ha        1 WFG      0.155000
     28 H4          1.7340    0.9890   -1.0380 ha        1 WFG      0.160000
     29 H5         -0.1090   -4.6910    2.5100 ha        1 WFG      0.154000
     30 H6         -3.7140   -4.4370    4.9090 ha        1 WFG      0.154000
     31 H7         -0.3890   -0.5400    3.2410 ha        1 WFG      0.155000
     32 H8          5.2050    0.4410    1.8130 h1        1 WFG      0.094200
     33 H9          4.1430    1.8890    2.2470 h1        1 WFG      0.094200
     34 H10        -2.9710    0.9820   -0.4610 h1        1 WFG      0.085700
     35 H11        -3.6140    3.0600    0.7920 hc        1 WFG      0.057033
     36 H12        -3.0030    2.3530    2.3430 hc        1 WFG      0.057033
     37 H13        -1.8350    2.7210    0.9980 hc        1 WFG      0.057033
     38 H14         1.9320   -0.6970    4.1590 hn        1 WFG      0.341500
     39 H2         -0.7150   -2.5510    1.3810 ha        1 WFG      0.155000
@<TRIPOS>BOND
     1    1    4 ar  
     2    1    9 ar  
     3    1   26 1   
     4    2    5 ar  
     5    2    8 ar  
     6    2   39 1   
     7    3    6 ar  
     8    3    8 ar  
     9    3   27 1   
    10    4   11 ar  
    11    4   28 1   
    12    5   12 ar  
    13    5   29 1   
    14    6   12 ar  
    15    6   30 1   
    16    7    9 ar  
    17    7   10 ar  
    18    7   31 1   
    19    8   13 1   
    20    9   14 1   
    21   10   11 ar  
    22   10   20 1   
    23   11   23 1   
    24   12   25 1   
    25   13   14 2   
    26   13   15 1   
    27   14   18 1   
    28   15   21 2   
    29   15   24 1   
    30   16   17 1   
    31   16   20 1   
    32   16   22 2   
    33   17   23 1   
    34   17   32 1   
    35   17   33 1   
    36   18   19 1   
    37   18   24 1   
    38   18   34 1   
    39   19   35 1   
    40   19   36 1   
    41   19   37 1   
    42   20   38 1   
@<TRIPOS>SUBSTRUCTURE
     1 WFG         1 TEMP              0 ****  ****    0 ROOT
