@<TRIPOS>MOLECULE
WFG
   39    42     1     0     0
SMALL
bcc


@<TRIPOS>ATOM
      1 C1         -0.9400    2.0600    1.4180 ca        1 WFG     -0.115000
      2 C2          1.2950   -1.5160    0.7110 ca        1 WFG     -0.081000
      3 C3          3.0890   -1.4570   -0.9130 ca        1 WFG     -0.081000
      4 C4         -2.2910    1.8630    1.6880 ca        1 WFG     -0.118000
      5 C5          1.3380   -2.9040    0.7240 ca        1 WFG     -0.172500
      6 C6          3.1420   -2.8450   -0.9170 ca        1 WFG     -0.172500
      7 C7         -1.0070    0.3520   -0.3070 ca        1 WFG     -0.128000
      8 C8          2.1600   -0.7740   -0.1080 ca        1 WFG     -0.068800
      9 C9         -0.2920    1.3090    0.4260 ca        1 WFG     -0.051800
     10 C10        -2.3720    0.1370   -0.0530 ca        1 WFG      0.019600
     11 C11        -3.0040    0.9080    0.9590 ca        1 WFG      0.081100
     12 C12         2.2620   -3.5770   -0.0970 ca        1 WFG      0.140900
     13 C13         2.1230    0.6700   -0.1100 ce        1 WFG     -0.103400
     14 C14         1.1070    1.5430    0.1380 cf        1 WFG     -0.039400
     15 C15         3.3510    1.4770   -0.3870 c         1 WFG      0.713800
     16 C16        -4.5000   -0.8630   -0.6150 c         1 WFG      0.675500
     17 C17        -5.1560    0.1730    0.2820 c3        1 WFG      0.059400
     18 C18         1.6410    2.9680    0.0640 c3        1 WFG      0.160300
     19 C19         0.9760    3.8170   -0.9930 c3        1 WFG     -0.100100
     20 N20        -3.1220   -0.8070   -0.7640 n         1 WFG     -0.468100
     21 O21         4.5050    1.2030   -0.6850 o         1 WFG     -0.557500
     22 O22        -5.1640   -1.7130   -1.2300 o         1 WFG     -0.602500
     23 O23        -4.3240    0.6940    1.3170 os        1 WFG     -0.309900
     24 O24         3.0510    2.8280   -0.2670 os        1 WFG     -0.409900
     25 F25         2.3070   -4.9290   -0.0950 f         1 WFG     -0.135900
     26 H1         -0.3770    2.8090    1.9950 ha        1 WFG      0.144000
     27 H3          3.7960   -0.8830   -1.5370 ha        1 WFG      0.155000
     28 H4         -2.8040    2.4390    2.4720 ha        1 WFG      0.160000
     29 H5          0.6610   -3.4820    1.3710 ha        1 WFG      0.154000
     30 H6          3.8680   -3.3770   -1.5490 ha        1 WFG      0.154000
     31 H7         -0.4830   -0.2370   -1.0780 ha        1 WFG      0.155000
     32 H8         -5.5160    1.0210   -0.3620 h1        1 WFG      0.094200
     33 H9         -6.0170   -0.2930    0.8350 h1        1 WFG      0.094200
     34 H10         1.6080    3.4620    1.0730 h1        1 WFG      0.085700
     35 H11        -0.1030    3.9470   -0.7380 hc        1 WFG      0.057033
     36 H12         1.4700    4.8180   -1.0360 hc        1 WFG      0.057033
     37 H13         1.0600    3.3390   -1.9980 hc        1 WFG      0.057033
     38 H14        -2.6590   -1.4320   -1.3850 hn        1 WFG      0.341500
     39 H2          0.5730   -0.9890    1.3560 ha        1 WFG      0.155000
@<TRIPOS>BOND
     1    1    4 ar  
     2    1    9 ar  
     3    1   26 1   
     4    2    5 ar  
     5    2    8 ar  
     6    2   39 1   
     7    3    6 ar  
     8    3    8 ar  
     9    3   27 1   
    10    4   11 ar  
    11    4   28 1   
    12    5   12 ar  
    13    5   29 1   
    14    6   12 ar  
    15    6   30 1   
    16    7    9 ar  
    17    7   10 ar  
    18    7   31 1   
    19    8   13 1   
    20    9   14 1   
    21   10   11 ar  
    22   10   20 1   
    23   11   23 1   
    24   12   25 1   
    25   13   14 2   
    26   13   15 1   
    27   14   18 1   
    28   15   21 2   
    29   15   24 1   
    30   16   17 1   
    31   16   20 1   
    32   16   22 2   
    33   17   23 1   
    34   17   32 1   
    35   17   33 1   
    36   18   19 1   
    37   18   24 1   
    38   18   34 1   
    39   19   35 1   
    40   19   36 1   
    41   19   37 1   
    42   20   38 1   
@<TRIPOS>SUBSTRUCTURE
     1 WFG         1 TEMP              0 ****  ****    0 ROOT
