@<TRIPOS>MOLECULE
WFG
   39    42     1     0     0
SMALL
bcc


@<TRIPOS>ATOM
      1 C1         -0.1080    0.5750    0.0360 ca        1 WFG     -0.115000
      2 C2         -1.3340   -2.9350    2.1490 ca        1 WFG     -0.081000
      3 C3         -3.3770   -2.8520    3.4450 ca        1 WFG     -0.081000
      4 C4          1.2680    0.7710   -0.0270 ca        1 WFG     -0.118000
      5 C5         -0.9790   -4.1280    2.7660 ca        1 WFG     -0.172000
      6 C6         -3.0340   -4.0400    4.0770 ca        1 WFG     -0.172000
      7 C7          0.0710   -0.1400    2.3500 ca        1 WFG     -0.127000
      8 C8         -2.5300   -2.2780    2.4820 ca        1 WFG     -0.068800
      9 C9         -0.7120    0.1190    1.2170 ca        1 WFG     -0.051800
     10 C10         1.4600    0.0700    2.3150 ca        1 WFG      0.019600
     11 C11         2.0480    0.5280    1.1060 ca        1 WFG      0.081100
     12 C12        -1.8290   -4.6850    3.7400 ca        1 WFG      0.140900
     13 C13        -2.9040   -1.0460    1.8280 ce        1 WFG     -0.104400
     14 C14        -2.1480   -0.0550    1.2760 cf        1 WFG     -0.039400
     15 C15        -4.3390   -0.6790    1.6270 c         1 WFG      0.713800
     16 C16         3.6570   -0.1200    3.3060 c         1 WFG      0.675500
     17 C17         4.2370    0.1050    1.9200 c3        1 WFG      0.059400
     18 C18        -3.0670    0.9920    0.6600 c3        1 WFG      0.160300
     19 C19        -2.9110    2.3710    1.2570 c3        1 WFG     -0.101100
     20 N20         2.2760   -0.1610    3.4300 n         1 WFG     -0.468100
     21 O21        -5.4050   -1.1920    1.9410 o         1 WFG     -0.557500
     22 O22         4.3820   -0.3010    4.2980 o         1 WFG     -0.602500
     23 O23         3.3970    0.8280    1.0210 os        1 WFG     -0.309900
     24 O24        -4.4170    0.5170    0.9260 os        1 WFG     -0.408900
     25 F25        -1.4880   -5.8430    4.3510 f         1 WFG     -0.135900
     26 H1         -0.7240    0.7720   -0.8550 ha        1 WFG      0.144000
     27 H3         -4.3340   -2.3600    3.6920 ha        1 WFG      0.154500
     28 H4          1.7500    1.1260   -0.9500 ha        1 WFG      0.160000
     29 H5         -0.0440   -4.6430    2.5000 ha        1 WFG      0.154000
     30 H6         -3.6980   -4.4860    4.8320 ha        1 WFG      0.154000
     31 H7         -0.4150   -0.5050    3.2690 ha        1 WFG      0.155000
     32 H8          5.1630    0.7380    1.9930 h1        1 WFG      0.094200
     33 H9          4.4800   -0.8960    1.4710 h1        1 WFG      0.094200
     34 H10        -2.9600    1.0120   -0.4580 h1        1 WFG      0.085700
     35 H11        -3.6650    3.0610    0.8070 hc        1 WFG      0.057367
     36 H12        -3.0700    2.3460    2.3610 hc        1 WFG      0.057367
     37 H13        -1.8840    2.7530    1.0430 hc        1 WFG      0.057367
     38 H14         1.8570   -0.3630    4.3090 hn        1 WFG      0.341500
     39 H2         -0.6700   -2.5000    1.3850 ha        1 WFG      0.154500
@<TRIPOS>BOND
     1    1    4 ar  
     2    1    9 ar  
     3    1   26 1   
     4    2    5 ar  
     5    2    8 ar  
     6    2   39 1   
     7    3    6 ar  
     8    3    8 ar  
     9    3   27 1   
    10    4   11 ar  
    11    4   28 1   
    12    5   12 ar  
    13    5   29 1   
    14    6   12 ar  
    15    6   30 1   
    16    7    9 ar  
    17    7   10 ar  
    18    7   31 1   
    19    8   13 1   
    20    9   14 1   
    21   10   11 ar  
    22   10   20 1   
    23   11   23 1   
    24   12   25 1   
    25   13   14 2   
    26   13   15 1   
    27   14   18 1   
    28   15   21 2   
    29   15   24 1   
    30   16   17 1   
    31   16   20 1   
    32   16   22 2   
    33   17   23 1   
    34   17   32 1   
    35   17   33 1   
    36   18   19 1   
    37   18   24 1   
    38   18   34 1   
    39   19   35 1   
    40   19   36 1   
    41   19   37 1   
    42   20   38 1   
@<TRIPOS>SUBSTRUCTURE
     1 WFG         1 TEMP              0 ****  ****    0 ROOT
