@<TRIPOS>MOLECULE
WFP
   22    22     1     0     0
SMALL
bcc


@<TRIPOS>ATOM
      1 C          -3.3700    0.2350   -0.1110 c         1 WFP      0.888600
      2 N          -1.8060   -1.3070    1.1750 n3        1 WFP     -0.887800
      3 O          -4.3120   -0.4950    0.3060 o         1 WFP     -0.837300
      4 F1          3.4810   -2.0510   -0.5620 f         1 WFP     -0.155900
      5 F2          2.8120    2.4550    0.8260 f         1 WFP     -0.155900
      6 CA         -1.9170   -0.0950    0.3760 c3        1 WFP      0.021500
      7 CB         -1.0000   -0.1010   -0.8540 c3        1 WFP     -0.042100
      8 CG          0.4420   -0.0060   -0.5010 ca        1 WFP      0.022700
      9 CZ          3.1860    0.2060    0.1400 ca        1 WFP     -0.234000
     10 CD1         1.2940   -1.0980   -0.6940 ca        1 WFP     -0.179000
     11 CD2         0.9530    1.1930    0.0110 ca        1 WFP     -0.179000
     12 CE1         2.6570   -0.9890   -0.3730 ca        1 WFP      0.137400
     13 CE2         2.3160    1.2930    0.3300 ca        1 WFP      0.137400
     14 OXT        -3.5110    1.2280   -0.8770 o         1 WFP     -0.837300
     15 H          -2.5350   -1.2710    1.8690 hn        1 WFP      0.332800
     16 H2         -2.0190   -2.0950    0.5880 hn        1 WFP      0.332800
     17 HA         -1.6040    0.7620    1.0420 h1        1 WFP      0.044700
     18 HB2        -1.1900   -1.0200   -1.4670 hc        1 WFP      0.067700
     19 HB3        -1.2950    0.7910   -1.4780 hc        1 WFP      0.067700
     20 HZ          4.2510    0.2880    0.3900 ha        1 WFP      0.145000
     21 HD1         0.9000   -2.0480   -1.0810 ha        1 WFP      0.156000
     22 HD2         0.2830    2.0510    0.1710 ha        1 WFP      0.156000
@<TRIPOS>BOND
     1    1    3 1   
     2    1    6 1   
     3    1   14 1   
     4    2    6 1   
     5    2   15 1   
     6    2   16 1   
     7    4   12 1   
     8    5   13 1   
     9    6    7 1   
    10    6   17 1   
    11    7    8 1   
    12    7   18 1   
    13    7   19 1   
    14    8   10 ar  
    15    8   11 ar  
    16    9   12 ar  
    17    9   13 ar  
    18    9   20 1   
    19   10   12 ar  
    20   10   21 1   
    21   11   13 ar  
    22   11   22 1   
@<TRIPOS>SUBSTRUCTURE
     1 WFP         1 TEMP              0 ****  ****    0 ROOT
