@<TRIPOS>MOLECULE
WG8
   28    30     1     0     0
SMALL
bcc


@<TRIPOS>ATOM
      1 CAF        -0.0510   -0.4730    0.1040 ca        1 WG8     -0.190300
      2 CAH         1.3180   -0.4800    0.0830 ca        1 WG8     -0.112000
      3 CAQ         2.0460   -0.1550    1.2650 ca        1 WG8     -0.114300
      4 CAG         3.4620   -0.1470    1.3000 ca        1 WG8     -0.154000
      5 CAD         4.1270    0.1720    2.4600 ca        1 WG8     -0.102000
      6 CAE         3.4190    0.4960    3.6330 ca        1 WG8     -0.189000
      7 CAO         2.0330    0.4970    3.6310 ca        1 WG8      0.098800
      8 OAC         1.4230    0.8250    4.8160 oh        1 WG8     -0.507100
      9 CAR         1.2960    0.1690    2.4350 ca        1 WG8      0.338600
     10 NAK        -0.0830    0.1780    2.4530 nb        1 WG8     -0.671000
     11 CAP        -0.7260   -0.1350    1.3320 ca        1 WG8      0.444000
     12 CAN        -2.2020   -0.1600    1.3130 ce        1 WG8      0.325200
     13 N          -2.9220    0.4190    0.4010 n2        1 WG8     -0.498900
     14 SAL        -3.0490   -1.0530    2.5600 ss        1 WG8     -0.348300
     15 CB         -4.6280   -0.7240    1.7670 c3        1 WG8      0.001700
     16 CA         -4.3390    0.1940    0.5620 c3        1 WG8     -0.053500
     17 C          -5.0070   -0.4230   -0.7420 c         1 WG8      0.945600
     18 O          -5.7880    0.3430   -1.3570 o         1 WG8     -0.804800
     19 OXT        -4.7360   -1.6150   -1.0210 o         1 WG8     -0.804800
     20 HAF        -0.6570   -0.7150   -0.7830 ha        1 WG8      0.178000
     21 HAH         1.8750   -0.7310   -0.8310 ha        1 WG8      0.135000
     22 HAG         4.0130   -0.4010    0.3840 ha        1 WG8      0.128000
     23 HAD         5.2270    0.1790    2.4890 ha        1 WG8      0.124000
     24 HAE         3.9590    0.7500    4.5550 ha        1 WG8      0.142000
     25 HAC         0.4600    0.7800    4.7010 ho        1 WG8      0.452000
     26 HA         -4.8170    1.2040    0.7140 h1        1 WG8      0.084700
     27 HB1C       -5.3140   -0.2410    2.4950 h1        1 WG8      0.075700
     28 HB2C       -5.0660   -1.6880    1.4140 h1        1 WG8      0.075700
@<TRIPOS>BOND
     1    1    2 ar  
     2    1   11 ar  
     3    1   20 1   
     4    2    3 ar  
     5    2   21 1   
     6    3    4 ar  
     7    3    9 ar  
     8    4    5 ar  
     9    4   22 1   
    10    5    6 ar  
    11    5   23 1   
    12    6    7 ar  
    13    6   24 1   
    14    7    8 1   
    15    7    9 ar  
    16    8   25 1   
    17    9   10 ar  
    18   10   11 ar  
    19   11   12 1   
    20   12   13 2   
    21   12   14 1   
    22   13   16 1   
    23   14   15 1   
    24   15   16 1   
    25   15   27 1   
    26   15   28 1   
    27   16   17 1   
    28   16   26 1   
    29   17   18 1   
    30   17   19 1   
@<TRIPOS>SUBSTRUCTURE
     1 WG8         1 TEMP              0 ****  ****    0 ROOT
