@<TRIPOS>MOLECULE
WG8
   28    30     1     0     0
SMALL
bcc


@<TRIPOS>ATOM
      1 CAF        -0.0480   -0.4870    0.1080 ca        1 WG8     -0.190300
      2 CAH         1.3210   -0.4990    0.0920 ca        1 WG8     -0.112000
      3 CAQ         2.0470   -0.1690    1.2740 ca        1 WG8     -0.114300
      4 CAG         3.4620   -0.1670    1.3130 ca        1 WG8     -0.154000
      5 CAD         4.1260    0.1590    2.4720 ca        1 WG8     -0.102000
      6 CAE         3.4150    0.4950    3.6400 ca        1 WG8     -0.189000
      7 CAO         2.0290    0.5020    3.6340 ca        1 WG8      0.098800
      8 OAC         1.4170    0.8420    4.8140 oh        1 WG8     -0.507100
      9 CAR         1.2950    0.1680    2.4380 ca        1 WG8      0.338600
     10 NAK        -0.0850    0.1830    2.4520 nb        1 WG8     -0.671000
     11 CAP        -0.7260   -0.1360    1.3320 ca        1 WG8      0.444000
     12 CAN        -2.2020   -0.1540    1.3080 ce        1 WG8      0.325200
     13 N          -2.9160    0.4210    0.3900 n2        1 WG8     -0.498900
     14 SAL        -3.0560   -1.0340    2.5600 ss        1 WG8     -0.348300
     15 CB         -4.6320   -0.7030    1.7590 c3        1 WG8      0.001700
     16 CA         -4.3350    0.2030    0.5480 c3        1 WG8     -0.053500
     17 C          -5.0020   -0.4200   -0.7520 c         1 WG8      0.945600
     18 O          -5.7770    0.3440   -1.3760 o         1 WG8     -0.804800
     19 OXT        -4.7360   -1.6170   -1.0210 o         1 WG8     -0.804800
     20 HAF        -0.6530   -0.7320   -0.7790 ha        1 WG8      0.178000
     21 HAH         1.8790   -0.7600   -0.8190 ha        1 WG8      0.135000
     22 HAG         4.0150   -0.4300    0.4000 ha        1 WG8      0.128000
     23 HAD         5.2250    0.1610    2.5040 ha        1 WG8      0.124000
     24 HAE         3.9540    0.7540    4.5620 ha        1 WG8      0.142000
     25 HAC         0.4540    0.8000    4.6970 ho        1 WG8      0.452000
     26 HA         -4.8090    1.2160    0.6900 h1        1 WG8      0.084700
     27 HB1C       -5.0720   -1.6680    1.4130 h1        1 WG8      0.075700
     28 HB2C       -5.3170   -0.2120    2.4820 h1        1 WG8      0.075700
@<TRIPOS>BOND
     1    1    2 ar  
     2    1   11 ar  
     3    1   20 1   
     4    2    3 ar  
     5    2   21 1   
     6    3    4 ar  
     7    3    9 ar  
     8    4    5 ar  
     9    4   22 1   
    10    5    6 ar  
    11    5   23 1   
    12    6    7 ar  
    13    6   24 1   
    14    7    8 1   
    15    7    9 ar  
    16    8   25 1   
    17    9   10 ar  
    18   10   11 ar  
    19   11   12 1   
    20   12   13 2   
    21   12   14 1   
    22   13   16 1   
    23   14   15 1   
    24   15   16 1   
    25   15   27 1   
    26   15   28 1   
    27   16   17 1   
    28   16   26 1   
    29   17   18 1   
    30   17   19 1   
@<TRIPOS>SUBSTRUCTURE
     1 WG8         1 TEMP              0 ****  ****    0 ROOT
