@<TRIPOS>MOLECULE
WGG
   39    41     1     0     0
SMALL
bcc


@<TRIPOS>ATOM
      1 C18        -0.1880    0.1320   -0.0640 ca        1 WGG     -0.102000
      2 C17         1.2090    0.0960   -0.1110 ca        1 WGG     -0.090000
      3 C7          8.0590   -1.2200    6.7990 ca        1 WGG     -0.080000
      4 C19        -0.8490    0.1170    1.1620 ca        1 WGG     -0.059000
      5 C8          6.6770   -1.2760    6.9790 ca        1 WGG     -0.134000
      6 C16         1.9640    0.0440    1.0550 ca        1 WGG     -0.091000
      7 C6          8.6860   -0.0220    6.4640 ca        1 WGG     -0.158000
      8 C4          6.5200    1.1010    6.5020 ca        1 WGG     -0.152000
      9 C20        -0.1100    0.0660    2.3460 ca        1 WGG     -0.151600
     10 C3          5.9140   -0.1120    6.8340 ca        1 WGG     -0.153300
     11 C15         1.3140    0.0280    2.3090 ca        1 WGG      0.137400
     12 C5          7.9130    1.1410    6.3140 ca        1 WGG      0.147100
     13 C21        -0.8030    0.0490    3.6490 c         1 WGG      0.713100
     14 C13         1.4110   -0.0370    4.6380 cc        1 WGG      0.417900
     15 C11         2.2140   -0.0940    5.9190 c         1 WGG      0.461800
     16 C10         9.8300    2.4840    5.8590 c3        1 WGG      0.106700
     17 C2          4.4440   -0.1490    7.0720 c3        1 WGG      0.176100
     18 N14         2.0640   -0.0240    3.4900 nd        1 WGG     -0.598100
     19 N23         0.0310   -0.0040    4.7950 n         1 WGG     -0.478400
     20 N1          3.7040   -0.1130    5.7610 n4        1 WGG     -0.658800
     21 O22        -2.0260    0.0770    3.8240 o         1 WGG     -0.551500
     22 O12         1.7490   -0.1260    7.0490 o         1 WGG     -0.398100
     23 O9          8.4110    2.3760    5.9750 os        1 WGG     -0.318900
     24 H1         -0.7690    0.1730   -1.0000 ha        1 WGG      0.165000
     25 H2          1.7210    0.1080   -1.0880 ha        1 WGG      0.161000
     26 H3          8.6630   -2.1330    6.9250 ha        1 WGG      0.161000
     27 H4         -1.9520    0.1460    1.2140 ha        1 WGG      0.179000
     28 H5          6.1990   -2.2280    7.2550 ha        1 WGG      0.145000
     29 H6          3.0640    0.0150    0.9990 ha        1 WGG      0.158000
     30 H7          9.7780    0.0060    6.3260 ha        1 WGG      0.164000
     31 H8          5.9410    2.0320    6.4100 ha        1 WGG      0.151000
     32 H9         10.3250    2.2130    6.8230 h1        1 WGG      0.060367
     33 H10         9.9820    3.5690    5.6250 h1        1 WGG      0.060367
     34 H11        10.2030    1.8420    5.0250 h1        1 WGG      0.060367
     35 H12         4.1070    0.7420    7.6770 hx        1 WGG      0.117200
     36 H13         4.1340   -1.0880    7.6160 hx        1 WGG      0.117200
     37 H14        -0.3820   -0.0180    5.7050 hn        1 WGG      0.362500
     38 H15         3.9960    0.7240    5.2340 hn        1 WGG      0.477300
     39 H121        3.9680   -0.9340    5.1980 hn        1 WGG      0.477300
@<TRIPOS>BOND
     1    1    2 ar  
     2    1    4 ar  
     3    1   24 1   
     4    2    6 ar  
     5    2   25 1   
     6    3    5 ar  
     7    3    7 ar  
     8    3   26 1   
     9    4    9 ar  
    10    4   27 1   
    11    5   10 ar  
    12    5   28 1   
    13    6   11 ar  
    14    6   29 1   
    15    7   12 ar  
    16    7   30 1   
    17    8   10 ar  
    18    8   12 ar  
    19    8   31 1   
    20    9   11 ar  
    21    9   13 1   
    22   10   17 1   
    23   11   18 1   
    24   12   23 1   
    25   13   19 1   
    26   13   21 2   
    27   14   15 1   
    28   14   18 2   
    29   14   19 1   
    30   15   20 1   
    31   15   22 2   
    32   16   23 1   
    33   16   32 1   
    34   16   33 1   
    35   16   34 1   
    36   17   20 1   
    37   17   35 1   
    38   17   36 1   
    39   19   37 1   
    40   20   38 1   
    41   20   39 1   
@<TRIPOS>SUBSTRUCTURE
     1 WGG         1 TEMP              0 ****  ****    0 ROOT
