@<TRIPOS>MOLECULE
WGG
   38    40     1     0     0
SMALL
bcc


@<TRIPOS>ATOM
      1 C18         0.0890    0.3740   -0.0300 ca        1 WGG     -0.146000
      2 C17         1.4030    0.8560    0.0320 ca        1 WGG     -0.096000
      3 C7          7.5870   -1.1710    7.1210 ca        1 WGG     -0.095000
      4 C19        -0.5130   -0.1530    1.1030 ca        1 WGG     -0.061000
      5 C8          6.2470   -0.9340    7.4160 ca        1 WGG     -0.143000
      6 C16         2.1230    0.8180    1.2160 ca        1 WGG     -0.118000
      7 C6          8.3520   -0.2110    6.4590 ca        1 WGG     -0.194000
      8 C4          6.4020    1.2540    6.3880 ca        1 WGG     -0.149000
      9 C20         0.1960   -0.2000    2.3100 ca        1 WGG     -0.181600
     10 C3          5.6560    0.2810    7.0510 ca        1 WGG     -0.092300
     11 C15         1.5290    0.2870    2.3870 ca        1 WGG      0.175400
     12 C5          7.7540    1.0010    6.0930 ca        1 WGG      0.124100
     13 C21        -0.4320   -0.7660    3.5190 c         1 WGG      0.708100
     14 C13         1.6590   -0.2610    4.6490 cc        1 WGG      0.453900
     15 C11         2.4270   -0.3540    5.9780 c         1 WGG      0.581800
     16 C10         9.7720    1.8050    5.1180 c3        1 WGG      0.113700
     17 C2          4.2170    0.5520    7.3910 c3        1 WGG      0.121300
     18 N14         2.2520    0.2500    3.5870 nd        1 WGG     -0.616100
     19 N23         0.3580   -0.7600    4.6820 n         1 WGG     -0.473400
     20 N1          3.3470    0.6310    6.2410 n         1 WGG     -0.521900
     21 O22        -1.5830   -1.2310    3.5760 o         1 WGG     -0.612500
     22 O12         2.1350   -1.2580    6.7830 o         1 WGG     -0.595100
     23 O9          8.4030    2.0280    5.4350 os        1 WGG     -0.327900
     24 H1         -0.4640    0.4140   -0.9810 ha        1 WGG      0.142000
     25 H2          1.8710    1.2700   -0.8750 ha        1 WGG      0.139000
     26 H3          8.0510   -2.1260    7.4110 ha        1 WGG      0.136000
     27 H4         -1.5460   -0.5390    1.0760 ha        1 WGG      0.161000
     28 H5          5.6520   -1.7020    7.9330 ha        1 WGG      0.143000
     29 H6          3.1560    1.1980    1.2520 ha        1 WGG      0.153000
     30 H7          9.4080   -0.4130    6.2330 ha        1 WGG      0.139000
     31 H8          5.9560    2.2150    6.0960 ha        1 WGG      0.148000
     32 H9         10.0750    2.7490    4.5990 h1        1 WGG      0.045367
     33 H10        10.3730    1.6550    6.0480 h1        1 WGG      0.045367
     34 H11         9.8810    0.9280    4.4350 h1        1 WGG      0.045367
     35 H12         3.8310   -0.2430    8.0920 h1        1 WGG      0.076700
     36 H13         4.1560    1.5490    7.9210 h1        1 WGG      0.076700
     37 H14         0.0190   -1.1880    5.5190 hn        1 WGG      0.358500
     38 H15         3.6600    1.2120    5.4940 hn        1 WGG      0.333500
@<TRIPOS>BOND
     1    1    2 ar  
     2    1    4 ar  
     3    1   24 1   
     4    2    6 ar  
     5    2   25 1   
     6    3    5 ar  
     7    3    7 ar  
     8    3   26 1   
     9    4    9 ar  
    10    4   27 1   
    11    5   10 ar  
    12    5   28 1   
    13    6   11 ar  
    14    6   29 1   
    15    7   12 ar  
    16    7   30 1   
    17    8   10 ar  
    18    8   12 ar  
    19    8   31 1   
    20    9   11 ar  
    21    9   13 1   
    22   10   17 1   
    23   11   18 1   
    24   12   23 1   
    25   13   19 1   
    26   13   21 2   
    27   14   15 1   
    28   14   18 2   
    29   14   19 1   
    30   15   20 1   
    31   15   22 2   
    32   16   23 1   
    33   16   32 1   
    34   16   33 1   
    35   16   34 1   
    36   17   20 1   
    37   17   35 1   
    38   17   36 1   
    39   19   37 1   
    40   20   38 1   
@<TRIPOS>SUBSTRUCTURE
     1 WGG         1 TEMP              0 ****  ****    0 ROOT
