@<TRIPOS>MOLECULE
WGG
   39    41     1     0     0
SMALL
bcc


@<TRIPOS>ATOM
      1 C18        -0.1920    0.1350   -0.0600 ca        1 WGG     -0.102000
      2 C17         1.2050    0.1030   -0.1080 ca        1 WGG     -0.090000
      3 C7          8.0610   -1.2200    6.7960 ca        1 WGG     -0.080000
      4 C19        -0.8520    0.1160    1.1660 ca        1 WGG     -0.059000
      5 C8          6.6780   -1.2760    6.9780 ca        1 WGG     -0.134000
      6 C16         1.9620    0.0510    1.0570 ca        1 WGG     -0.091000
      7 C6          8.6870   -0.0230    6.4600 ca        1 WGG     -0.158000
      8 C4          6.5210    1.1010    6.5000 ca        1 WGG     -0.152000
      9 C20        -0.1120    0.0640    2.3500 ca        1 WGG     -0.151600
     10 C3          5.9160   -0.1120    6.8330 ca        1 WGG     -0.153300
     11 C15         1.3120    0.0310    2.3120 ca        1 WGG      0.137400
     12 C5          7.9150    1.1400    6.3100 ca        1 WGG      0.147100
     13 C21        -0.8040    0.0430    3.6530 c         1 WGG      0.713100
     14 C13         1.4110   -0.0380    4.6410 cc        1 WGG      0.417900
     15 C11         2.2150   -0.0950    5.9200 c         1 WGG      0.461800
     16 C10         9.8320    2.4820    5.8540 c3        1 WGG      0.106700
     17 C2          4.4460   -0.1490    7.0720 c3        1 WGG      0.176100
     18 N14         2.0630   -0.0210    3.4920 nd        1 WGG     -0.598100
     19 N23         0.0310   -0.0090    4.7980 ns        1 WGG     -0.478400
     20 N1          3.7050   -0.1130    5.7620 ny        1 WGG     -0.658800
     21 O22        -2.0270    0.0680    3.8280 o         1 WGG     -0.551500
     22 O12         1.7510   -0.1270    7.0510 o         1 WGG     -0.398100
     23 O9          8.4130    2.3750    5.9710 os        1 WGG     -0.318900
     24 H1         -0.7740    0.1760   -0.9960 ha        1 WGG      0.165000
     25 H2          1.7160    0.1190   -1.0850 ha        1 WGG      0.161000
     26 H3          8.6640   -2.1340    6.9220 ha        1 WGG      0.161000
     27 H4         -1.9550    0.1410    1.2190 ha        1 WGG      0.179000
     28 H5          6.2010   -2.2280    7.2530 ha        1 WGG      0.145000
     29 H6          3.0610    0.0260    1.0000 ha        1 WGG      0.158000
     30 H7          9.7790    0.0050    6.3210 ha        1 WGG      0.164000
     31 H8          5.9430    2.0310    6.4080 ha        1 WGG      0.151000
     32 H9         10.3270    2.2120    6.8170 h1        1 WGG      0.060367
     33 H10        10.2030    1.8400    5.0190 h1        1 WGG      0.060367
     34 H11         9.9840    3.5670    5.6190 h1        1 WGG      0.060367
     35 H12         4.1100    0.7430    7.6770 hx        1 WGG      0.117200
     36 H13         4.1360   -1.0870    7.6160 hx        1 WGG      0.117200
     37 H14        -0.3810   -0.0260    5.7080 hn        1 WGG      0.362500
     38 H15         3.9960    0.7240    5.2350 hn        1 WGG      0.477300
     39 H121        3.9690   -0.9340    5.1980 hn        1 WGG      0.477300
@<TRIPOS>BOND
     1    1    2 ar  
     2    1    4 ar  
     3    1   24 1   
     4    2    6 ar  
     5    2   25 1   
     6    3    5 ar  
     7    3    7 ar  
     8    3   26 1   
     9    4    9 ar  
    10    4   27 1   
    11    5   10 ar  
    12    5   28 1   
    13    6   11 ar  
    14    6   29 1   
    15    7   12 ar  
    16    7   30 1   
    17    8   10 ar  
    18    8   12 ar  
    19    8   31 1   
    20    9   11 ar  
    21    9   13 1   
    22   10   17 1   
    23   11   18 1   
    24   12   23 1   
    25   13   19 1   
    26   13   21 2   
    27   14   15 1   
    28   14   18 2   
    29   14   19 1   
    30   15   20 1   
    31   15   22 2   
    32   16   23 1   
    33   16   32 1   
    34   16   33 1   
    35   16   34 1   
    36   17   20 1   
    37   17   35 1   
    38   17   36 1   
    39   19   37 1   
    40   20   38 1   
    41   20   39 1   
@<TRIPOS>SUBSTRUCTURE
     1 WGG         1 TEMP              0 ****  ****    0 ROOT
