@<TRIPOS>MOLECULE
WGZ
   65    69     1     0     0
SMALL
bcc


@<TRIPOS>ATOM
      1 C01         3.4280    0.1440    1.8270 c3        1 WGZ     -0.130100
      2 C02         3.9240    0.0520    0.3960 c3        1 WGZ      0.189400
      3 O03         3.0270    0.7360   -0.5210 os        1 WGZ     -0.311900
      4 C04         1.7060    0.4090   -0.3830 cc        1 WGZ      0.175100
      5 C05         1.1740   -0.9040   -0.5800 cc        1 WGZ     -0.240000
      6 C06        -0.2190   -0.8950   -0.5220 cd        1 WGZ      0.054700
      7 N07        -1.0400   -1.9910   -0.6890 na        1 WGZ     -0.083400
      8 C08        -0.6430   -3.2730   -1.1780 cc        1 WGZ      0.432700
      9 N09        -1.6400   -4.1560   -1.2050 nd        1 WGZ     -0.538100
     10 C10        -2.7750   -3.4690   -0.7120 ca        1 WGZ      0.036400
     11 C11        -4.0940   -3.8960   -0.5180 ca        1 WGZ     -0.032000
     12 C12        -5.0160   -2.9990   -0.0090 ca        1 WGZ     -0.175000
     13 C13        -4.6430   -1.6680    0.3150 ca        1 WGZ      0.163100
     14 O14        -5.6880   -0.9190    0.8110 os        1 WGZ     -0.327900
     15 C15        -5.3990    0.4120    1.2780 c3        1 WGZ      0.140100
     16 C16        -6.5260    0.7600    2.2460 c3        1 WGZ     -0.089900
     17 C17        -7.8530    0.9820    1.5280 c3        1 WGZ      0.169300
     18 N18        -7.7580    1.9470    0.4380 n3        1 WGZ     -0.731600
     19 C19        -9.0360    2.1810   -0.1970 c3        1 WGZ      0.157100
     20 C20        -6.7220    1.5930   -0.5230 c3        1 WGZ      0.169300
     21 C21        -5.3510    1.3980    0.1200 c3        1 WGZ     -0.089900
     22 C22        -3.3410   -1.1960    0.1320 ca        1 WGZ     -0.221000
     23 C23        -2.4110   -2.1050   -0.3800 ca        1 WGZ     -0.037200
     24 S24        -0.8100    0.6820   -0.2390 ss        1 WGZ      0.044200
     25 C25         0.7200    1.3640   -0.1700 cd        1 WGZ     -0.236700
     26 C26         0.9930    2.7780    0.1290 c         1 WGZ      0.716700
     27 N27         0.1180    3.7150   -0.3850 n         1 WGZ     -0.666000
     28 O28         1.9440    3.1410    0.8500 o         1 WGZ     -0.602100
     29 C29         5.2420    0.7560    0.2380 ca        1 WGZ     -0.040300
     30 C30         5.2520    2.1580    0.2810 ca        1 WGZ     -0.104000
     31 C31         6.4470    2.8610    0.1540 ca        1 WGZ     -0.105000
     32 C32         7.6480    2.1710   -0.0120 ca        1 WGZ     -0.129000
     33 C33         7.6500    0.7780   -0.0540 ca        1 WGZ     -0.094000
     34 C34         6.4510    0.0680    0.0680 ca        1 WGZ     -0.155300
     35 C35         6.5070   -1.4560    0.0110 c3        1 WGZ      0.686200
     36 F36         7.7710   -1.9860   -0.0840 f         1 WGZ     -0.239300
     37 F37         5.9720   -2.0920    1.1070 f         1 WGZ     -0.239300
     38 F38         5.8420   -2.0170   -1.0550 f         1 WGZ     -0.239300
     39 H011        3.2000    1.2090    2.0830 hc        1 WGZ      0.061700
     40 H012        2.4960   -0.4600    1.9460 hc        1 WGZ      0.061700
     41 H013        4.2070   -0.2510    2.5200 hc        1 WGZ      0.061700
     42 H02         3.9860   -1.0220    0.0640 h1        1 WGZ      0.060700
     43 H05         1.8040   -1.7780   -0.7530 ha        1 WGZ      0.173000
     44 H08         0.3910   -3.4580   -1.4960 h5        1 WGZ      0.079800
     45 H11        -4.3860   -4.9270   -0.7670 ha        1 WGZ      0.156000
     46 H12        -6.0610   -3.3010    0.1570 ha        1 WGZ      0.155000
     47 H22        -3.0520   -0.1650    0.3780 ha        1 WGZ      0.146000
     48 H15        -4.4200    0.4100    1.8340 h1        1 WGZ      0.050700
     49 H161       -6.6580   -0.0720    2.9840 hc        1 WGZ      0.058950
     50 H162       -6.2260    1.6860    2.8010 hc        1 WGZ      0.058950
     51 H211       -4.9670    2.3770    0.5080 hc        1 WGZ      0.058950
     52 H212       -4.6460    1.0280   -0.6690 hc        1 WGZ      0.058950
     53 H171       -8.2260   -0.0200    1.1610 h1        1 WGZ      0.038200
     54 H172       -8.6010    1.3800    2.2690 h1        1 WGZ      0.038200
     55 H191       -9.7670    2.5280    0.5800 h1        1 WGZ      0.033033
     56 H192       -8.9150    2.9890   -0.9650 h1        1 WGZ      0.033033
     57 H193       -9.4580    1.2680   -0.7020 h1        1 WGZ      0.033033
     58 H201       -6.9840    0.6480   -1.0850 h1        1 WGZ      0.038200
     59 H202       -6.6520    2.4310   -1.2720 h1        1 WGZ      0.038200
     60 H271       -0.4880    3.4720   -1.1270 hn        1 WGZ      0.308000
     61 H272        0.3370    4.6740   -0.2630 hn        1 WGZ      0.308000
     62 H30         4.2920    2.6910    0.4120 ha        1 WGZ      0.180000
     63 H31         6.4420    3.9610    0.1870 ha        1 WGZ      0.142000
     64 H32         8.5950    2.7210   -0.1110 ha        1 WGZ      0.141000
     65 H33         8.5990    0.2330   -0.1840 ha        1 WGZ      0.152000
@<TRIPOS>BOND
     1    1    2 1   
     2    1   39 1   
     3    1   40 1   
     4    1   41 1   
     5    2    3 1   
     6    2   29 1   
     7    2   42 1   
     8    3    4 1   
     9    4    5 1   
    10    4   25 2   
    11    5    6 2   
    12    5   43 1   
    13    6    7 1   
    14    6   24 1   
    15    7    8 1   
    16    7   23 1   
    17    8    9 2   
    18    8   44 1   
    19    9   10 1   
    20   10   11 ar  
    21   10   23 ar  
    22   11   12 ar  
    23   11   45 1   
    24   12   13 ar  
    25   12   46 1   
    26   13   14 1   
    27   13   22 ar  
    28   14   15 1   
    29   15   16 1   
    30   15   21 1   
    31   15   48 1   
    32   16   17 1   
    33   16   49 1   
    34   16   50 1   
    35   17   18 1   
    36   17   53 1   
    37   17   54 1   
    38   18   19 1   
    39   18   20 1   
    40   19   55 1   
    41   19   56 1   
    42   19   57 1   
    43   20   21 1   
    44   20   58 1   
    45   20   59 1   
    46   21   51 1   
    47   21   52 1   
    48   22   23 ar  
    49   22   47 1   
    50   24   25 1   
    51   25   26 1   
    52   26   27 1   
    53   26   28 2   
    54   27   60 1   
    55   27   61 1   
    56   29   30 ar  
    57   29   34 ar  
    58   30   31 ar  
    59   30   62 1   
    60   31   32 ar  
    61   31   63 1   
    62   32   33 ar  
    63   32   64 1   
    64   33   34 ar  
    65   33   65 1   
    66   34   35 1   
    67   35   36 1   
    68   35   37 1   
    69   35   38 1   
@<TRIPOS>SUBSTRUCTURE
     1 WGZ         1 TEMP              0 ****  ****    0 ROOT
