@<TRIPOS>MOLECULE
WGZ
   66    70     1     0     0
SMALL
bcc


@<TRIPOS>ATOM
      1 C01         0.3570   -0.2420   -1.3440 c3        1 WGZ     -0.126100
      2 C02         1.6920   -0.1440   -0.6330 c3        1 WGZ      0.186400
      3 O03         1.4610   -0.0950    0.8140 os        1 WGZ     -0.278900
      4 C04         1.1740    1.1010    1.3550 cc        1 WGZ      0.316100
      5 C05         1.0070    2.3450    0.6970 cc        1 WGZ     -0.336000
      6 C06         0.7300    3.3870    1.5970 cd        1 WGZ      0.218700
      7 N07         0.5290    4.6890    1.2690 na        1 WGZ     -0.096400
      8 C08         0.6040    5.2650   -0.0590 cc        1 WGZ      0.436700
      9 N09         0.3650    6.5640   -0.0720 nd        1 WGZ     -0.485100
     10 C10         0.1120    6.9370    1.2760 ca        1 WGZ      0.044400
     11 C11        -0.1940    8.1820    1.8340 ca        1 WGZ     -0.013000
     12 C12        -0.3980    8.2620    3.2030 ca        1 WGZ     -0.159000
     13 C13        -0.3010    7.1130    4.0280 ca        1 WGZ      0.179100
     14 O14        -0.5410    7.3760    5.3540 os        1 WGZ     -0.312900
     15 C15        -0.5400    6.2700    6.2780 c3        1 WGZ      0.141100
     16 C16        -1.3290    6.7530    7.4920 c3        1 WGZ     -0.089400
     17 C17        -0.5530    7.7670    8.3260 c3        1 WGZ      0.167800
     18 N18         0.7810    7.3020    8.6860 n3        1 WGZ     -0.733600
     19 C19         1.4760    8.2350    9.5460 c3        1 WGZ      0.154100
     20 C20         1.5640    6.9400    7.5130 c3        1 WGZ      0.167800
     21 C21         0.8810    5.8760    6.6560 c3        1 WGZ     -0.089400
     22 C22         0.0090    5.8480    3.5060 ca        1 WGZ     -0.221000
     23 C23         0.2100    5.7750    2.1300 ca        1 WGZ     -0.046200
     24 S24         0.6740    2.8020    3.2080 ss        1 WGZ     -0.044800
     25 C25         1.0110    1.2000    2.7640 cd        1 WGZ     -0.357700
     26 C26         1.1210    0.0800    3.6170 c         1 WGZ      0.627700
     27 N27         1.0410    0.4010    5.1210 n4        1 WGZ     -0.770400
     28 O28         1.2740   -1.1160    3.4050 o         1 WGZ     -0.448100
     29 C29         2.5380   -1.3630   -0.8550 ca        1 WGZ     -0.068300
     30 C30         2.2210   -2.5450   -0.1760 ca        1 WGZ     -0.105000
     31 C31         2.9710   -3.7030   -0.3800 ca        1 WGZ     -0.098000
     32 C32         4.0420   -3.6920   -1.2710 ca        1 WGZ     -0.111000
     33 C33         4.3670   -2.5190   -1.9530 ca        1 WGZ     -0.081000
     34 C34         3.6230   -1.3540   -1.7460 ca        1 WGZ     -0.149300
     35 C35         4.0250   -0.0940   -2.5100 c3        1 WGZ      0.684200
     36 F36         5.0460   -0.2610   -3.4090 f         1 WGZ     -0.233967
     37 F37         3.0130    0.4680   -3.2540 f         1 WGZ     -0.233967
     38 F38         4.4530    0.9400   -1.7080 f         1 WGZ     -0.233967
     39 H011       -0.2820    0.6370   -1.0910 hc        1 WGZ      0.067033
     40 H012       -0.1790   -1.1760   -1.0460 hc        1 WGZ      0.067033
     41 H013        0.5370   -0.2600   -2.4470 hc        1 WGZ      0.067033
     42 H02         2.2470    0.7880   -0.9360 h1        1 WGZ      0.080700
     43 H05         1.0800    2.4700   -0.3870 ha        1 WGZ      0.194000
     44 H08         0.8440    4.6350   -0.9270 h5        1 WGZ      0.089800
     45 H11        -0.2710    9.0770    1.1950 ha        1 WGZ      0.174000
     46 H12        -0.6420    9.2260    3.6770 ha        1 WGZ      0.172000
     47 H22         0.0900    4.9630    4.1510 ha        1 WGZ      0.135000
     48 H15        -1.0800    5.3990    5.8110 h1        1 WGZ      0.035700
     49 H161       -1.5820    5.8550    8.1130 hc        1 WGZ      0.055200
     50 H162       -2.2840    7.2310    7.1520 hc        1 WGZ      0.055200
     51 H211        1.4960    5.7270    5.7310 hc        1 WGZ      0.055200
     52 H212        0.8370    4.9070    7.2160 hc        1 WGZ      0.055200
     53 H171       -0.5110    8.7390    7.7510 h1        1 WGZ      0.044950
     54 H172       -1.1190    7.9540    9.2810 h1        1 WGZ      0.044950
     55 H191        2.4550    7.7830    9.8530 h1        1 WGZ      0.039367
     56 H192        0.8560    8.4090   10.4640 h1        1 WGZ      0.039367
     57 H193        1.6770    9.2270    9.0550 h1        1 WGZ      0.039367
     58 H201        1.7750    7.8360    6.8580 h1        1 WGZ      0.044950
     59 H202        2.5520    6.5340    7.8700 h1        1 WGZ      0.044950
     60 H271        1.1400   -0.4700    5.6550 hn        1 WGZ      0.457467
     61 H272        1.7930    1.0420    5.3810 hn        1 WGZ      0.457467
     62 H30         1.3770   -2.5490    0.5320 ha        1 WGZ      0.153000
     63 H31         2.7110   -4.6260    0.1620 ha        1 WGZ      0.152000
     64 H32         4.6330   -4.6040   -1.4420 ha        1 WGZ      0.157000
     65 H33         5.2140   -2.5110   -2.6600 ha        1 WGZ      0.166000
     66 H273        0.1410    0.8300    5.3420 hn        1 WGZ      0.457467
@<TRIPOS>BOND
     1    1    2 1   
     2    1   39 1   
     3    1   40 1   
     4    1   41 1   
     5    2    3 1   
     6    2   29 1   
     7    2   42 1   
     8    3    4 1   
     9    4    5 1   
    10    4   25 2   
    11    5    6 2   
    12    5   43 1   
    13    6    7 1   
    14    6   24 1   
    15    7    8 1   
    16    7   23 1   
    17    8    9 2   
    18    8   44 1   
    19    9   10 1   
    20   10   11 ar  
    21   10   23 ar  
    22   11   12 ar  
    23   11   45 1   
    24   12   13 ar  
    25   12   46 1   
    26   13   14 1   
    27   13   22 ar  
    28   14   15 1   
    29   15   16 1   
    30   15   21 1   
    31   15   48 1   
    32   16   17 1   
    33   16   49 1   
    34   16   50 1   
    35   17   18 1   
    36   17   53 1   
    37   17   54 1   
    38   18   19 1   
    39   18   20 1   
    40   19   55 1   
    41   19   56 1   
    42   19   57 1   
    43   20   21 1   
    44   20   58 1   
    45   20   59 1   
    46   21   51 1   
    47   21   52 1   
    48   22   23 ar  
    49   22   47 1   
    50   24   25 1   
    51   25   26 1   
    52   26   27 1   
    53   26   28 2   
    54   27   60 1   
    55   27   61 1   
    56   27   66 1   
    57   29   30 ar  
    58   29   34 ar  
    59   30   31 ar  
    60   30   62 1   
    61   31   32 ar  
    62   31   63 1   
    63   32   33 ar  
    64   32   64 1   
    65   33   34 ar  
    66   33   65 1   
    67   34   35 1   
    68   35   36 1   
    69   35   37 1   
    70   35   38 1   
@<TRIPOS>SUBSTRUCTURE
     1 WGZ         1 TEMP              0 ****  ****    0 ROOT
