@<TRIPOS>MOLECULE
WGZ
   66    70     1     0     0
SMALL
bcc


@<TRIPOS>ATOM
      1 C01         0.3810   -0.2270   -1.3610 c3        1 WGZ     -0.126100
      2 C02         1.7090   -0.1360   -0.6370 c3        1 WGZ      0.186400
      3 O03         1.4650   -0.0900    0.8070 os        1 WGZ     -0.278900
      4 C04         1.1780    1.1040    1.3490 cc        1 WGZ      0.316100
      5 C05         1.0210    2.3510    0.6940 cc        1 WGZ     -0.336000
      6 C06         0.7400    3.3910    1.5940 cd        1 WGZ      0.218700
      7 N07         0.5460    4.6950    1.2680 na        1 WGZ     -0.096400
      8 C08         0.6330    5.2740   -0.0580 cc        1 WGZ      0.436700
      9 N09         0.3990    6.5740   -0.0700 nd        1 WGZ     -0.485100
     10 C10         0.1350    6.9440    1.2780 ca        1 WGZ      0.044400
     11 C11        -0.1710    8.1890    1.8370 ca        1 WGZ     -0.013000
     12 C12        -0.3850    8.2650    3.2040 ca        1 WGZ     -0.159000
     13 C13        -0.2980    7.1140    4.0270 ca        1 WGZ      0.179100
     14 O14        -0.5480    7.3740    5.3520 os        1 WGZ     -0.312900
     15 C15        -0.5550    6.2670    6.2740 c3        1 WGZ      0.141100
     16 C16        -1.3510    6.7480    7.4830 c3        1 WGZ     -0.089400
     17 C17        -0.5780    7.7590    8.3250 c3        1 WGZ      0.167800
     18 N18         0.7520    7.2900    8.6920 n3        1 WGZ     -0.733600
     19 C19         1.4440    8.2200    9.5580 c3        1 WGZ      0.154100
     20 C20         1.5430    6.9290    7.5230 c3        1 WGZ      0.167800
     21 C21         0.8630    5.8690    6.6590 c3        1 WGZ     -0.089400
     22 C22         0.0110    5.8500    3.5050 ca        1 WGZ     -0.221000
     23 C23         0.2240    5.7790    2.1300 ca        1 WGZ     -0.046200
     24 S24         0.6680    2.8020    3.2030 ss        1 WGZ     -0.044800
     25 C25         1.0030    1.2000    2.7570 cd        1 WGZ     -0.357700
     26 C26         1.1020    0.0770    3.6070 c         1 WGZ      0.627700
     27 N27         1.0090    0.3940    5.1120 n4        1 WGZ     -0.770400
     28 O28         1.2520   -1.1190    3.3930 o         1 WGZ     -0.448100
     29 C29         2.5520   -1.3580   -0.8560 ca        1 WGZ     -0.068300
     30 C30         2.2240   -2.5410   -0.1830 ca        1 WGZ     -0.105000
     31 C31         2.9710   -3.7020   -0.3840 ca        1 WGZ     -0.098000
     32 C32         4.0500   -3.6920   -1.2650 ca        1 WGZ     -0.111000
     33 C33         4.3860   -2.5180   -1.9400 ca        1 WGZ     -0.081000
     34 C34         3.6460   -1.3510   -1.7360 ca        1 WGZ     -0.149300
     35 C35         4.0600   -0.0900   -2.4920 c3        1 WGZ      0.684200
     36 F36         5.0890   -0.2580   -3.3820 f         1 WGZ     -0.233967
     37 F37         3.0570    0.4780   -3.2440 f         1 WGZ     -0.233967
     38 F38         4.4840    0.9400   -1.6820 f         1 WGZ     -0.233967
     39 H011        0.5700   -0.2420   -2.4630 hc        1 WGZ      0.067033
     40 H012       -0.2570    0.6540   -1.1110 hc        1 WGZ      0.067033
     41 H013       -0.1620   -1.1590   -1.0710 hc        1 WGZ      0.067033
     42 H02         2.2710    0.7940   -0.9330 h1        1 WGZ      0.080700
     43 H05         1.1040    2.4790   -0.3900 ha        1 WGZ      0.194000
     44 H08         0.8780    4.6460   -0.9250 h5        1 WGZ      0.089800
     45 H11        -0.2400    9.0860    1.2000 ha        1 WGZ      0.174000
     46 H12        -0.6300    9.2290    3.6790 ha        1 WGZ      0.172000
     47 H22         0.0860    4.9630    4.1470 ha        1 WGZ      0.135000
     48 H15        -1.0940    5.3980    5.8010 h1        1 WGZ      0.035700
     49 H161       -1.6090    5.8490    8.1010 hc        1 WGZ      0.055200
     50 H162       -2.3030    7.2290    7.1380 hc        1 WGZ      0.055200
     51 H211        0.8140    4.8980    7.2170 hc        1 WGZ      0.055200
     52 H212        1.4830    5.7200    5.7390 hc        1 WGZ      0.055200
     53 H171       -1.1510    7.9450    9.2770 h1        1 WGZ      0.044950
     54 H172       -0.5310    8.7320    7.7520 h1        1 WGZ      0.044950
     55 H191        0.8180    8.3930   10.4730 h1        1 WGZ      0.039367
     56 H192        2.4200    7.7650    9.8710 h1        1 WGZ      0.039367
     57 H193        1.6510    9.2120    9.0710 h1        1 WGZ      0.039367
     58 H201        2.5270    6.5200    7.8860 h1        1 WGZ      0.044950
     59 H202        1.7590    7.8270    6.8720 h1        1 WGZ      0.044950
     60 H271        1.1000   -0.4790    5.6440 hn        1 WGZ      0.457467
     61 H272        1.7610    1.0310    5.3800 hn        1 WGZ      0.457467
     62 H30         1.3730   -2.5440    0.5160 ha        1 WGZ      0.153000
     63 H31         2.7020   -4.6260    0.1520 ha        1 WGZ      0.152000
     64 H32         4.6390   -4.6070   -1.4330 ha        1 WGZ      0.157000
     65 H33         5.2400   -2.5110   -2.6390 ha        1 WGZ      0.166000
     66 H273        0.1090    0.8260    5.3260 hn        1 WGZ      0.457467
@<TRIPOS>BOND
     1    1    2 1   
     2    1   39 1   
     3    1   40 1   
     4    1   41 1   
     5    2    3 1   
     6    2   29 1   
     7    2   42 1   
     8    3    4 1   
     9    4    5 1   
    10    4   25 2   
    11    5    6 2   
    12    5   43 1   
    13    6    7 1   
    14    6   24 1   
    15    7    8 1   
    16    7   23 1   
    17    8    9 2   
    18    8   44 1   
    19    9   10 1   
    20   10   11 ar  
    21   10   23 ar  
    22   11   12 ar  
    23   11   45 1   
    24   12   13 ar  
    25   12   46 1   
    26   13   14 1   
    27   13   22 ar  
    28   14   15 1   
    29   15   16 1   
    30   15   21 1   
    31   15   48 1   
    32   16   17 1   
    33   16   49 1   
    34   16   50 1   
    35   17   18 1   
    36   17   53 1   
    37   17   54 1   
    38   18   19 1   
    39   18   20 1   
    40   19   55 1   
    41   19   56 1   
    42   19   57 1   
    43   20   21 1   
    44   20   58 1   
    45   20   59 1   
    46   21   51 1   
    47   21   52 1   
    48   22   23 ar  
    49   22   47 1   
    50   24   25 1   
    51   25   26 1   
    52   26   27 1   
    53   26   28 2   
    54   27   60 1   
    55   27   61 1   
    56   27   66 1   
    57   29   30 ar  
    58   29   34 ar  
    59   30   31 ar  
    60   30   62 1   
    61   31   32 ar  
    62   31   63 1   
    63   32   33 ar  
    64   32   64 1   
    65   33   34 ar  
    66   33   65 1   
    67   34   35 1   
    68   35   36 1   
    69   35   37 1   
    70   35   38 1   
@<TRIPOS>SUBSTRUCTURE
     1 WGZ         1 TEMP              0 ****  ****    0 ROOT
