@<TRIPOS>MOLECULE
WGZ
   66    70     1     0     0
SMALL
bcc


@<TRIPOS>ATOM
      1 C01         0.3820   -0.2260   -1.3650 c3        1 WGZ     -0.126100
      2 C02         1.7100   -0.1340   -0.6410 c3        1 WGZ      0.186400
      3 O03         1.4660   -0.0900    0.8040 os        1 WGZ     -0.278900
      4 C04         1.1770    1.1040    1.3470 cc        1 WGZ      0.316100
      5 C05         1.0190    2.3510    0.6920 cc        1 WGZ     -0.336000
      6 C06         0.7370    3.3900    1.5930 cd        1 WGZ      0.218700
      7 N07         0.5420    4.6950    1.2680 na        1 WGZ     -0.096400
      8 C08         0.6280    5.2740   -0.0570 cc        1 WGZ      0.436700
      9 N09         0.3920    6.5740   -0.0680 nd        1 WGZ     -0.485100
     10 C10         0.1290    6.9430    1.2800 ca        1 WGZ      0.044400
     11 C11        -0.1780    8.1870    1.8400 ca        1 WGZ     -0.013000
     12 C12        -0.3920    8.2620    3.2080 ca        1 WGZ     -0.159000
     13 C13        -0.3040    7.1110    4.0300 ca        1 WGZ      0.179100
     14 O14        -0.5530    7.3700    5.3550 os        1 WGZ     -0.312900
     15 C15        -0.5590    6.2610    6.2760 c3        1 WGZ      0.141100
     16 C16        -1.3540    6.7410    7.4860 c3        1 WGZ     -0.089400
     17 C17        -0.5820    7.7520    8.3280 c3        1 WGZ      0.167800
     18 N18         0.7490    7.2850    8.6940 n3        1 WGZ     -0.733600
     19 C19         1.4400    8.2140    9.5610 c3        1 WGZ      0.154100
     20 C20         1.5390    6.9250    7.5250 c3        1 WGZ      0.167800
     21 C21         0.8600    5.8650    6.6600 c3        1 WGZ     -0.089400
     22 C22         0.0070    5.8470    3.5060 ca        1 WGZ     -0.221000
     23 C23         0.2190    5.7780    2.1310 ca        1 WGZ     -0.046200
     24 S24         0.6650    2.8000    3.2020 ss        1 WGZ     -0.044800
     25 C25         1.0020    1.1980    2.7550 cd        1 WGZ     -0.357700
     26 C26         1.1020    0.0750    3.6040 c         1 WGZ      0.627700
     27 N27         1.0090    0.3900    5.1090 nz        1 WGZ     -0.770400
     28 O28         1.2530   -1.1200    3.3890 o         1 WGZ     -0.448100
     29 C29         2.5550   -1.3550   -0.8600 ca        1 WGZ     -0.068300
     30 C30         2.2270   -2.5390   -0.1890 ca        1 WGZ     -0.105000
     31 C31         2.9750   -3.6990   -0.3910 ca        1 WGZ     -0.098000
     32 C32         4.0550   -3.6870   -1.2710 ca        1 WGZ     -0.111000
     33 C33         4.3910   -2.5120   -1.9440 ca        1 WGZ     -0.081000
     34 C34         3.6490   -1.3460   -1.7390 ca        1 WGZ     -0.149300
     35 C35         4.0630   -0.0830   -2.4940 c3        1 WGZ      0.684200
     36 F36         5.0930   -0.2490   -3.3830 f         1 WGZ     -0.233967
     37 F37         3.0600    0.4840   -3.2450 f         1 WGZ     -0.233967
     38 F38         4.4850    0.9460   -1.6820 f         1 WGZ     -0.233967
     39 H011       -0.1600   -1.1590   -1.0760 hc        1 WGZ      0.067033
     40 H012        0.5720   -0.2400   -2.4670 hc        1 WGZ      0.067033
     41 H013       -0.2570    0.6550   -1.1150 hc        1 WGZ      0.067033
     42 H02         2.2710    0.7970   -0.9350 h1        1 WGZ      0.080700
     43 H05         1.1020    2.4800   -0.3910 ha        1 WGZ      0.194000
     44 H08         0.8730    4.6480   -0.9250 h5        1 WGZ      0.089800
     45 H11        -0.2480    9.0850    1.2040 ha        1 WGZ      0.174000
     46 H12        -0.6370    9.2260    3.6830 ha        1 WGZ      0.172000
     47 H22         0.0820    4.9590    4.1480 ha        1 WGZ      0.135000
     48 H15        -1.0960    5.3920    5.8030 h1        1 WGZ      0.035700
     49 H161       -2.3070    7.2210    7.1420 hc        1 WGZ      0.055200
     50 H162       -1.6110    5.8420    8.1030 hc        1 WGZ      0.055200
     51 H211        1.4800    5.7180    5.7390 hc        1 WGZ      0.055200
     52 H212        0.8120    4.8940    7.2170 hc        1 WGZ      0.055200
     53 H171       -0.5360    8.7260    7.7560 h1        1 WGZ      0.044950
     54 H172       -1.1540    7.9370    9.2800 h1        1 WGZ      0.044950
     55 H191        0.8150    8.3860   10.4750 h1        1 WGZ      0.039367
     56 H192        2.4170    7.7600    9.8730 h1        1 WGZ      0.039367
     57 H193        1.6460    9.2070    9.0740 h1        1 WGZ      0.039367
     58 H201        2.5250    6.5170    7.8860 h1        1 WGZ      0.044950
     59 H202        1.7540    7.8240    6.8740 h1        1 WGZ      0.044950
     60 H271        1.7600    1.0280    5.3780 hn        1 WGZ      0.457467
     61 H272        0.1090    0.8220    5.3240 hn        1 WGZ      0.457467
     62 H30         1.3750   -2.5430    0.5100 ha        1 WGZ      0.153000
     63 H31         2.7060   -4.6230    0.1440 ha        1 WGZ      0.152000
     64 H32         4.6450   -4.6010   -1.4400 ha        1 WGZ      0.157000
     65 H33         5.2450   -2.5040   -2.6420 ha        1 WGZ      0.166000
     66 H273        1.1000   -0.4830    5.6400 hn        1 WGZ      0.457467
@<TRIPOS>BOND
     1    1    2 1   
     2    1   39 1   
     3    1   40 1   
     4    1   41 1   
     5    2    3 1   
     6    2   29 1   
     7    2   42 1   
     8    3    4 1   
     9    4    5 1   
    10    4   25 2   
    11    5    6 2   
    12    5   43 1   
    13    6    7 1   
    14    6   24 1   
    15    7    8 1   
    16    7   23 1   
    17    8    9 2   
    18    8   44 1   
    19    9   10 1   
    20   10   11 ar  
    21   10   23 ar  
    22   11   12 ar  
    23   11   45 1   
    24   12   13 ar  
    25   12   46 1   
    26   13   14 1   
    27   13   22 ar  
    28   14   15 1   
    29   15   16 1   
    30   15   21 1   
    31   15   48 1   
    32   16   17 1   
    33   16   49 1   
    34   16   50 1   
    35   17   18 1   
    36   17   53 1   
    37   17   54 1   
    38   18   19 1   
    39   18   20 1   
    40   19   55 1   
    41   19   56 1   
    42   19   57 1   
    43   20   21 1   
    44   20   58 1   
    45   20   59 1   
    46   21   51 1   
    47   21   52 1   
    48   22   23 ar  
    49   22   47 1   
    50   24   25 1   
    51   25   26 1   
    52   26   27 1   
    53   26   28 2   
    54   27   60 1   
    55   27   61 1   
    56   27   66 1   
    57   29   30 ar  
    58   29   34 ar  
    59   30   31 ar  
    60   30   62 1   
    61   31   32 ar  
    62   31   63 1   
    63   32   33 ar  
    64   32   64 1   
    65   33   34 ar  
    66   33   65 1   
    67   34   35 1   
    68   35   36 1   
    69   35   37 1   
    70   35   38 1   
@<TRIPOS>SUBSTRUCTURE
     1 WGZ         1 TEMP              0 ****  ****    0 ROOT
