@<TRIPOS>MOLECULE
WH6
   45    48     1     0     0
SMALL
bcc


@<TRIPOS>ATOM
      1 CAZ         0.1010   -0.1210   -0.0310 ca        1 WH6     -0.036000
      2 CAN         1.4710   -0.5100    0.0080 ca        1 WH6     -0.090000
      3 CAH         2.1320   -0.6160    1.2080 ca        1 WH6     -0.159000
      4 CAG         1.4650   -0.3470    2.4250 ca        1 WH6     -0.131000
      5 CAL         0.1430    0.0200    2.4200 ca        1 WH6     -0.151000
      6 CAY        -0.5700    0.1380    1.1950 ca        1 WH6     -0.034000
      7 CAM        -1.9430    0.5020    1.1830 ca        1 WH6     -0.152000
      8 CAI        -2.6200    0.6060   -0.0070 ca        1 WH6     -0.119000
      9 CAJ        -1.9550    0.3650   -1.2290 ca        1 WH6     -0.154000
     10 CAV        -0.6190    0.0120   -1.2600 ca        1 WH6     -0.019300
     11 CAR         0.0530   -0.1820   -2.5730 c3        1 WH6     -0.076100
     12 CBC         0.2030   -1.6590   -2.9880 c3        1 WH6      0.136700
     13 CAQ         1.0910   -1.7240   -4.2360 c3        1 WH6     -0.210400
     14 CAS         2.5450   -1.2950   -3.9800 c         1 WH6      0.914600
     15 OAE         2.9420   -1.0550   -2.8000 o         1 WH6     -0.856800
     16 OAA         3.3000   -1.2020   -4.9890 o         1 WH6     -0.856800
     17 N1         -1.0780   -2.3240   -3.1670 n         1 WH6     -0.514400
     18 CAX        -1.4090   -3.5810   -2.5760 c         1 WH6      0.726100
     19 OAD        -0.6810   -4.2080   -1.8010 o         1 WH6     -0.592500
     20 CBB        -2.7730   -3.9560   -3.0720 ca        1 WH6     -0.167600
     21 CAP        -3.5730   -5.0490   -2.8130 ca        1 WH6     -0.037000
     22 CAU        -4.8360   -5.1190   -3.4430 ca        1 WH6     -0.120600
     23 CAT        -5.7520   -6.3070   -3.1810 c         1 WH6      0.906200
     24 OAF        -6.8770   -6.3220   -3.7580 o         1 WH6     -0.829800
     25 OAB        -5.3450   -7.2140   -2.4020 o         1 WH6     -0.829800
     26 CAK        -5.2500   -4.1040   -4.3030 ca        1 WH6     -0.114000
     27 CAO        -4.4370   -2.9870   -4.5690 ca        1 WH6     -0.095000
     28 CBA        -3.2080   -2.9220   -3.9510 ca        1 WH6     -0.166600
     29 CAW        -2.1280   -1.8850   -4.0120 c         1 WH6      0.726100
     30 OAC        -2.1500   -0.8260   -4.6570 o         1 WH6     -0.625500
     31 HAN         2.0000   -0.7380   -0.9450 ha        1 WH6      0.221000
     32 HAH         3.1880   -0.9210    1.2290 ha        1 WH6      0.127000
     33 HAG         2.0170   -0.4420    3.3720 ha        1 WH6      0.105000
     34 HAL        -0.3910    0.2230    3.3590 ha        1 WH6      0.108000
     35 HAM        -2.4480    0.6880    2.1400 ha        1 WH6      0.110000
     36 HAI        -3.6860    0.8720   -0.0240 ha        1 WH6      0.114000
     37 HAJ        -2.5180    0.4500   -2.1720 ha        1 WH6      0.140000
     38 HAR         1.0970    0.2410   -2.5400 hc        1 WH6      0.085200
     39 HARA       -0.5130    0.3670   -3.3740 hc        1 WH6      0.085200
     40 HBC         0.7380   -2.2090   -2.1530 h1        1 WH6      0.095700
     41 HAQ         0.6660   -1.0710   -5.0400 hc        1 WH6      0.043200
     42 HAQA        1.1260   -2.7730   -4.6270 hc        1 WH6      0.043200
     43 HAP        -3.2670   -5.8640   -2.1370 ha        1 WH6      0.171000
     44 HAK        -6.2410   -4.1970   -4.7750 ha        1 WH6      0.153000
     45 HAO        -4.7730   -2.1920   -5.2480 ha        1 WH6      0.127000
@<TRIPOS>BOND
     1    1    2 ar  
     2    1    6 ar  
     3    1   10 ar  
     4    2    3 ar  
     5    2   31 1   
     6    3    4 ar  
     7    3   32 1   
     8    4    5 ar  
     9    4   33 1   
    10    5    6 ar  
    11    5   34 1   
    12    6    7 ar  
    13    7    8 ar  
    14    7   35 1   
    15    8    9 ar  
    16    8   36 1   
    17    9   10 ar  
    18    9   37 1   
    19   10   11 1   
    20   11   12 1   
    21   11   38 1   
    22   11   39 1   
    23   12   13 1   
    24   12   17 1   
    25   12   40 1   
    26   13   14 1   
    27   13   41 1   
    28   13   42 1   
    29   14   15 1   
    30   14   16 1   
    31   17   18 1   
    32   17   29 1   
    33   18   19 2   
    34   18   20 1   
    35   20   21 ar  
    36   20   28 ar  
    37   21   22 ar  
    38   21   43 1   
    39   22   23 1   
    40   22   26 ar  
    41   23   24 1   
    42   23   25 1   
    43   26   27 ar  
    44   26   44 1   
    45   27   28 ar  
    46   27   45 1   
    47   28   29 1   
    48   29   30 2   
@<TRIPOS>SUBSTRUCTURE
     1 WH6         1 TEMP              0 ****  ****    0 ROOT
