@<TRIPOS>MOLECULE
WH6
   45    48     1     0     0
SMALL
bcc


@<TRIPOS>ATOM
      1 CAZ         3.3290    0.9030   -0.1020 ca        1 WH6     -0.036000
      2 CAN         3.9820    0.0610    0.8430 ca        1 WH6     -0.090000
      3 CAH         4.8890    0.5840    1.7330 ca        1 WH6     -0.159000
      4 CAG         5.1890    1.9650    1.7300 ca        1 WH6     -0.131000
      5 CAL         4.5690    2.8030    0.8370 ca        1 WH6     -0.151000
      6 CAY         3.6230    2.2930   -0.0950 ca        1 WH6     -0.034000
      7 CAM         2.9660    3.1570   -1.0120 ca        1 WH6     -0.152000
      8 CAI         2.0520    2.6520   -1.9020 ca        1 WH6     -0.119000
      9 CAJ         1.7660    1.2700   -1.9240 ca        1 WH6     -0.154000
     10 CAV         2.3870    0.3970   -1.0520 ca        1 WH6     -0.019300
     11 CAR         2.0930   -1.0590   -1.1450 c3        1 WH6     -0.076100
     12 CBC         1.0860   -1.5640   -0.0930 c3        1 WH6      0.136700
     13 CAQ         1.0400   -3.0950   -0.1630 c3        1 WH6     -0.210400
     14 CAS         2.3500   -3.7710    0.2710 c         1 WH6      0.914600
     15 OAE         3.2940   -3.0800    0.7610 o         1 WH6     -0.856800
     16 OAA         2.4270   -5.0230    0.1170 o         1 WH6     -0.856800
     17 N1         -0.2250   -0.9490   -0.2310 n         1 WH6     -0.514400
     18 CAX        -0.9420   -0.3560    0.8520 c         1 WH6      0.726100
     19 OAD        -0.5070   -0.2380    2.0020 o         1 WH6     -0.592500
     20 CBB        -2.2720    0.0790    0.3160 ca        1 WH6     -0.167600
     21 CAP        -3.3380    0.7130    0.9180 ca        1 WH6     -0.037000
     22 CAU        -4.4770    0.9980    0.1320 ca        1 WH6     -0.120600
     23 CAT        -5.6760    1.7010    0.7570 c         1 WH6      0.906200
     24 OAF        -6.6690    1.9460    0.0130 o         1 WH6     -0.829800
     25 OAB        -5.6180    2.0040    1.9810 o         1 WH6     -0.829800
     26 CAK        -4.5100    0.6420   -1.2140 ca        1 WH6     -0.114000
     27 CAO        -3.4240   -0.0030   -1.8310 ca        1 WH6     -0.095000
     28 CBA        -2.3140   -0.2780   -1.0620 ca        1 WH6     -0.166600
     29 CAW        -1.0130   -0.9330   -1.4100 c         1 WH6      0.726100
     30 OAC        -0.6690   -1.3620   -2.5210 o         1 WH6     -0.625500
     31 HAN         3.7410   -1.0260    0.8630 ha        1 WH6      0.221000
     32 HAH         5.3850   -0.0730    2.4620 ha        1 WH6      0.127000
     33 HAG         5.9170    2.3580    2.4540 ha        1 WH6      0.105000
     34 HAL         4.7840    3.8810    0.8290 ha        1 WH6      0.108000
     35 HAM         3.1980    4.2310   -0.9860 ha        1 WH6      0.110000
     36 HAI         1.5270    3.3160   -2.6040 ha        1 WH6      0.114000
     37 HAJ         1.0250    0.8860   -2.6440 ha        1 WH6      0.140000
     38 HAR         1.7020   -1.3020   -2.1710 hc        1 WH6      0.085200
     39 HARA        3.0360   -1.6560   -0.9880 hc        1 WH6      0.085200
     40 HBC         1.4710   -1.2750    0.9330 h1        1 WH6      0.095700
     41 HAQ         0.2350   -3.4840    0.5110 hc        1 WH6      0.043200
     42 HAQA        0.8020   -3.4220   -1.2070 hc        1 WH6      0.043200
     43 HAP        -3.3360    1.0030    1.9810 ha        1 WH6      0.171000
     44 HAK        -5.4180    0.8820   -1.7920 ha        1 WH6      0.153000
     45 HAO        -3.4590   -0.2800   -2.8940 ha        1 WH6      0.127000
@<TRIPOS>BOND
     1    1    2 ar  
     2    1    6 ar  
     3    1   10 ar  
     4    2    3 ar  
     5    2   31 1   
     6    3    4 ar  
     7    3   32 1   
     8    4    5 ar  
     9    4   33 1   
    10    5    6 ar  
    11    5   34 1   
    12    6    7 ar  
    13    7    8 ar  
    14    7   35 1   
    15    8    9 ar  
    16    8   36 1   
    17    9   10 ar  
    18    9   37 1   
    19   10   11 1   
    20   11   12 1   
    21   11   38 1   
    22   11   39 1   
    23   12   13 1   
    24   12   17 1   
    25   12   40 1   
    26   13   14 1   
    27   13   41 1   
    28   13   42 1   
    29   14   15 1   
    30   14   16 1   
    31   17   18 1   
    32   17   29 1   
    33   18   19 2   
    34   18   20 1   
    35   20   21 ar  
    36   20   28 ar  
    37   21   22 ar  
    38   21   43 1   
    39   22   23 1   
    40   22   26 ar  
    41   23   24 1   
    42   23   25 1   
    43   26   27 ar  
    44   26   44 1   
    45   27   28 ar  
    46   27   45 1   
    47   28   29 1   
    48   29   30 2   
@<TRIPOS>SUBSTRUCTURE
     1 WH6         1 TEMP              0 ****  ****    0 ROOT
