@<TRIPOS>MOLECULE
WH6
   45    48     1     0     0
SMALL
bcc


@<TRIPOS>ATOM
      1 CAZ         0.0880   -0.0960   -0.0440 ca        1 WH6     -0.036000
      2 CAN         1.4600   -0.4760    0.0000 ca        1 WH6     -0.090000
      3 CAH         2.1200   -0.5680    1.2020 ca        1 WH6     -0.159000
      4 CAG         1.4500   -0.2920    2.4160 ca        1 WH6     -0.131000
      5 CAL         0.1250    0.0670    2.4060 ca        1 WH6     -0.151000
      6 CAY        -0.5860    0.1690    1.1790 ca        1 WH6     -0.034000
      7 CAM        -1.9610    0.5250    1.1610 ca        1 WH6     -0.152000
      8 CAI        -2.6370    0.6140   -0.0300 ca        1 WH6     -0.119000
      9 CAJ        -1.9690    0.3670   -1.2490 ca        1 WH6     -0.154000
     10 CAV        -0.6310    0.0220   -1.2750 ca        1 WH6     -0.019300
     11 CAR         0.0440   -0.1800   -2.5850 c3        1 WH6     -0.076100
     12 CBC         0.2040   -1.6590   -2.9870 c3        1 WH6      0.136700
     13 CAQ         1.0950   -1.7290   -4.2340 c3        1 WH6     -0.210400
     14 CAS         2.5450   -1.2890   -3.9790 c         1 WH6      0.914600
     15 OAE         2.9390   -1.0370   -2.8000 o         1 WH6     -0.856800
     16 OAA         3.3020   -1.2010   -4.9880 o         1 WH6     -0.856800
     17 N1         -1.0730   -2.3340   -3.1620 n         1 WH6     -0.514400
     18 CAX        -1.3980   -3.5870   -2.5610 c         1 WH6      0.726100
     19 OAD        -0.6670   -4.2030   -1.7780 o         1 WH6     -0.592500
     20 CBB        -2.7580   -3.9750   -3.0550 ca        1 WH6     -0.167600
     21 CAP        -3.5520   -5.0700   -2.7870 ca        1 WH6     -0.037000
     22 CAU        -4.8130   -5.1530   -3.4190 ca        1 WH6     -0.120600
     23 CAT        -5.7230   -6.3450   -3.1470 c         1 WH6      0.906200
     24 OAF        -6.8470   -6.3720   -3.7250 o         1 WH6     -0.829800
     25 OAB        -5.3110   -7.2420   -2.3600 o         1 WH6     -0.829800
     26 CAK        -5.2320   -4.1500   -4.2880 ca        1 WH6     -0.114000
     27 CAO        -4.4250   -3.0300   -4.5630 ca        1 WH6     -0.095000
     28 CBA        -3.1970   -2.9520   -3.9440 ca        1 WH6     -0.166600
     29 CAW        -2.1240   -1.9090   -4.0130 c         1 WH6      0.726100
     30 OAC        -2.1510   -0.8560   -4.6670 o         1 WH6     -0.625500
     31 HAN         1.9920   -0.7090   -0.9500 ha        1 WH6      0.221000
     32 HAH         3.1780   -0.8650    1.2270 ha        1 WH6      0.127000
     33 HAG         2.0000   -0.3750    3.3640 ha        1 WH6      0.105000
     34 HAL        -0.4110    0.2740    3.3420 ha        1 WH6      0.108000
     35 HAM        -2.4700    0.7160    2.1170 ha        1 WH6      0.110000
     36 HAI        -3.7050    0.8730   -0.0510 ha        1 WH6      0.114000
     37 HAJ        -2.5320    0.4400   -2.1940 ha        1 WH6      0.140000
     38 HAR        -0.5240    0.3590   -3.3920 hc        1 WH6      0.085200
     39 HARA        1.0860    0.2500   -2.5540 hc        1 WH6      0.085200
     40 HBC         0.7410   -2.1990   -2.1460 h1        1 WH6      0.095700
     41 HAQ         0.6670   -1.0860   -5.0430 hc        1 WH6      0.043200
     42 HAQA        1.1360   -2.7810   -4.6150 hc        1 WH6      0.043200
     43 HAP        -3.2430   -5.8780   -2.1040 ha        1 WH6      0.171000
     44 HAK        -6.2220   -4.2530   -4.7620 ha        1 WH6      0.153000
     45 HAO        -4.7650   -2.2440   -5.2510 ha        1 WH6      0.127000
@<TRIPOS>BOND
     1    1    2 ar  
     2    1    6 ar  
     3    1   10 ar  
     4    2    3 ar  
     5    2   31 1   
     6    3    4 ar  
     7    3   32 1   
     8    4    5 ar  
     9    4   33 1   
    10    5    6 ar  
    11    5   34 1   
    12    6    7 ar  
    13    7    8 ar  
    14    7   35 1   
    15    8    9 ar  
    16    8   36 1   
    17    9   10 ar  
    18    9   37 1   
    19   10   11 1   
    20   11   12 1   
    21   11   38 1   
    22   11   39 1   
    23   12   13 1   
    24   12   17 1   
    25   12   40 1   
    26   13   14 1   
    27   13   41 1   
    28   13   42 1   
    29   14   15 1   
    30   14   16 1   
    31   17   18 1   
    32   17   29 1   
    33   18   19 2   
    34   18   20 1   
    35   20   21 ar  
    36   20   28 ar  
    37   21   22 ar  
    38   21   43 1   
    39   22   23 1   
    40   22   26 ar  
    41   23   24 1   
    42   23   25 1   
    43   26   27 ar  
    44   26   44 1   
    45   27   28 ar  
    46   27   45 1   
    47   28   29 1   
    48   29   30 2   
@<TRIPOS>SUBSTRUCTURE
     1 WH6         1 TEMP              0 ****  ****    0 ROOT
