@<TRIPOS>MOLECULE
WH6
   45    48     1     0     0
SMALL
bcc


@<TRIPOS>ATOM
      1 CAZ         0.0970   -0.0990   -0.0450 ca        1 WH6     -0.036000
      2 CAN         1.4670   -0.4880    0.0010 ca        1 WH6     -0.090000
      3 CAH         2.1250   -0.5820    1.2040 ca        1 WH6     -0.159000
      4 CAG         1.4550   -0.3000    2.4170 ca        1 WH6     -0.131000
      5 CAL         0.1330    0.0680    2.4050 ca        1 WH6     -0.151000
      6 CAY        -0.5770    0.1720    1.1770 ca        1 WH6     -0.034000
      7 CAM        -1.9500    0.5370    1.1570 ca        1 WH6     -0.152000
      8 CAI        -2.6240    0.6280   -0.0350 ca        1 WH6     -0.119000
      9 CAJ        -1.9560    0.3740   -1.2520 ca        1 WH6     -0.154000
     10 CAV        -0.6210    0.0210   -1.2770 ca        1 WH6     -0.019300
     11 CAR         0.0550   -0.1870   -2.5860 c3        1 WH6     -0.076100
     12 CBC         0.2060   -1.6680   -2.9850 c3        1 WH6      0.136700
     13 CAQ         1.0970   -1.7460   -4.2310 c3        1 WH6     -0.210400
     14 CAS         2.5500   -1.3140   -3.9750 c         1 WH6      0.914600
     15 OAE         2.9450   -1.0630   -2.7960 o         1 WH6     -0.856800
     16 OAA         3.3080   -1.2320   -4.9830 o         1 WH6     -0.856800
     17 N1         -1.0750   -2.3350   -3.1600 n         1 WH6     -0.514400
     18 CAX        -1.4080   -3.5850   -2.5580 c         1 WH6      0.726100
     19 OAD        -0.6820   -4.2050   -1.7740 o         1 WH6     -0.592500
     20 CBB        -2.7710   -3.9660   -3.0530 ca        1 WH6     -0.167600
     21 CAP        -3.5710   -5.0550   -2.7850 ca        1 WH6     -0.037000
     22 CAU        -4.8320   -5.1320   -3.4180 ca        1 WH6     -0.120600
     23 CAT        -5.7490   -6.3180   -3.1460 c         1 WH6      0.906200
     24 OAF        -6.8730   -6.3390   -3.7270 o         1 WH6     -0.829800
     25 OAB        -5.3440   -7.2160   -2.3570 o         1 WH6     -0.829800
     26 CAK        -5.2430   -4.1270   -4.2890 ca        1 WH6     -0.114000
     27 CAO        -4.4300   -3.0120   -4.5650 ca        1 WH6     -0.095000
     28 CBA        -3.2020   -2.9400   -3.9440 ca        1 WH6     -0.166600
     29 CAW        -2.1230   -1.9040   -4.0130 c         1 WH6      0.726100
     30 OAC        -2.1420   -0.8520   -4.6690 o         1 WH6     -0.625500
     31 HAN         1.9980   -0.7260   -0.9480 ha        1 WH6      0.221000
     32 HAH         3.1810   -0.8860    1.2310 ha        1 WH6      0.127000
     33 HAG         2.0040   -0.3850    3.3660 ha        1 WH6      0.105000
     34 HAL        -0.4040    0.2800    3.3400 ha        1 WH6      0.108000
     35 HAM        -2.4580    0.7330    2.1120 ha        1 WH6      0.110000
     36 HAI        -3.6900    0.8940   -0.0580 ha        1 WH6      0.114000
     37 HAJ        -2.5170    0.4490   -2.1980 ha        1 WH6      0.140000
     38 HAR        -0.5090    0.3540   -3.3940 hc        1 WH6      0.085200
     39 HARA        1.1000    0.2370   -2.5540 hc        1 WH6      0.085200
     40 HBC         0.7380   -2.2100   -2.1430 h1        1 WH6      0.095700
     41 HAQ         1.1320   -2.7990   -4.6100 hc        1 WH6      0.043200
     42 HAQA        0.6740   -1.1010   -5.0420 hc        1 WH6      0.043200
     43 HAP        -3.2670   -5.8640   -2.1010 ha        1 WH6      0.171000
     44 HAK        -6.2340   -4.2240   -4.7640 ha        1 WH6      0.153000
     45 HAO        -4.7640   -2.2240   -5.2530 ha        1 WH6      0.127000
@<TRIPOS>BOND
     1    1    2 ar  
     2    1    6 ar  
     3    1   10 ar  
     4    2    3 ar  
     5    2   31 1   
     6    3    4 ar  
     7    3   32 1   
     8    4    5 ar  
     9    4   33 1   
    10    5    6 ar  
    11    5   34 1   
    12    6    7 ar  
    13    7    8 ar  
    14    7   35 1   
    15    8    9 ar  
    16    8   36 1   
    17    9   10 ar  
    18    9   37 1   
    19   10   11 1   
    20   11   12 1   
    21   11   38 1   
    22   11   39 1   
    23   12   13 1   
    24   12   17 1   
    25   12   40 1   
    26   13   14 1   
    27   13   41 1   
    28   13   42 1   
    29   14   15 1   
    30   14   16 1   
    31   17   18 1   
    32   17   29 1   
    33   18   19 2   
    34   18   20 1   
    35   20   21 ar  
    36   20   28 ar  
    37   21   22 ar  
    38   21   43 1   
    39   22   23 1   
    40   22   26 ar  
    41   23   24 1   
    42   23   25 1   
    43   26   27 ar  
    44   26   44 1   
    45   27   28 ar  
    46   27   45 1   
    47   28   29 1   
    48   29   30 2   
@<TRIPOS>SUBSTRUCTURE
     1 WH6         1 TEMP              0 ****  ****    0 ROOT
