@<TRIPOS>MOLECULE
WHA
   48    51     1     0     0
SMALL
bcc


@<TRIPOS>ATOM
      1 C4         -0.0510   -0.0450   -0.0080 ca        1 WHA     -0.071300
      2 C14        -0.6130    0.0260    3.6990 cp        1 WHA     -0.198500
      3 C5          1.2770   -0.4020   -0.0810 ca        1 WHA     -0.115000
      4 C6          2.0150   -0.6300    1.1040 ca        1 WHA     -0.080000
      5 C11        -2.6840    0.5990    2.5540 ca        1 WHA     -0.141000
      6 C7          1.4230   -0.5020    2.3380 ca        1 WHA     -0.151000
      7 C8          0.0570   -0.1260    2.4500 ca        1 WHA      0.022000
      8 C9         -0.6840    0.0980    1.2620 ca        1 WHA     -0.038000
      9 C10        -2.0600    0.4620    1.3330 ca        1 WHA     -0.022300
     10 C12        -1.9540    0.3750    3.7440 ca        1 WHA      0.091400
     11 C3         -0.8590    0.2140   -1.2380 c3        1 WHA      0.156700
     12 C1         -2.7970    0.7080    0.0560 c3        1 WHA      0.153700
     13 O2         -2.2480   -0.0150   -1.0350 os        1 WHA     -0.384600
     14 CL1        -2.7600    0.5700    5.2290 cl        1 WHA     -0.079400
     15 C15         0.1220   -0.1930    4.9680 cp        1 WHA      0.827500
     16 N16         1.0520    0.7100    5.3750 nb        1 WHA     -0.650000
     17 N17        -0.2250   -1.3300    5.6970 nb        1 WHA     -0.693000
     18 C18         0.4410   -1.4620    6.8720 ca        1 WHA      0.756900
     19 N19         0.0910   -2.6700    7.6840 n4        1 WHA     -0.824300
     20 N22         1.3930   -0.6180    7.3970 nb        1 WHA     -0.772000
     21 C23         1.6650    0.4630    6.5880 ca        1 WHA      0.751300
     22 S24         2.8180    1.6330    7.0300 ss        1 WHA     -0.038400
     23 C25         3.4520    1.2000    8.6200 c3        1 WHA     -0.079300
     24 C26         4.6300    2.1330    8.7910 c3        1 WHA     -0.080400
     25 C27         4.9610    2.3420   10.2610 c3        1 WHA     -0.143400
     26 C28         6.2160    3.1560   10.3850 c         1 WHA      0.542100
     27 O29         7.0620    3.4030    9.5460 o         1 WHA     -0.365100
     28 N30         6.4920    3.7520   11.7550 n4        1 WHA     -0.766400
     29 H1          1.7750   -0.5180   -1.0570 ha        1 WHA      0.158000
     30 H2          3.0750   -0.9180    1.0210 ha        1 WHA      0.148000
     31 H3         -3.7490    0.8770    2.6150 ha        1 WHA      0.173000
     32 H4          2.0100   -0.6900    3.2470 ha        1 WHA      0.117000
     33 H5         -0.6960    1.2750   -1.5780 h1        1 WHA      0.080200
     34 H6         -0.5910   -0.4970   -2.0660 h1        1 WHA      0.080200
     35 H7         -2.7870    1.8110   -0.1710 h1        1 WHA      0.082200
     36 H8         -3.8600    0.3410    0.1140 h1        1 WHA      0.082200
     37 H9         -0.6210   -3.2300    7.1880 hn        1 WHA      0.484800
     38 H10        -0.2820   -2.3700    8.5920 hn        1 WHA      0.484800
     39 H11         2.6810    1.3610    9.4140 h1        1 WHA      0.092200
     40 H12         3.7770    0.1330    8.6810 h1        1 WHA      0.092200
     41 H13         5.5290    1.7140    8.2590 hc        1 WHA      0.093700
     42 H14         4.4050    3.1320    8.3200 hc        1 WHA      0.093700
     43 H15         4.1040    2.8500   10.7800 hc        1 WHA      0.108200
     44 H16         5.1340    1.3470   10.7610 hc        1 WHA      0.108200
     45 H17         7.4040    4.2330   11.7520 hn        1 WHA      0.476467
     46 H18         5.7640    4.4310   11.9980 hn        1 WHA      0.476467
     47 H193        0.9340   -3.2390    7.8270 hn        1 WHA      0.484800
     48 H303        6.5090    3.0150   12.4670 hn        1 WHA      0.476467
@<TRIPOS>BOND
     1    1    3 ar  
     2    1    8 ar  
     3    1   11 1   
     4    2    7 ar  
     5    2   10 ar  
     6    2   15 1   
     7    3    4 ar  
     8    3   29 1   
     9    4    6 ar  
    10    4   30 1   
    11    5    9 ar  
    12    5   10 ar  
    13    5   31 1   
    14    6    7 ar  
    15    6   32 1   
    16    7    8 ar  
    17    8    9 ar  
    18    9   12 1   
    19   10   14 1   
    20   11   13 1   
    21   11   33 1   
    22   11   34 1   
    23   12   13 1   
    24   12   35 1   
    25   12   36 1   
    26   15   16 ar  
    27   15   17 ar  
    28   16   21 ar  
    29   17   18 ar  
    30   18   19 1   
    31   18   20 ar  
    32   19   37 1   
    33   19   38 1   
    34   19   47 1   
    35   20   21 ar  
    36   21   22 1   
    37   22   23 1   
    38   23   24 1   
    39   23   39 1   
    40   23   40 1   
    41   24   25 1   
    42   24   41 1   
    43   24   42 1   
    44   25   26 1   
    45   25   43 1   
    46   25   44 1   
    47   26   27 2   
    48   26   28 1   
    49   28   45 1   
    50   28   46 1   
    51   28   48 1   
@<TRIPOS>SUBSTRUCTURE
     1 WHA         1 TEMP              0 ****  ****    0 ROOT
