@<TRIPOS>MOLECULE
WHA
   47    50     1     0     0
SMALL
bcc


@<TRIPOS>ATOM
      1 C4         -0.3020   -0.1280    0.0110 ca        1 WHA     -0.090300
      2 C14        -0.4390    0.0680    3.7530 cp        1 WHA     -0.131500
      3 C5          0.9600   -0.6390   -0.1910 ca        1 WHA     -0.116000
      4 C6          1.7950   -0.9260    0.9140 ca        1 WHA     -0.109000
      5 C11        -2.5380    0.8720    2.8200 ca        1 WHA     -0.126000
      6 C7          1.3600   -0.7050    2.1990 ca        1 WHA     -0.119000
      7 C8          0.0610   -0.1810    2.4420 ca        1 WHA      0.007000
      8 C9         -0.7730    0.1110    1.3340 ca        1 WHA     -0.028000
      9 C10        -2.0800    0.6400    1.5450 ca        1 WHA     -0.066300
     10 C12        -1.7070    0.5850    3.9330 ca        1 WHA      0.062400
     11 C3         -1.2030    0.2060   -1.1320 c3        1 WHA      0.165700
     12 C1         -2.9190    0.9500    0.3490 c3        1 WHA      0.164700
     13 O2         -2.5810    0.1610   -0.7840 os        1 WHA     -0.396600
     14 Cl1        -2.3210    0.8870    5.4890 cl        1 WHA     -0.080400
     15 C15         0.4180   -0.2360    4.9360 cp        1 WHA      0.778500
     16 N16         1.1590    0.8030    5.4520 nb        1 WHA     -0.733000
     17 N17         0.3840   -1.5050    5.4200 nb        1 WHA     -0.754000
     18 C18         1.1820   -1.7310    6.5500 ca        1 WHA      0.925900
     19 N19         1.2050   -3.0000    7.0770 nv        1 WHA     -0.943500
     20 N22         1.9600   -0.7410    7.1580 nb        1 WHA     -0.834000
     21 C23         1.8960    0.4780    6.5550 ca        1 WHA      0.782300
     22 S24         2.8200    1.7870    7.2100 ss        1 WHA     -0.205400
     23 C25         3.6240    1.1150    8.6330 c3        1 WHA     -0.051300
     24 C26         4.3890    2.2720    9.2320 c3        1 WHA     -0.087400
     25 C27         5.0110    1.8550   10.5470 c3        1 WHA     -0.159400
     26 C28         5.9360    2.8610   11.1550 c         1 WHA      0.550100
     27 O29         6.9030    2.6780   11.8720 o         1 WHA     -0.383100
     28 N30         5.6390    4.3260   10.8720 nz        1 WHA     -0.768400
     29 H1          1.3300   -0.8330   -1.2090 ha        1 WHA      0.142000
     30 H2          2.8000   -1.3340    0.7280 ha        1 WHA      0.139000
     31 H3         -3.5490    1.2750    2.9920 ha        1 WHA      0.157000
     32 H4          2.0120   -0.9320    3.0550 ha        1 WHA      0.133000
     33 H5         -0.9510    1.2310   -1.5220 h1        1 WHA      0.066200
     34 H6         -1.1140   -0.5480   -1.9610 h1        1 WHA      0.066200
     35 H7         -4.0020    0.7060    0.5310 h1        1 WHA      0.068200
     36 H8         -2.8130    2.0410    0.0920 h1        1 WHA      0.068200
     37 H9          1.7240   -3.1880    7.8980 hn        1 WHA      0.457800
     38 H10         0.6330   -3.7070    6.6810 hn        1 WHA      0.457800
     39 H11         2.8810    0.7040    9.3610 h1        1 WHA      0.095700
     40 H12         4.3120    0.2780    8.3550 h1        1 WHA      0.095700
     41 H13         5.1880    2.5970    8.5110 hc        1 WHA      0.059700
     42 H14         3.6810    3.1310    9.3850 hc        1 WHA      0.059700
     43 H15         5.6090    0.9070   10.4070 hc        1 WHA      0.133700
     44 H16         4.2080    1.6290   11.3070 hc        1 WHA      0.133700
     45 H17         4.6950    4.5580   11.1950 hn        1 WHA      0.471133
     46 H18         5.6900    4.4990    9.8620 hn        1 WHA      0.471133
     47 H303        6.3190    4.9280   11.3530 hn        1 WHA      0.471133
@<TRIPOS>BOND
     1    1    3 ar  
     2    1    8 ar  
     3    1   11 1   
     4    2    7 ar  
     5    2   10 ar  
     6    2   15 1   
     7    3    4 ar  
     8    3   29 1   
     9    4    6 ar  
    10    4   30 1   
    11    5    9 ar  
    12    5   10 ar  
    13    5   31 1   
    14    6    7 ar  
    15    6   32 1   
    16    7    8 ar  
    17    8    9 ar  
    18    9   12 1   
    19   10   14 1   
    20   11   13 1   
    21   11   33 1   
    22   11   34 1   
    23   12   13 1   
    24   12   35 1   
    25   12   36 1   
    26   15   16 ar  
    27   15   17 ar  
    28   16   21 ar  
    29   17   18 ar  
    30   18   19 1   
    31   18   20 ar  
    32   19   37 1   
    33   19   38 1   
    34   20   21 ar  
    35   21   22 1   
    36   22   23 1   
    37   23   24 1   
    38   23   39 1   
    39   23   40 1   
    40   24   25 1   
    41   24   41 1   
    42   24   42 1   
    43   25   26 1   
    44   25   43 1   
    45   25   44 1   
    46   26   27 2   
    47   26   28 1   
    48   28   45 1   
    49   28   46 1   
    50   28   47 1   
@<TRIPOS>SUBSTRUCTURE
     1 WHA         1 TEMP              0 ****  ****    0 ROOT
