@<TRIPOS>MOLECULE
WHA
   47    50     1     0     0
SMALL
bcc


@<TRIPOS>ATOM
      1 C4         -0.2940   -0.1440    0.0110 ca        1 WHA     -0.090300
      2 C14        -0.4420    0.0910    3.7510 cp        1 WHA     -0.131500
      3 C5          0.9580   -0.6820   -0.1800 ca        1 WHA     -0.116000
      4 C6          1.7830   -0.9740    0.9310 ca        1 WHA     -0.109000
      5 C11        -2.5220    0.9280    2.8010 ca        1 WHA     -0.126000
      6 C7          1.3470   -0.7320    2.2120 ca        1 WHA     -0.119000
      7 C8          0.0570   -0.1810    2.4440 ca        1 WHA      0.007000
      8 C9         -0.7660    0.1170    1.3300 ca        1 WHA     -0.028000
      9 C10        -2.0620    0.6740    1.5300 ca        1 WHA     -0.066300
     10 C12        -1.7000    0.6350    3.9200 ca        1 WHA      0.062400
     11 C3         -1.1830    0.1970   -1.1390 c3        1 WHA      0.165700
     12 C1         -2.8900    0.9890    0.3270 c3        1 WHA      0.164700
     13 O2         -2.5640    0.1820   -0.7960 os        1 WHA     -0.396600
     14 CL1        -2.3150    0.9650    5.4700 cl        1 WHA     -0.080400
     15 C15         0.4030   -0.2180    4.9400 cp        1 WHA      0.778500
     16 N16         1.1620    0.8120    5.4490 nb        1 WHA     -0.733000
     17 N17         0.3430   -1.4810    5.4370 nb        1 WHA     -0.754000
     18 C18         1.1310   -1.7120    6.5710 ca        1 WHA      0.925900
     19 N19         1.1270   -2.9760    7.1110 nh        1 WHA     -0.943500
     20 N22         1.9260   -0.7310    7.1740 nb        1 WHA     -0.834000
     21 C23         1.8890    0.4830    6.5590 ca        1 WHA      0.782300
     22 S24         2.8350    1.7800    7.2040 ss        1 WHA     -0.205400
     23 C25         3.6190    1.1060    8.6370 c3        1 WHA     -0.051300
     24 C26         4.4040    2.2540    9.2290 c3        1 WHA     -0.087400
     25 C27         5.0110    1.8390   10.5520 c3        1 WHA     -0.159400
     26 C28         5.9530    2.8320   11.1540 c         1 WHA      0.550100
     27 O29         6.9120    2.6370   11.8790 o         1 WHA     -0.383100
     28 N30         5.6860    4.3000   10.8550 n4        1 WHA     -0.768400
     29 H1          1.3290   -0.8930   -1.1950 ha        1 WHA      0.142000
     30 H2          2.7800   -1.4040    0.7540 ha        1 WHA      0.139000
     31 H3         -3.5240    1.3530    2.9650 ha        1 WHA      0.157000
     32 H4          1.9910   -0.9640    3.0730 ha        1 WHA      0.133000
     33 H5         -1.1060   -0.5680   -1.9600 h1        1 WHA      0.066200
     34 H6         -0.9090    1.2130   -1.5380 h1        1 WHA      0.066200
     35 H7         -3.9780    0.7680    0.5070 h1        1 WHA      0.068200
     36 H8         -2.7610    2.0750    0.0600 h1        1 WHA      0.068200
     37 H9          1.6390   -3.1670    7.9350 hn        1 WHA      0.457800
     38 H10         0.5440   -3.6750    6.7190 hn        1 WHA      0.457800
     39 H11         2.8660    0.7170    9.3660 h1        1 WHA      0.095700
     40 H12         4.2930    0.2540    8.3710 h1        1 WHA      0.095700
     41 H13         3.7130    3.1290    9.3700 hc        1 WHA      0.059700
     42 H14         5.2130    2.5560    8.5090 hc        1 WHA      0.059700
     43 H15         5.5910    0.8770   10.4250 hc        1 WHA      0.133700
     44 H16         4.2000    1.6370   11.3100 hc        1 WHA      0.133700
     45 H17         5.7450    4.4620    9.8440 hn        1 WHA      0.471133
     46 H18         6.3760    4.8930   11.3330 hn        1 WHA      0.471133
     47 H303        4.7450    4.5540   11.1710 hn        1 WHA      0.471133
@<TRIPOS>BOND
     1    1    3 ar  
     2    1    8 ar  
     3    1   11 1   
     4    2    7 ar  
     5    2   10 ar  
     6    2   15 1   
     7    3    4 ar  
     8    3   29 1   
     9    4    6 ar  
    10    4   30 1   
    11    5    9 ar  
    12    5   10 ar  
    13    5   31 1   
    14    6    7 ar  
    15    6   32 1   
    16    7    8 ar  
    17    8    9 ar  
    18    9   12 1   
    19   10   14 1   
    20   11   13 1   
    21   11   33 1   
    22   11   34 1   
    23   12   13 1   
    24   12   35 1   
    25   12   36 1   
    26   15   16 ar  
    27   15   17 ar  
    28   16   21 ar  
    29   17   18 ar  
    30   18   19 1   
    31   18   20 ar  
    32   19   37 1   
    33   19   38 1   
    34   20   21 ar  
    35   21   22 1   
    36   22   23 1   
    37   23   24 1   
    38   23   39 1   
    39   23   40 1   
    40   24   25 1   
    41   24   41 1   
    42   24   42 1   
    43   25   26 1   
    44   25   43 1   
    45   25   44 1   
    46   26   27 2   
    47   26   28 1   
    48   28   45 1   
    49   28   46 1   
    50   28   47 1   
@<TRIPOS>SUBSTRUCTURE
     1 WHA         1 TEMP              0 ****  ****    0 ROOT
