@<TRIPOS>MOLECULE
WHF
   24    20     1     0     0
SMALL
bcc


@<TRIPOS>ATOM
      1 CAE         2.3090   -0.0600   -3.4540 c1        1 WHF     -0.127500
      2 CAC         3.9020   -0.0820   -3.4630 c1        1 WHF     -0.127500
      3 CAD         4.3640   -0.1560   -2.0900 c1        1 WHF     -0.456000
      4 SAJ         3.1170   -0.1850   -1.1670 ss        1 WHF      0.620000
      5 CAO         1.8600   -0.1220   -2.0760 c1        1 WHF     -0.456000
      6 CAL         0.4220   -0.1390   -1.6080 c1        1 WHF      0.301000
      7 OAB        -0.4810   -0.0980   -2.4200 o         1 WHF     -0.298000
      8 CAF         0.1080   -0.2370   -0.1320 c3        1 WHF     -0.203000
      9 CAG        -0.9980    0.7360    0.2150 c3        1 WHF     -0.082000
     10 CAN        -1.5760    0.3820    1.5670 c2        1 WHF     -0.336000
     11 SAK        -3.0420    0.0540    1.8620 ss        1 WHF      0.421000
     12 NAI        -0.8770    0.3850    2.7960 n2        1 WHF     -0.036000
     13 NAH        -1.8980    0.0500    3.9510 n2        1 WHF     -0.118000
     14 CAM        -3.1750   -0.1420    3.3750 c1        1 WHF     -0.195000
     15 NAA        -4.3820   -0.3780    4.0820 n2        1 WHF     -0.285000
     16 HAE         1.7340   -0.0130   -4.2410 DU        1 WHF      0.168333
     17 HAC         4.4700   -0.0500   -4.2560 DU        1 WHF      0.168333
     18 HAD         5.2950   -0.1840   -1.7980 DU        1 WHF      0.168333
     19 HAF1       -0.1800   -1.1470    0.0800 hc        1 WHF      0.119000
     20 HAF2        0.9080   -0.0190    0.3870 hc        1 WHF      0.119000
     21 HAG1       -0.6370    1.6440    0.2420 hc        1 WHF      0.113500
     22 HAG2       -1.7020    0.6850   -0.4640 hc        1 WHF      0.113500
     23 HAA1       -4.3570   -0.7550    4.9140 hn        1 WHF      0.203000
     24 HAA2       -5.1840   -0.1690    3.6980 hn        1 WHF      0.203000
@<TRIPOS>BOND
     1    1    2 1   
     2    1    5 1   
     3    2    3 1   
     4    3    4 1   
     5    4    5 1   
     6    6    7 1   
     7    6    8 1   
     8    8    9 1   
     9    8   19 1   
    10    8   20 1   
    11    9   10 1   
    12    9   21 1   
    13    9   22 1   
    14   10   11 1   
    15   10   12 1   
    16   11   14 1   
    17   12   13 1   
    18   13   14 1   
    19   15   23 1   
    20   15   24 1   
@<TRIPOS>SUBSTRUCTURE
     1 WHF         1 TEMP              0 ****  ****    0 ROOT
