@<TRIPOS>MOLECULE
WHF
   24    25     1     0     0
SMALL
bcc


@<TRIPOS>ATOM
      1 CAE        -4.1630   -0.8160   -0.3650 cc        1 WHF     -0.081000
      2 CAC        -5.1940    0.0810    0.0370 cc        1 WHF     -0.174000
      3 CAD        -4.6710    1.2180    0.6230 cd        1 WHF     -0.159100
      4 SAJ        -3.0130    1.1870    0.6760 ss        1 WHF      0.080200
      5 CAO        -2.9020   -0.3150   -0.0680 cd        1 WHF     -0.233700
      6 CAL        -1.6550   -1.0110   -0.3590 c         1 WHF      0.610700
      7 OAB        -1.6290   -2.1640   -0.8070 o         1 WHF     -0.537100
      8 CAF        -0.3960   -0.2230   -0.1020 c3        1 WHF     -0.174400
      9 CAG         0.7990   -1.1310    0.1140 c3        1 WHF     -0.097700
     10 CAN         2.0660   -0.3700    0.1880 cc        1 WHF      0.335700
     11 SAK         3.4650   -0.8420   -0.7010 ss        1 WHF     -0.207800
     12 NAI         2.2730    0.7290    0.9460 nd        1 WHF     -0.299000
     13 NAH         3.4790    1.2060    0.8820 nd        1 WHF     -0.381000
     14 CAM         4.3010    0.5020    0.0350 cc        1 WHF      0.575300
     15 NAA         5.5930    0.8510   -0.3230 nh        1 WHF     -0.887500
     16 HAE        -4.3400   -1.7820   -0.8480 ha        1 WHF      0.171000
     17 HAC        -6.2570   -0.1210   -0.1070 ha        1 WHF      0.159000
     18 HAD        -5.2610    2.0480    1.0130 h4        1 WHF      0.175000
     19 HAF1       -0.2190    0.4380   -0.9930 hc        1 WHF      0.079700
     20 HAF2       -0.5360    0.4430    0.7910 hc        1 WHF      0.079700
     21 HAG1        0.6580   -1.7110    1.0680 hc        1 WHF      0.074200
     22 HAG2        0.8530   -1.8790   -0.7240 hc        1 WHF      0.074200
     23 HAA1        6.2280    0.0810   -0.3250 hn        1 WHF      0.407800
     24 HAA2        5.9560    1.6560    0.1470 hn        1 WHF      0.407800
@<TRIPOS>BOND
     1    1    2 1   
     2    1    5 2   
     3    1   16 1   
     4    2    3 2   
     5    2   17 1   
     6    3    4 1   
     7    3   18 1   
     8    4    5 1   
     9    5    6 1   
    10    6    7 2   
    11    6    8 1   
    12    8    9 1   
    13    8   19 1   
    14    8   20 1   
    15    9   10 1   
    16    9   21 1   
    17    9   22 1   
    18   10   11 1   
    19   10   12 2   
    20   11   14 1   
    21   12   13 1   
    22   13   14 2   
    23   14   15 1   
    24   15   23 1   
    25   15   24 1   
@<TRIPOS>SUBSTRUCTURE
     1 WHF         1 TEMP              0 ****  ****    0 ROOT
