@<TRIPOS>MOLECULE
WHF
   24    25     1     0     0
SMALL
bcc


@<TRIPOS>ATOM
      1 CAE         0.0130   -0.2460   -0.0420 cc        1 WHF     -0.081000
      2 CAC         1.3670    0.1960   -0.0870 cc        1 WHF     -0.174000
      3 CAD         1.7640    0.7250    1.1270 cd        1 WHF     -0.159100
      4 SAJ         0.5490    0.6800    2.2550 ss        1 WHF      0.080200
      5 CAO        -0.5540   -0.0350    1.2090 cd        1 WHF     -0.233700
      6 CAL        -1.9260   -0.3830    1.5550 c         1 WHF      0.610700
      7 OAB        -2.7340   -0.8050    0.7180 o         1 WHF     -0.537100
      8 CAF        -2.2910   -0.2190    3.0080 c3        1 WHF     -0.174400
      9 CAG        -3.7870   -0.0540    3.1950 c3        1 WHF     -0.097700
     10 CAN        -4.1720   -0.0720    4.6240 cc        1 WHF      0.335700
     11 SAK        -5.4790   -1.0330    5.2030 ss        1 WHF     -0.207800
     12 NAI        -3.5800    0.6500    5.6000 nd        1 WHF     -0.299000
     13 NAH        -4.1130    0.5040    6.7740 nd        1 WHF     -0.381000
     14 CAM        -5.1680   -0.3770    6.7900 cc        1 WHF      0.575300
     15 NAA        -5.8450   -0.8190    7.9150 nv        1 WHF     -0.887500
     16 HAE        -0.5170   -0.6950   -0.8860 ha        1 WHF      0.171000
     17 HAC         1.9950    0.1200   -0.9770 ha        1 WHF      0.159000
     18 HAD         2.7540    1.1300    1.3370 h4        1 WHF      0.175000
     19 HAF1       -1.7530    0.6670    3.4410 hc        1 WHF      0.079700
     20 HAF2       -1.9350   -1.1320    3.5560 hc        1 WHF      0.079700
     21 HAG1       -4.3220   -0.8780    2.6470 hc        1 WHF      0.074200
     22 HAG2       -4.1150    0.9180    2.7340 hc        1 WHF      0.074200
     23 HAA1       -5.5610   -0.3880    8.7720 hn        1 WHF      0.407800
     24 HAA2       -6.8360   -0.8420    7.8010 hn        1 WHF      0.407800
@<TRIPOS>BOND
     1    1    2 1   
     2    1    5 2   
     3    1   16 1   
     4    2    3 2   
     5    2   17 1   
     6    3    4 1   
     7    3   18 1   
     8    4    5 1   
     9    5    6 1   
    10    6    7 2   
    11    6    8 1   
    12    8    9 1   
    13    8   19 1   
    14    8   20 1   
    15    9   10 1   
    16    9   21 1   
    17    9   22 1   
    18   10   11 1   
    19   10   12 2   
    20   11   14 1   
    21   12   13 1   
    22   13   14 2   
    23   14   15 1   
    24   15   23 1   
    25   15   24 1   
@<TRIPOS>SUBSTRUCTURE
     1 WHF         1 TEMP              0 ****  ****    0 ROOT
