@<TRIPOS>MOLECULE
WHF
   25    26     1     0     0
SMALL
bcc


@<TRIPOS>ATOM
      1 CAE        -0.0480   -0.3530   -0.0590 cc        1 WHF     -0.057000
      2 CAC         1.3130    0.0400   -0.1990 cc        1 WHF     -0.169000
      3 CAD         1.7930    0.6160    0.9620 cd        1 WHF     -0.129100
      4 SAJ         0.6420    0.6710    2.1570 ss        1 WHF      0.058200
      5 CAO        -0.5420   -0.0590    1.2090 cd        1 WHF     -0.250700
      6 CAL        -1.8980   -0.3460    1.6280 c         1 WHF      0.618700
      7 OAB        -2.7610   -0.8150    0.8740 o         1 WHF     -0.538100
      8 CAF        -2.2170   -0.0640    3.0810 c3        1 WHF     -0.177400
      9 CAG        -3.7000    0.1950    3.2670 c3        1 WHF     -0.137700
     10 CAN        -4.1350    0.0340    4.6710 cc        1 WHF      0.413700
     11 SAK        -5.5040   -0.8560    5.1200 ss        1 WHF      0.076200
     12 NAI        -3.4850    0.5960    5.7520 nd        1 WHF     -0.279000
     13 NAH        -4.0380    0.3440    6.8730 nd        1 WHF     -0.224000
     14 CAM        -5.1750   -0.4450    6.7460 cc        1 WHF      0.214300
     15 NAA        -5.9450   -0.8350    7.9020 n4        1 WHF     -0.759300
     16 HAE        -0.6360   -0.8270   -0.8520 ha        1 WHF      0.177000
     17 HAC         1.8890   -0.1020   -1.1160 ha        1 WHF      0.172000
     18 HAD         2.8060    0.9980    1.0990 h4        1 WHF      0.186000
     19 HAF1       -1.6240    0.8160    3.4460 hc        1 WHF      0.083200
     20 HAF2       -1.8950   -0.9620    3.6750 hc        1 WHF      0.083200
     21 HAG1       -3.9360    1.2480    2.9340 hc        1 WHF      0.106200
     22 HAG2       -4.2880   -0.5020    2.6030 hc        1 WHF      0.106200
     23 HAA1       -6.9020   -0.4690    7.8190 hn        1 WHF      0.475467
     24 HAA2       -5.5180   -0.4530    8.7620 hn        1 WHF      0.475467
     25 HAA3       -5.9660   -1.8600    7.9730 hn        1 WHF      0.475467
@<TRIPOS>BOND
     1    1    2 1   
     2    1    5 2   
     3    1   16 1   
     4    2    3 2   
     5    2   17 1   
     6    3    4 1   
     7    3   18 1   
     8    4    5 1   
     9    5    6 1   
    10    6    7 2   
    11    6    8 1   
    12    8    9 1   
    13    8   19 1   
    14    8   20 1   
    15    9   10 1   
    16    9   21 1   
    17    9   22 1   
    18   10   11 1   
    19   10   12 2   
    20   11   14 1   
    21   12   13 1   
    22   13   14 2   
    23   14   15 1   
    24   15   23 1   
    25   15   24 1   
    26   15   25 1   
@<TRIPOS>SUBSTRUCTURE
     1 WHF         1 TEMP              0 ****  ****    0 ROOT
