@<TRIPOS>MOLECULE
WHJ
   52    54     1     0     0
SMALL
bcc


@<TRIPOS>ATOM
      1 O1         -0.2060   -0.2650    0.7280 o         1 WHJ     -0.587500
      2 C9          1.0150   -0.1850    0.5190 c         1 WHJ      0.683700
      3 N1          1.8880   -0.0940    1.6130 ns        1 WHJ     -0.428100
      4 C7          3.2610   -0.0030    1.4600 ca        1 WHJ      0.089600
      5 C6          4.1240    0.0900    2.6060 ca        1 WHJ      0.116100
      6 O2          3.5090    0.0900    3.8340 oh        1 WHJ     -0.490100
      7 C5          5.5010    0.1680    2.4530 ca        1 WHJ     -0.177000
      8 C4          6.0640    0.1620    1.1730 ca        1 WHJ     -0.106000
      9 C8          1.6330   -0.1840   -0.8180 cc        1 WHJ     -0.185200
     10 C1          2.9700   -0.1010   -0.9710 cd        1 WHJ     -0.079200
     11 C2          3.8550   -0.0040    0.1680 ca        1 WHJ     -0.092800
     12 C3          5.2610    0.0880    0.0430 ca        1 WHJ     -0.152300
     13 C10         5.9040    0.1150   -1.3100 c3        1 WHJ      0.189400
     14 O4          7.1860    0.7320   -1.3170 oh        1 WHJ     -0.634800
     15 C11         6.1380   -1.3420   -1.7750 c3        1 WHJ      0.100800
     16 N2          6.9120   -1.4120   -3.0440 ny        1 WHJ     -0.762000
     17 C12         7.2390   -2.8270   -3.4540 c3        1 WHJ      0.129500
     18 C13         8.4480   -3.3660   -2.7050 c3        1 WHJ     -0.130100
     19 C14         7.4820   -2.9070   -4.9710 c3        1 WHJ     -0.048100
     20 C15         6.3420   -2.3590   -5.7490 ca        1 WHJ     -0.201300
     21 C20         6.4050   -1.0600   -6.2760 ca        1 WHJ     -0.095000
     22 C19         5.3570   -0.5460   -7.0240 ca        1 WHJ     -0.176000
     23 C18         4.2200   -1.3480   -7.2630 ca        1 WHJ      0.159100
     24 O3          3.2320   -0.7440   -8.0000 os        1 WHJ     -0.311900
     25 C21         2.1230   -1.5590   -8.3770 c3        1 WHJ      0.106700
     26 C17         4.1520   -2.6520   -6.7530 ca        1 WHJ     -0.176000
     27 C16         5.2150   -3.1480   -6.0040 ca        1 WHJ     -0.095000
     28 H1          1.5070   -0.0800    2.5380 hn        1 WHJ      0.360500
     29 H8          0.9280   -0.2500   -1.6610 ha        1 WHJ      0.176000
     30 H2          4.1890    0.1890    4.5190 ho        1 WHJ      0.445000
     31 H5          6.1540    0.2360    3.3380 ha        1 WHJ      0.158000
     32 H4          7.1600    0.2200    1.0730 ha        1 WHJ      0.148000
     33 HA          3.4070   -0.1030   -1.9810 ha        1 WHJ      0.123000
     34 H10         5.2540    0.6640   -2.0510 h1        1 WHJ      0.066700
     35 HB          7.1220    1.5550   -0.8120 ho        1 WHJ      0.453000
     36 H111        5.1390   -1.8390   -1.9240 hx        1 WHJ      0.112200
     37 H112        6.7170   -1.8940   -0.9810 hx        1 WHJ      0.112200
     38 HC          7.7840   -0.8790   -2.9210 hn        1 WHJ      0.460300
     39 H12         6.3270   -3.4490   -3.2030 hx        1 WHJ      0.102700
     40 H131        8.6160   -4.4260   -3.0260 hc        1 WHJ      0.075700
     41 H132        9.3710   -2.7810   -2.9420 hc        1 WHJ      0.075700
     42 H133        8.2860   -3.3580   -1.6000 hc        1 WHJ      0.075700
     43 H141        8.4340   -2.3720   -5.2340 hc        1 WHJ      0.087200
     44 H142        7.6330   -3.9940   -5.2190 hc        1 WHJ      0.087200
     45 H20         7.3100   -0.4500   -6.1290 ha        1 WHJ      0.136500
     46 H16         5.1700   -4.1800   -5.6200 ha        1 WHJ      0.136500
     47 H19         5.4000    0.4670   -7.4530 ha        1 WHJ      0.163500
     48 H17         3.2780   -3.2900   -6.9510 ha        1 WHJ      0.163500
     49 H211        1.5540   -1.8850   -7.4730 h1        1 WHJ      0.058367
     50 H212        1.5060   -0.8700   -9.0090 h1        1 WHJ      0.058367
     51 H213        2.4660   -2.4410   -8.9710 h1        1 WHJ      0.058367
     52 H22         6.3720   -0.9670   -3.8000 hn        1 WHJ      0.460300
@<TRIPOS>BOND
     1    1    2 2   
     2    2    3 1   
     3    2    9 1   
     4    3    4 1   
     5    3   28 1   
     6    4    5 ar  
     7    4   11 ar  
     8    5    6 1   
     9    5    7 ar  
    10    6   30 1   
    11    7    8 ar  
    12    7   31 1   
    13    8   12 ar  
    14    8   32 1   
    15    9   10 2   
    16    9   29 1   
    17   10   11 1   
    18   10   33 1   
    19   11   12 ar  
    20   12   13 1   
    21   13   14 1   
    22   13   15 1   
    23   13   34 1   
    24   14   35 1   
    25   15   16 1   
    26   15   36 1   
    27   15   37 1   
    28   16   17 1   
    29   16   38 1   
    30   16   52 1   
    31   17   18 1   
    32   17   19 1   
    33   17   39 1   
    34   18   40 1   
    35   18   41 1   
    36   18   42 1   
    37   19   20 1   
    38   19   43 1   
    39   19   44 1   
    40   20   21 ar  
    41   20   27 ar  
    42   21   22 ar  
    43   21   45 1   
    44   22   23 ar  
    45   22   47 1   
    46   23   24 1   
    47   23   26 ar  
    48   24   25 1   
    49   25   49 1   
    50   25   50 1   
    51   25   51 1   
    52   26   27 ar  
    53   26   48 1   
    54   27   46 1   
@<TRIPOS>SUBSTRUCTURE
     1 WHJ         1 TEMP              0 ****  ****    0 ROOT
