@<TRIPOS>MOLECULE
WHJ
   51    48     1     0     0
SMALL
bcc


@<TRIPOS>ATOM
      1 O1          2.5750   -0.4430    6.5300 o         1 WHJ     -0.356000
      2 C9          1.8800    0.0870    5.6860 c1        1 WHJ      0.327000
      3 N1          0.5170    0.4480    5.9970 n2        1 WHJ     -0.287000
      4 C7         -0.3270    1.1630    4.9760 c2        1 WHJ      0.084000
      5 C6         -1.6460    1.5200    5.2860 c2        1 WHJ      0.035000
      6 O2         -1.9550    1.3080    6.6460 oh        1 WHJ     -0.259000
      7 C5         -2.4280    2.1920    4.3450 c1        1 WHJ     -0.172000
      8 C4         -1.8930    2.5110    3.0850 c1        1 WHJ     -0.120000
      9 C8          2.4480    0.4190    4.3670 c2        1 WHJ     -0.207000
     10 C1          1.6320    1.1090    3.3820 c1        1 WHJ     -0.059000
     11 C2          0.2090    1.4830    3.7130 c1        1 WHJ     -0.077000
     12 C3         -0.5760    2.1570    2.7720 c2        1 WHJ     -0.098000
     13 C10        -0.4060    2.6090    1.3250 c3        1 WHJ      0.063000
     14 O4          0.8970    3.0580    1.1280 oh        1 WHJ     -0.334000
     15 C11        -0.6860    1.4400    0.3920 c3        1 WHJ     -0.064000
     16 N2          0.3320    1.3860   -0.6370 n3        1 WHJ     -0.298000
     17 C12         0.2590    0.1210   -1.3180 c3        1 WHJ     -0.021000
     18 C13         0.6390   -0.9700   -0.3790 c3        1 WHJ     -0.249000
     19 C14         1.2130    0.1260   -2.5050 c3        1 WHJ     -0.110000
     20 C15         0.7440   -0.9160   -3.5490 c2        1 WHJ     -0.098000
     21 C20         0.7150   -2.2600   -3.2190 c2        1 WHJ     -0.098000
     22 C19         0.4090   -3.2100   -4.1900 c1        1 WHJ     -0.205000
     23 C18         0.1350   -2.8090   -5.4880 c1        1 WHJ      0.074000
     24 O3         -0.2360   -3.7710   -6.4630 os        1 WHJ     -0.213000
     25 C21        -1.6330   -4.0450   -6.5000 c3        1 WHJ     -0.075000
     26 C17         0.1650   -1.4640   -5.8200 c1        1 WHJ     -0.160000
     27 C16         0.4690   -0.5160   -4.8510 c1        1 WHJ     -0.077000
     28 H1          0.1570    0.2160    6.8030 hn        1 WHJ      0.261000
     29 H8          3.3870    0.2240    4.1740 ha        1 WHJ      0.166000
     30 H2         -2.7440    1.6570    6.8270 ho        1 WHJ      0.229000
     31 H5         -3.3450    2.4400    4.5620 ha        1 WHJ      0.141000
     32 H4         -2.4390    2.9800    2.4300 ha        1 WHJ      0.144000
     33 HA          2.0070    1.3310    2.5030 ha        1 WHJ      0.169000
     34 H10        -1.0410    3.3450    1.1330 h1        1 WHJ      0.097000
     35 HB          0.9050    3.9530    1.1130 ho        1 WHJ      0.211000
     36 H111       -1.5630    1.5590   -0.0240 h1        1 WHJ      0.083000
     37 H112       -0.6790    0.6040    0.9040 h1        1 WHJ      0.083000
     38 HC          1.1600    1.4790   -0.2540 hn        1 WHJ      0.164000
     39 H12        -0.6550   -0.0260   -1.6360 h1        1 WHJ      0.099000
     40 H131        1.3330   -0.6500    0.2300 hc        1 WHJ      0.078667
     41 H132       -0.1450   -1.2450    0.1360 hc        1 WHJ      0.078667
     42 H133        0.9780   -1.7320   -0.8860 hc        1 WHJ      0.078667
     43 H141        1.2210    1.0090   -2.9100 hc        1 WHJ      0.088000
     44 H142        2.1190   -0.1020   -2.1980 hc        1 WHJ      0.088000
     45 H20         0.9060   -2.5410   -2.3120 ha        1 WHJ      0.128000
     46 H16         0.4900    0.4380   -5.0860 ha        1 WHJ      0.141000
     47 H19         0.3880   -4.1680   -3.9540 ha        1 WHJ      0.134000
     48 H17        -0.0290   -1.1820   -6.7360 ha        1 WHJ      0.146000
     49 H211       -2.1180   -3.2400   -6.7920 h1        1 WHJ      0.082333
     50 H212       -1.9390   -4.3040   -5.6030 h1        1 WHJ      0.082333
     51 H213       -1.8080   -4.7800   -7.1310 h1        1 WHJ      0.082333
@<TRIPOS>BOND
     1    1    2 1   
     2    2    9 1   
     3    3    4 1   
     4    3   28 1   
     5    4    5 1   
     6    4   11 1   
     7    5    6 1   
     8    5    7 1   
     9    6   30 1   
    10    7   31 1   
    11    8   12 1   
    12    8   32 1   
    13    9   10 1   
    14    9   29 1   
    15   10   33 1   
    16   11   12 1   
    17   12   13 1   
    18   13   14 1   
    19   13   15 1   
    20   13   34 1   
    21   14   35 1   
    22   15   16 1   
    23   15   36 1   
    24   15   37 1   
    25   16   17 1   
    26   16   38 1   
    27   17   18 1   
    28   17   19 1   
    29   17   39 1   
    30   18   40 1   
    31   18   41 1   
    32   18   42 1   
    33   19   20 1   
    34   19   43 1   
    35   19   44 1   
    36   20   21 1   
    37   20   27 1   
    38   21   22 1   
    39   21   45 1   
    40   22   47 1   
    41   23   24 1   
    42   23   26 1   
    43   24   25 1   
    44   25   49 1   
    45   25   50 1   
    46   25   51 1   
    47   26   48 1   
    48   27   46 1   
@<TRIPOS>SUBSTRUCTURE
     1 WHJ         1 TEMP              0 ****  ****    0 ROOT
