@<TRIPOS>MOLECULE
WHJ
   52    54     1     0     0
SMALL
bcc


@<TRIPOS>ATOM
      1 O1         -0.2050   -0.2490    0.7230 o         1 WHJ     -0.587500
      2 C9          1.0160   -0.1720    0.5150 c         1 WHJ      0.683700
      3 N1          1.8890   -0.0810    1.6090 n         1 WHJ     -0.428100
      4 C7          3.2620    0.0070    1.4580 ca        1 WHJ      0.089600
      5 C6          4.1240    0.1010    2.6040 ca        1 WHJ      0.116100
      6 O2          3.5090    0.1040    3.8310 oh        1 WHJ     -0.490100
      7 C5          5.5020    0.1750    2.4520 ca        1 WHJ     -0.177000
      8 C4          6.0660    0.1660    1.1710 ca        1 WHJ     -0.106000
      9 C8          1.6350   -0.1750   -0.8210 cc        1 WHJ     -0.185200
     10 C1          2.9720   -0.0960   -0.9740 cd        1 WHJ     -0.079200
     11 C2          3.8570    0.0010    0.1650 ca        1 WHJ     -0.092800
     12 C3          5.2630    0.0900    0.0420 ca        1 WHJ     -0.152300
     13 C10         5.9080    0.1130   -1.3110 c3        1 WHJ      0.189400
     14 O4          7.1910    0.7260   -1.3190 oh        1 WHJ     -0.634800
     15 C11         6.1370   -1.3460   -1.7740 c3        1 WHJ      0.100800
     16 N2          6.9120   -1.4210   -3.0420 n4        1 WHJ     -0.762000
     17 C12         7.2330   -2.8370   -3.4500 c3        1 WHJ      0.129500
     18 C13         8.4390   -3.3800   -2.7000 c3        1 WHJ     -0.130100
     19 C14         7.4770   -2.9200   -4.9670 c3        1 WHJ     -0.048100
     20 C15         6.3390   -2.3680   -5.7460 ca        1 WHJ     -0.201300
     21 C20         6.4100   -1.0690   -6.2750 ca        1 WHJ     -0.095000
     22 C19         5.3650   -0.5500   -7.0250 ca        1 WHJ     -0.176000
     23 C18         4.2230   -1.3470   -7.2630 ca        1 WHJ      0.159100
     24 O3          3.2400   -0.7390   -8.0010 os        1 WHJ     -0.311900
     25 C21         2.1270   -1.5490   -8.3780 c3        1 WHJ      0.106700
     26 C17         4.1490   -2.6500   -6.7520 ca        1 WHJ     -0.176000
     27 C16         5.2090   -3.1510   -6.0010 ca        1 WHJ     -0.095000
     28 H1          1.5080   -0.0630    2.5340 hn        1 WHJ      0.360500
     29 H8          0.9310   -0.2420   -1.6650 ha        1 WHJ      0.176000
     30 H2          4.1890    0.2040    4.5160 ho        1 WHJ      0.445000
     31 H5          6.1540    0.2440    3.3360 ha        1 WHJ      0.158000
     32 H4          7.1620    0.2210    1.0720 ha        1 WHJ      0.148000
     33 HA          3.4100   -0.1000   -1.9830 ha        1 WHJ      0.123000
     34 H10         5.2600    0.6630   -2.0540 h1        1 WHJ      0.066700
     35 HB          7.1300    1.5500   -0.8160 ho        1 WHJ      0.453000
     36 H111        5.1360   -1.8400   -1.9220 hx        1 WHJ      0.112200
     37 H112        6.7140   -1.8980   -0.9780 hx        1 WHJ      0.112200
     38 HC          6.3730   -0.9740   -3.7990 hn        1 WHJ      0.460300
     39 H12         6.3180   -3.4550   -3.1990 hx        1 WHJ      0.102700
     40 H131        8.6020   -4.4410   -3.0190 hc        1 WHJ      0.075700
     41 H132        8.2760   -3.3700   -1.5950 hc        1 WHJ      0.075700
     42 H133        9.3650   -2.8000   -2.9370 hc        1 WHJ      0.075700
     43 H141        7.6220   -4.0080   -5.2140 hc        1 WHJ      0.087200
     44 H142        8.4310   -2.3900   -5.2290 hc        1 WHJ      0.087200
     45 H20         7.3180   -0.4630   -6.1280 ha        1 WHJ      0.136500
     46 H16         5.1580   -4.1820   -5.6170 ha        1 WHJ      0.136500
     47 H19         5.4130    0.4620   -7.4540 ha        1 WHJ      0.163500
     48 H17         3.2720   -3.2850   -6.9490 ha        1 WHJ      0.163500
     49 H211        2.4660   -2.4330   -8.9700 h1        1 WHJ      0.058367
     50 H212        1.5130   -0.8570   -9.0110 h1        1 WHJ      0.058367
     51 H213        1.5560   -1.8700   -7.4740 h1        1 WHJ      0.058367
     52 H22         7.7860   -0.8910   -2.9190 hn        1 WHJ      0.460300
@<TRIPOS>BOND
     1    1    2 2   
     2    2    3 1   
     3    2    9 1   
     4    3    4 1   
     5    3   28 1   
     6    4    5 ar  
     7    4   11 ar  
     8    5    6 1   
     9    5    7 ar  
    10    6   30 1   
    11    7    8 ar  
    12    7   31 1   
    13    8   12 ar  
    14    8   32 1   
    15    9   10 2   
    16    9   29 1   
    17   10   11 1   
    18   10   33 1   
    19   11   12 ar  
    20   12   13 1   
    21   13   14 1   
    22   13   15 1   
    23   13   34 1   
    24   14   35 1   
    25   15   16 1   
    26   15   36 1   
    27   15   37 1   
    28   16   17 1   
    29   16   38 1   
    30   16   52 1   
    31   17   18 1   
    32   17   19 1   
    33   17   39 1   
    34   18   40 1   
    35   18   41 1   
    36   18   42 1   
    37   19   20 1   
    38   19   43 1   
    39   19   44 1   
    40   20   21 ar  
    41   20   27 ar  
    42   21   22 ar  
    43   21   45 1   
    44   22   23 ar  
    45   22   47 1   
    46   23   24 1   
    47   23   26 ar  
    48   24   25 1   
    49   25   49 1   
    50   25   50 1   
    51   25   51 1   
    52   26   27 ar  
    53   26   48 1   
    54   27   46 1   
@<TRIPOS>SUBSTRUCTURE
     1 WHJ         1 TEMP              0 ****  ****    0 ROOT
