@<TRIPOS>MOLECULE
WHJ
   52    54     1     0     0
SMALL
bcc


@<TRIPOS>ATOM
      1 O1         -0.2040   -0.2550    0.7290 o         1 WHJ     -0.587500
      2 C9          1.0170   -0.1760    0.5200 c         1 WHJ      0.683700
      3 N1          1.8910   -0.0840    1.6130 n         1 WHJ     -0.428100
      4 C7          3.2640    0.0050    1.4600 ca        1 WHJ      0.089600
      5 C6          4.1270    0.1000    2.6050 ca        1 WHJ      0.116100
      6 O2          3.5130    0.1030    3.8330 oh        1 WHJ     -0.490100
      7 C5          5.5040    0.1760    2.4510 ca        1 WHJ     -0.177000
      8 C4          6.0660    0.1680    1.1700 ca        1 WHJ     -0.106000
      9 C8          1.6340   -0.1780   -0.8180 cc        1 WHJ     -0.185200
     10 C1          2.9710   -0.0970   -0.9710 cd        1 WHJ     -0.079200
     11 C2          3.8570    0.0010    0.1670 ca        1 WHJ     -0.092800
     12 C3          5.2620    0.0920    0.0410 ca        1 WHJ     -0.152300
     13 C10         5.9050    0.1160   -1.3120 c3        1 WHJ      0.189400
     14 O4          7.1880    0.7320   -1.3210 oh        1 WHJ     -0.634800
     15 C11         6.1380   -1.3420   -1.7750 c3        1 WHJ      0.100800
     16 N2          6.9110   -1.4160   -3.0440 n4        1 WHJ     -0.762000
     17 C12         7.2370   -2.8320   -3.4520 c3        1 WHJ      0.129500
     18 C13         8.4450   -3.3710   -2.7020 c3        1 WHJ     -0.130100
     19 C14         7.4790   -2.9140   -4.9680 c3        1 WHJ     -0.048100
     20 C15         6.3400   -2.3660   -5.7470 ca        1 WHJ     -0.201300
     21 C20         6.4050   -1.0670   -6.2770 ca        1 WHJ     -0.095000
     22 C19         5.3580   -0.5520   -7.0260 ca        1 WHJ     -0.176000
     23 C18         4.2190   -1.3530   -7.2630 ca        1 WHJ      0.159100
     24 O3          3.2330   -0.7480   -8.0010 os        1 WHJ     -0.311900
     25 C21         2.1230   -1.5620   -8.3770 c3        1 WHJ      0.106700
     26 C17         4.1490   -2.6560   -6.7510 ca        1 WHJ     -0.176000
     27 C16         5.2120   -3.1530   -6.0010 ca        1 WHJ     -0.095000
     28 H1          1.5100   -0.0680    2.5380 hn        1 WHJ      0.360500
     29 H8          0.9290   -0.2460   -1.6600 ha        1 WHJ      0.176000
     30 H2          4.1930    0.2030    4.5170 ho        1 WHJ      0.445000
     31 H5          6.1570    0.2460    3.3350 ha        1 WHJ      0.158000
     32 H4          7.1620    0.2250    1.0700 ha        1 WHJ      0.148000
     33 HA          3.4080   -0.1010   -1.9820 ha        1 WHJ      0.123000
     34 H10         5.2550    0.6640   -2.0550 h1        1 WHJ      0.066700
     35 HB          7.1250    1.5560   -0.8180 ho        1 WHJ      0.453000
     36 H111        5.1380   -1.8390   -1.9220 hx        1 WHJ      0.112200
     37 H112        6.7160   -1.8930   -0.9800 hx        1 WHJ      0.112200
     38 HC          6.3710   -0.9710   -3.8010 hn        1 WHJ      0.460300
     39 H12         6.3240   -3.4520   -3.2000 hx        1 WHJ      0.102700
     40 H131        8.2830   -3.3610   -1.5970 hc        1 WHJ      0.075700
     41 H132        9.3680   -2.7880   -2.9400 hc        1 WHJ      0.075700
     42 H133        8.6110   -4.4310   -3.0210 hc        1 WHJ      0.075700
     43 H141        8.4320   -2.3810   -5.2320 hc        1 WHJ      0.087200
     44 H142        7.6280   -4.0020   -5.2150 hc        1 WHJ      0.087200
     45 H20         7.3110   -0.4580   -6.1300 ha        1 WHJ      0.136500
     46 H16         5.1650   -4.1840   -5.6160 ha        1 WHJ      0.136500
     47 H19         5.4030    0.4600   -7.4550 ha        1 WHJ      0.163500
     48 H17         3.2740   -3.2940   -6.9480 ha        1 WHJ      0.163500
     49 H211        1.5060   -0.8730   -9.0100 h1        1 WHJ      0.058367
     50 H212        1.5530   -1.8850   -7.4730 h1        1 WHJ      0.058367
     51 H213        2.4640   -2.4450   -8.9690 h1        1 WHJ      0.058367
     52 H22         7.7840   -0.8840   -2.9220 hn        1 WHJ      0.460300
@<TRIPOS>BOND
     1    1    2 2   
     2    2    3 1   
     3    2    9 1   
     4    3    4 1   
     5    3   28 1   
     6    4    5 ar  
     7    4   11 ar  
     8    5    6 1   
     9    5    7 ar  
    10    6   30 1   
    11    7    8 ar  
    12    7   31 1   
    13    8   12 ar  
    14    8   32 1   
    15    9   10 2   
    16    9   29 1   
    17   10   11 1   
    18   10   33 1   
    19   11   12 ar  
    20   12   13 1   
    21   13   14 1   
    22   13   15 1   
    23   13   34 1   
    24   14   35 1   
    25   15   16 1   
    26   15   36 1   
    27   15   37 1   
    28   16   17 1   
    29   16   38 1   
    30   16   52 1   
    31   17   18 1   
    32   17   19 1   
    33   17   39 1   
    34   18   40 1   
    35   18   41 1   
    36   18   42 1   
    37   19   20 1   
    38   19   43 1   
    39   19   44 1   
    40   20   21 ar  
    41   20   27 ar  
    42   21   22 ar  
    43   21   45 1   
    44   22   23 ar  
    45   22   47 1   
    46   23   24 1   
    47   23   26 ar  
    48   24   25 1   
    49   25   49 1   
    50   25   50 1   
    51   25   51 1   
    52   26   27 ar  
    53   26   48 1   
    54   27   46 1   
@<TRIPOS>SUBSTRUCTURE
     1 WHJ         1 TEMP              0 ****  ****    0 ROOT
