@<TRIPOS>MOLECULE
WHJ
   51    53     1     0     0
SMALL
bcc


@<TRIPOS>ATOM
      1 O1          4.8130   -0.7770   -4.1000 o         1 WHJ     -0.630500
      2 C9          4.1250   -0.5340   -3.0910 c         1 WHJ      0.688700
      3 N1          4.7560   -0.4640   -1.8450 n         1 WHJ     -0.431100
      4 C7          4.0610   -0.2010   -0.6730 ca        1 WHJ      0.082600
      5 C6          4.7380   -0.1500    0.5880 ca        1 WHJ      0.075100
      6 O2          6.1010   -0.3670    0.5690 oh        1 WHJ     -0.506100
      7 C5          4.0370    0.1040    1.7570 ca        1 WHJ     -0.165000
      8 C4          2.6560    0.3230    1.7140 ca        1 WHJ     -0.122000
      9 C8          2.6720   -0.3110   -3.1090 cc        1 WHJ     -0.222200
     10 C1          1.9900   -0.0480   -1.9740 cd        1 WHJ     -0.047200
     11 C2          2.6560    0.0240   -0.6940 ca        1 WHJ     -0.102800
     12 C3          1.9640    0.2940    0.5110 ca        1 WHJ     -0.080300
     13 C10         0.4810    0.5360    0.4860 c3        1 WHJ      0.139400
     14 O4         -0.1290    0.3520    1.7520 oh        1 WHJ     -0.585800
     15 C11         0.1790    1.9580   -0.0510 c3        1 WHJ      0.132800
     16 N2         -1.2110    2.2780   -0.2510 n3        1 WHJ     -0.815200
     17 C12        -1.8000    1.7440   -1.4780 c3        1 WHJ      0.177500
     18 C13        -1.3640    2.5310   -2.7160 c3        1 WHJ     -0.093100
     19 C14        -3.3400    1.7560   -1.4250 c3        1 WHJ     -0.036100
     20 C15        -3.8810    0.8840   -0.3500 ca        1 WHJ     -0.126300
     21 C20        -4.2690    1.4330    0.8810 ca        1 WHJ     -0.094500
     22 C19        -4.7880    0.6300    1.8870 ca        1 WHJ     -0.176000
     23 C18        -4.9240   -0.7530    1.6610 ca        1 WHJ      0.127100
     24 O3         -5.4540   -1.4640    2.7200 os        1 WHJ     -0.326900
     25 C21        -5.5640   -2.8710    2.5390 c3        1 WHJ      0.113700
     26 C17        -4.5430   -1.3160    0.4380 ca        1 WHJ     -0.176000
     27 C16        -4.0240   -0.4900   -0.5580 ca        1 WHJ     -0.094500
     28 H1          5.7420   -0.6160   -1.7880 hn        1 WHJ      0.348500
     29 H8          2.1970   -0.3750   -4.0980 ha        1 WHJ      0.166000
     30 H2          6.4200   -0.3260    1.4820 ho        1 WHJ      0.429000
     31 H5          4.5650    0.1320    2.7220 ha        1 WHJ      0.141000
     32 H4          2.1220    0.5020    2.6590 ha        1 WHJ      0.142000
     33 HA          0.9000    0.1190   -2.0070 ha        1 WHJ      0.144000
     34 H10        -0.0180   -0.2530   -0.1510 h1        1 WHJ      0.087700
     35 HB          0.1180    1.1010    2.3110 ho        1 WHJ      0.399000
     36 H111        0.5770    2.7010    0.6990 h1        1 WHJ      0.061700
     37 H112        0.7460    2.1040   -1.0120 h1        1 WHJ      0.061700
     38 HC         -1.7530    1.9790    0.5420 hn        1 WHJ      0.377800
     39 H12        -1.4810    0.6640   -1.6340 h1        1 WHJ      0.013700
     40 H131       -1.8530    2.0940   -3.6190 hc        1 WHJ      0.039700
     41 H132       -1.6610    3.6030   -2.6300 hc        1 WHJ      0.039700
     42 H133       -0.2580    2.4790   -2.8550 hc        1 WHJ      0.039700
     43 H141       -3.6990    2.8110   -1.2850 hc        1 WHJ      0.057200
     44 H142       -3.7180    1.4010   -2.4210 hc        1 WHJ      0.057200
     45 H20        -4.1620    2.5160    1.0510 ha        1 WHJ      0.134000
     46 H16        -3.7260   -0.9300   -1.5230 ha        1 WHJ      0.134000
     47 H19        -5.0950    1.0520    2.8540 ha        1 WHJ      0.143000
     48 H17        -4.6450   -2.3940    0.2530 ha        1 WHJ      0.143000
     49 H211       -6.2610   -3.1070    1.6980 h1        1 WHJ      0.044700
     50 H212       -4.5610   -3.3260    2.3550 h1        1 WHJ      0.044700
     51 H213       -5.9870   -3.2270    3.5120 h1        1 WHJ      0.044700
@<TRIPOS>BOND
     1    1    2 2   
     2    2    3 1   
     3    2    9 1   
     4    3    4 1   
     5    3   28 1   
     6    4    5 ar  
     7    4   11 ar  
     8    5    6 1   
     9    5    7 ar  
    10    6   30 1   
    11    7    8 ar  
    12    7   31 1   
    13    8   12 ar  
    14    8   32 1   
    15    9   10 2   
    16    9   29 1   
    17   10   11 1   
    18   10   33 1   
    19   11   12 ar  
    20   12   13 1   
    21   13   14 1   
    22   13   15 1   
    23   13   34 1   
    24   14   35 1   
    25   15   16 1   
    26   15   36 1   
    27   15   37 1   
    28   16   17 1   
    29   16   38 1   
    30   17   18 1   
    31   17   19 1   
    32   17   39 1   
    33   18   40 1   
    34   18   41 1   
    35   18   42 1   
    36   19   20 1   
    37   19   43 1   
    38   19   44 1   
    39   20   21 ar  
    40   20   27 ar  
    41   21   22 ar  
    42   21   45 1   
    43   22   23 ar  
    44   22   47 1   
    45   23   24 1   
    46   23   26 ar  
    47   24   25 1   
    48   25   49 1   
    49   25   50 1   
    50   25   51 1   
    51   26   27 ar  
    52   26   48 1   
    53   27   46 1   
@<TRIPOS>SUBSTRUCTURE
     1 WHJ         1 TEMP              0 ****  ****    0 ROOT
