@<TRIPOS>MOLECULE
WHU
   40    42     1     0     0
SMALL
bcc


@<TRIPOS>ATOM
      1 N01         4.7130    3.5930    0.7750 nh        1 WHU     -0.883500
      2 C02         4.9770    2.2050    0.7190 cc        1 WHU      0.611400
      3 N03         6.1600    1.5680    1.0170 nd        1 WHU     -0.692000
      4 C04         5.8810    0.2050    0.9320 cd        1 WHU      0.465300
      5 CL          7.0330   -0.9740    1.2160 cl        1 WHU     -0.080000
      6 C06         4.5320   -0.0050    0.5560 cc        1 WHU     -0.285200
      7 N07         3.9670    1.2700    0.4050 na        1 WHU     -0.305900
      8 C08         3.8130   -1.2760    0.3500 c         1 WHU      0.714700
      9 O09         4.0460   -2.2820    1.0440 o         1 WHU     -0.577100
     10 N10         2.8770   -1.3090   -0.6710 n         1 WHU     -0.581900
     11 C11         2.0790   -2.4700   -0.9380 c3        1 WHU      0.138300
     12 C12         0.6300   -2.3290   -0.5540 ca        1 WHU     -0.123300
     13 C13         0.0430   -3.2410    0.3240 ca        1 WHU     -0.089000
     14 C14        -1.3080   -3.1580    0.6500 ca        1 WHU     -0.109000
     15 C15        -2.1150   -2.1510    0.1110 ca        1 WHU     -0.015900
     16 BR         -3.9270   -2.1040    0.5760 br        1 WHU     -0.043100
     17 C17        -1.5380   -1.2150   -0.7610 ca        1 WHU      0.067100
     18 O18        -2.2890   -0.2700   -1.4530 os        1 WHU     -0.228200
     19 C19        -2.7070    0.8430   -0.7270 ca        1 WHU      0.121100
     20 C20        -2.1500    1.2280    0.4960 ca        1 WHU     -0.162000
     21 C21        -2.6150    2.3990    1.1030 ca        1 WHU      0.040400
     22 CL2        -1.9520    2.8830    2.5890 cl        1 WHU     -0.071400
     23 C23        -3.6100    3.1750    0.5060 ca        1 WHU     -0.115000
     24 C24        -4.1520    2.7690   -0.7230 ca        1 WHU      0.022000
     25 C27        -3.7110    1.6000   -1.3510 ca        1 WHU     -0.106000
     26 C25        -5.1660    3.5560   -1.3360 cg        1 WHU      0.228800
     27 N26        -5.9950    4.2000   -1.8370 n1        1 WHU     -0.344800
     28 C28        -0.1640   -1.2980   -1.0950 ca        1 WHU      0.127900
     29 F29         0.3700   -0.3910   -1.9440 f         1 WHU     -0.127900
     30 H011        5.4780    4.0890    1.1930 hn        1 WHU      0.398300
     31 H012        4.4950    3.9600   -0.1310 hn        1 WHU      0.398300
     32 H07         3.0100    1.4660    0.2720 hn        1 WHU      0.313700
     33 H10         2.7140   -0.5100   -1.2340 hn        1 WHU      0.317500
     34 H111        2.1160   -2.6800   -2.0490 h1        1 WHU      0.080200
     35 H112        2.5260   -3.3540   -0.3940 h1        1 WHU      0.080200
     36 H13         0.6600   -4.0410    0.7670 ha        1 WHU      0.160000
     37 H14        -1.7420   -3.8990    1.3420 ha        1 WHU      0.161000
     38 H20        -1.3690    0.6170    0.9730 ha        1 WHU      0.162000
     39 H27        -4.1300    1.2700   -2.3140 ha        1 WHU      0.170000
     40 H23        -3.9700    4.0960    0.9910 ha        1 WHU      0.164000
@<TRIPOS>BOND
     1    1    2 1   
     2    1   30 1   
     3    1   31 1   
     4    2    3 2   
     5    2    7 1   
     6    3    4 1   
     7    4    5 1   
     8    4    6 2   
     9    6    7 1   
    10    6    8 1   
    11    7   32 1   
    12    8    9 2   
    13    8   10 1   
    14   10   11 1   
    15   10   33 1   
    16   11   12 1   
    17   11   34 1   
    18   11   35 1   
    19   12   13 ar  
    20   12   28 ar  
    21   13   14 ar  
    22   13   36 1   
    23   14   15 ar  
    24   14   37 1   
    25   15   16 1   
    26   15   17 ar  
    27   17   18 1   
    28   17   28 ar  
    29   18   19 1   
    30   19   20 ar  
    31   19   25 ar  
    32   20   21 ar  
    33   20   38 1   
    34   21   22 1   
    35   21   23 ar  
    36   23   24 ar  
    37   23   40 1   
    38   24   25 ar  
    39   24   26 1   
    40   25   39 1   
    41   26   27 3   
    42   28   29 1   
@<TRIPOS>SUBSTRUCTURE
     1 WHU         1 TEMP              0 ****  ****    0 ROOT
