@<TRIPOS>MOLECULE
WHU
   41    43     1     0     0
SMALL
bcc


@<TRIPOS>ATOM
      1 N01         0.4880    0.5280    1.0060 nv        1 WHU     -0.914500
      2 C02         1.7540    0.0950    0.7820 cc        1 WHU      0.771400
      3 N03         2.5190   -0.6370    1.7020 nd        1 WHU     -0.708000
      4 C04         3.7310   -0.8430    1.0900 cd        1 WHU      0.608300
      5 Cl          4.9790   -1.6790    1.8060 cl        1 WHU     -0.004000
      6 C06         3.7490   -0.2740   -0.2320 cc        1 WHU     -0.465200
      7 N07         2.4480    0.2820   -0.4680 na        1 WHU     -0.328900
      8 C08         4.8030   -0.3770   -1.1780 c         1 WHU      0.605700
      9 O09         5.9750   -0.7010   -1.0080 o         1 WHU     -0.456100
     10 N10         4.4110   -0.0740   -2.6260 ny        1 WHU     -0.676800
     11 C11         5.5640   -0.1690   -3.5720 c3        1 WHU      0.172100
     12 C12         5.1600    0.0460   -4.9920 ca        1 WHU     -0.184300
     13 C13         5.5050   -0.8970   -5.9620 ca        1 WHU     -0.080000
     14 C14         5.2370   -0.6620   -7.3080 ca        1 WHU     -0.093000
     15 C15         4.6140    0.5190   -7.7290 ca        1 WHU     -0.004900
     16 Br          4.3380    0.7800   -9.5560 br        1 WHU      0.009900
     17 C17         4.2360    1.4670   -6.7630 ca        1 WHU      0.105100
     18 O18         3.7320    2.7240   -7.0550 os        1 WHU     -0.226200
     19 C19         2.4880    2.7700   -7.6950 ca        1 WHU      0.096100
     20 C20         1.4900    1.8150   -7.4820 ca        1 WHU     -0.161000
     21 C21         0.2450    2.0070   -8.0900 ca        1 WHU      0.036400
     22 Cl2        -0.9790    0.8590   -7.8510 cl        1 WHU     -0.060400
     23 C23        -0.0010    3.1290   -8.8860 ca        1 WHU     -0.097000
     24 C24         1.0170    4.0740   -9.0790 ca        1 WHU      0.033000
     25 C27         2.2760    3.9040   -8.4910 ca        1 WHU     -0.092000
     26 C25         0.7710    5.2190   -9.8860 cg        1 WHU      0.210800
     27 N26         0.5680    6.1550  -10.5460 n1        1 WHU     -0.310800
     28 C28         4.5080    1.2310   -5.3930 ca        1 WHU      0.114900
     29 F29         4.1490    2.1540   -4.4670 f         1 WHU     -0.136900
     30 H011        0.0230    0.2500    1.8430 hn        1 WHU      0.477800
     31 H012       -0.0180    1.0170    0.3070 hn        1 WHU      0.477800
     32 H07         2.3930    1.1770   -0.9040 hn        1 WHU      0.278700
     33 H10         3.6820   -0.7380   -2.9040 hn        1 WHU      0.453800
     34 H111        6.0420   -1.1840   -3.4360 hx        1 WHU      0.125200
     35 H112        6.3210    0.6130   -3.2630 hx        1 WHU      0.125200
     36 H13         6.0120   -1.8310   -5.6670 ha        1 WHU      0.162000
     37 H14         5.5370   -1.4200   -8.0540 ha        1 WHU      0.180000
     38 H20         1.6840    0.9300   -6.8610 ha        1 WHU      0.147000
     39 H27         3.0840    4.6380   -8.6370 ha        1 WHU      0.177000
     40 H23        -0.9850    3.2720   -9.3620 ha        1 WHU      0.175000
     41 H102        4.0200    0.8730   -2.6830 hn        1 WHU      0.453800
@<TRIPOS>BOND
     1    1    2 1   
     2    1   30 1   
     3    1   31 1   
     4    2    3 2   
     5    2    7 1   
     6    3    4 1   
     7    4    5 1   
     8    4    6 2   
     9    6    7 1   
    10    6    8 1   
    11    7   32 1   
    12    8    9 2   
    13    8   10 1   
    14   10   11 1   
    15   10   33 1   
    16   10   41 1   
    17   11   12 1   
    18   11   34 1   
    19   11   35 1   
    20   12   13 ar  
    21   12   28 ar  
    22   13   14 ar  
    23   13   36 1   
    24   14   15 ar  
    25   14   37 1   
    26   15   16 1   
    27   15   17 ar  
    28   17   18 1   
    29   17   28 ar  
    30   18   19 1   
    31   19   20 ar  
    32   19   25 ar  
    33   20   21 ar  
    34   20   38 1   
    35   21   22 1   
    36   21   23 ar  
    37   23   24 ar  
    38   23   40 1   
    39   24   25 ar  
    40   24   26 1   
    41   25   39 1   
    42   26   27 3   
    43   28   29 1   
@<TRIPOS>SUBSTRUCTURE
     1 WHU         1 TEMP              0 ****  ****    0 ROOT
