@<TRIPOS>MOLECULE
WHU
   42    44     1     0     0
SMALL
bcc


@<TRIPOS>ATOM
      1 N01         1.7160    2.2850    0.2550 n4        1 WHU     -0.800300
      2 C02         2.3410    0.9650    0.1720 cc        1 WHU      0.504400
      3 N03         2.3570    0.0810    1.2240 nd        1 WHU     -0.567000
      4 C04         3.0380   -1.0390    0.7550 cd        1 WHU      0.523300
      5 CL          3.3070   -2.3810    1.6810 cl        1 WHU      0.073000
      6 C06         3.4330   -0.8220   -0.6110 cc        1 WHU     -0.289200
      7 N07         2.9790    0.4560   -0.9690 na        1 WHU     -0.275900
      8 C08         4.1700   -1.7660   -1.4360 c         1 WHU      0.581700
      9 O09         4.7610   -2.7590   -1.0380 o         1 WHU     -0.354100
     10 N10         4.1980   -1.5440   -2.9270 n4        1 WHU     -0.682800
     11 C11         5.3450   -0.6530   -3.3360 c3        1 WHU      0.184100
     12 C12         5.1220   -0.0410   -4.6730 ca        1 WHU     -0.199300
     13 C13         6.0050   -0.2780   -5.7260 ca        1 WHU     -0.069000
     14 C14         5.8530    0.3970   -6.9380 ca        1 WHU     -0.074000
     15 C15         4.8210    1.3210   -7.1390 ca        1 WHU     -0.006900
     16 BR          4.7570    2.2300   -8.7650 br        1 WHU      0.046900
     17 C17         3.8960    1.5440   -6.0980 ca        1 WHU      0.140100
     18 O18         2.8870    2.4850   -6.0920 os        1 WHU     -0.241200
     19 C19         2.0020    2.4930   -7.1830 ca        1 WHU      0.068100
     20 C20         1.4230    1.3180   -7.6680 ca        1 WHU     -0.151000
     21 C21         0.4480    1.4200   -8.6650 ca        1 WHU      0.033400
     22 CL2        -0.2640    0.0140   -9.2770 cl        1 WHU     -0.036400
     23 C23         0.0570    2.6710   -9.1570 ca        1 WHU     -0.079000
     24 C24         0.6510    3.8340   -8.6470 ca        1 WHU      0.039000
     25 C27         1.6400    3.7590   -7.6560 ca        1 WHU     -0.089000
     26 C25         0.2530    5.1070   -9.1390 cg        1 WHU      0.196800
     27 N26        -0.0730    6.1500   -9.5380 n1        1 WHU     -0.284800
     28 C28         4.0520    0.8580   -4.8710 ca        1 WHU      0.075900
     29 F29         3.1710    1.0790   -3.8560 f         1 WHU     -0.183900
     30 H011        2.4260    3.0230    0.1290 hn        1 WHU      0.502467
     31 H012        0.9780    2.3770   -0.4600 hn        1 WHU      0.502467
     32 H07         3.1280    0.9220   -1.8380 hn        1 WHU      0.352700
     33 H10         4.3180   -2.4610   -3.3890 hn        1 WHU      0.474800
     34 H111        5.4390    0.1580   -2.5550 hx        1 WHU      0.117700
     35 H112        6.2880   -1.2780   -3.3220 hx        1 WHU      0.117700
     36 H13         6.8440   -0.9850   -5.6040 ha        1 WHU      0.172000
     37 H14         6.5800    0.2020   -7.7500 ha        1 WHU      0.196000
     38 H20         1.7340    0.3370   -7.2820 ha        1 WHU      0.146000
     39 H27         2.1170    4.6660   -7.2560 ha        1 WHU      0.174000
     40 H23        -0.7140    2.7440   -9.9450 ha        1 WHU      0.185000
     41 H013        1.2860    2.3910    1.1960 hn        1 WHU      0.502467
     42 H102        3.3110   -1.1420   -3.2530 hn        1 WHU      0.474800
@<TRIPOS>BOND
     1    1    2 1   
     2    1   30 1   
     3    1   31 1   
     4    1   41 1   
     5    2    3 2   
     6    2    7 1   
     7    3    4 1   
     8    4    5 1   
     9    4    6 2   
    10    6    7 1   
    11    6    8 1   
    12    7   32 1   
    13    8    9 2   
    14    8   10 1   
    15   10   11 1   
    16   10   33 1   
    17   10   42 1   
    18   11   12 1   
    19   11   34 1   
    20   11   35 1   
    21   12   13 ar  
    22   12   28 ar  
    23   13   14 ar  
    24   13   36 1   
    25   14   15 ar  
    26   14   37 1   
    27   15   16 1   
    28   15   17 ar  
    29   17   18 1   
    30   17   28 ar  
    31   18   19 1   
    32   19   20 ar  
    33   19   25 ar  
    34   20   21 ar  
    35   20   38 1   
    36   21   22 1   
    37   21   23 ar  
    38   23   24 ar  
    39   23   40 1   
    40   24   25 ar  
    41   24   26 1   
    42   25   39 1   
    43   26   27 3   
    44   28   29 1   
@<TRIPOS>SUBSTRUCTURE
     1 WHU         1 TEMP              0 ****  ****    0 ROOT
