@<TRIPOS>MOLECULE
WHW
   48    48     1     0     0
SMALL
bcc


@<TRIPOS>ATOM
      1 C1         -0.0320   -0.3730   -0.0400 c         1 WHW      0.907600
      2 O1          0.8650   -1.2660   -0.0680 o         1 WHW     -0.852800
      3 C2         -0.7780   -0.1220    1.2820 c3        1 WHW     -0.194400
      4 O2         -0.3680    0.3180   -1.0450 o         1 WHW     -0.852800
      5 C3          0.1800   -0.0500    2.4460 c3        1 WHW     -0.065400
      6 O3          0.3160    1.4450   13.3040 o         1 WHW     -0.534100
      7 C4         -0.5440    0.0020    3.7750 c3        1 WHW     -0.078400
      8 C5          0.4290    0.0830    4.9310 c3        1 WHW     -0.079400
      9 C6         -0.2890    0.1210    6.2620 c3        1 WHW     -0.079400
     10 C7          0.6910    0.1950    7.4130 c3        1 WHW     -0.080400
     11 C8         -0.0270    0.2270    8.7460 c3        1 WHW     -0.072400
     12 C9          0.9410    0.2890    9.9110 c3        1 WHW     -0.053500
     13 C10         1.6020    1.6350   10.0500 c2        1 WHW     -0.090200
     14 C11         1.4470    2.1590   11.2810 ce        1 WHW     -0.272200
     15 C12         0.6340    1.2540   12.1310 c         1 WHW      0.567300
     16 C13         0.2320    0.0590   11.2700 c3        1 WHW     -0.170700
     17 C14         0.6160   -1.2770   11.8780 c3        1 WHW     -0.031200
     18 C15        -0.1890   -1.6080   13.0780 c2        1 WHW     -0.177200
     19 C16        -0.5060   -2.8500   13.4560 c2        1 WHW     -0.175200
     20 C17        -0.1200   -4.0780   12.7200 c3        1 WHW     -0.051200
     21 C18        -0.5000   -5.3360   13.4600 c3        1 WHW     -0.090100
     22 H2         -1.3680    0.8250    1.2020 hc        1 WHW      0.019200
     23 H2A        -1.5000   -0.9650    1.4330 hc        1 WHW      0.019200
     24 H3          0.8570   -0.9450    2.4090 hc        1 WHW      0.044200
     25 H3A         0.8290    0.8590    2.3380 hc        1 WHW      0.044200
     26 H4         -1.1850   -0.9120    3.8880 hc        1 WHW      0.026700
     27 H4A        -1.2300    0.8890    3.7970 hc        1 WHW      0.026700
     28 H5          1.0650    1.0010    4.8200 hc        1 WHW      0.037200
     29 H5A         1.1190   -0.8010    4.9000 hc        1 WHW      0.037200
     30 H6         -0.9760    1.0070    6.2940 hc        1 WHW      0.036200
     31 H6A        -0.9280   -0.7960    6.3700 hc        1 WHW      0.036200
     32 H7          1.3270    1.1130    7.3030 hc        1 WHW      0.038700
     33 H7A         1.3790   -0.6900    7.3760 hc        1 WHW      0.038700
     34 H8         -0.7200    1.1080    8.7810 hc        1 WHW      0.047200
     35 H8A        -0.6560   -0.6970    8.8490 hc        1 WHW      0.047200
     36 H9          1.7420   -0.4880    9.7620 hc        1 WHW      0.071700
     37 H10         2.1340    2.0770    9.2040 ha        1 WHW      0.151000
     38 H11         1.8290    3.1060   11.6630 ha        1 WHW      0.157000
     39 H13        -0.8830    0.0960   11.1320 hc        1 WHW      0.086700
     40 H14         0.4910   -2.0720   11.0920 hc        1 WHW      0.052200
     41 H14A        1.7040   -1.2630   12.1640 hc        1 WHW      0.052200
     42 H15        -0.5090   -0.7380   13.6790 ha        1 WHW      0.145000
     43 H16        -1.0970   -3.0100   14.3730 ha        1 WHW      0.120000
     44 H17         0.9900   -4.0730   12.5380 hc        1 WHW      0.046700
     45 H17A       -0.6140   -4.0750   11.7090 hc        1 WHW      0.046700
     46 H18        -0.1910   -6.2360   12.8750 hc        1 WHW      0.032033
     47 H18A       -1.6050   -5.3810   13.6200 hc        1 WHW      0.032033
     48 H18B       -0.0000   -5.3740   14.4580 hc        1 WHW      0.032033
@<TRIPOS>BOND
     1    1    2 1   
     2    1    3 1   
     3    1    4 1   
     4    3    5 1   
     5    3   22 1   
     6    3   23 1   
     7    5    7 1   
     8    5   24 1   
     9    5   25 1   
    10    6   15 2   
    11    7    8 1   
    12    7   26 1   
    13    7   27 1   
    14    8    9 1   
    15    8   28 1   
    16    8   29 1   
    17    9   10 1   
    18    9   30 1   
    19    9   31 1   
    20   10   11 1   
    21   10   32 1   
    22   10   33 1   
    23   11   12 1   
    24   11   34 1   
    25   11   35 1   
    26   12   13 1   
    27   12   16 1   
    28   12   36 1   
    29   13   14 2   
    30   13   37 1   
    31   14   15 1   
    32   14   38 1   
    33   15   16 1   
    34   16   17 1   
    35   16   39 1   
    36   17   18 1   
    37   17   40 1   
    38   17   41 1   
    39   18   19 2   
    40   18   42 1   
    41   19   20 1   
    42   19   43 1   
    43   20   21 1   
    44   20   44 1   
    45   20   45 1   
    46   21   46 1   
    47   21   47 1   
    48   21   48 1   
@<TRIPOS>SUBSTRUCTURE
     1 WHW         1 TEMP              0 ****  ****    0 ROOT
