@<TRIPOS>MOLECULE
WI2
   43    45     1     0     0
SMALL
bcc


@<TRIPOS>ATOM
      1 CAL         0.1600    0.3070   -0.2550 c3        1 WI2      0.173800
      2 CAJ         1.6850    0.4030   -0.2210 c3        1 WI2     -0.061400
      3 CAW         2.2500   -0.0030    1.1260 c3        1 WI2     -0.191700
      4 CAQ         3.7740    0.2900    1.1620 c         1 WI2      0.914600
      5 OAD         4.1590    1.4750    0.9510 o         1 WI2     -0.841300
      6 OAC         4.5460   -0.6790    1.4020 o         1 WI2     -0.841300
      7 CAK         1.5600    0.7620    2.2380 c3        1 WI2     -0.061400
      8 CAM         0.0380    0.6420    2.1500 c3        1 WI2      0.173800
      9 NAX        -0.4640    1.0490    0.8400 nh        1 WI2     -0.726300
     10 CAV        -1.8910    1.1160    0.7310 ca        1 WI2      0.456900
     11 NAO        -2.7070    0.2330    1.3400 nb        1 WI2     -0.635000
     12 CAR        -2.4530    2.2520   -0.0320 ca        1 WI2      0.554900
     13 NAB        -1.6280    3.0830   -0.7730 nh        1 WI2     -0.925500
     14 NAN        -3.8070    2.4490   -0.0670 nb        1 WI2     -0.726000
     15 CAH        -4.5770    1.5480    0.5650 ca        1 WI2      0.321900
     16 CAU        -4.0530    0.4330    1.2600 cp        1 WI2      0.280500
     17 CAT        -4.9650   -0.5150    1.9140 cp        1 WI2     -0.080500
     18 CAI        -6.2000   -0.8010    1.3230 ca        1 WI2     -0.153000
     19 CAG        -4.6150   -1.1300    3.1270 ca        1 WI2     -0.129000
     20 CAE        -5.4980   -2.0120    3.7430 ca        1 WI2     -0.106000
     21 CAF        -6.7380   -2.3000    3.1730 ca        1 WI2     -0.206000
     22 CAS        -7.0800   -1.6900    1.9620 ca        1 WI2      0.112100
     23 OAP        -8.2810   -1.8890    1.2980 os        1 WI2     -0.332900
     24 CAA        -9.1490   -2.8610    1.8620 c3        1 WI2      0.116700
     25 HAL1       -0.1370   -0.7820   -0.2200 h1        1 WI2      0.026200
     26 HAL2       -0.2190    0.7330   -1.2260 h1        1 WI2      0.026200
     27 HAJ1        2.0160    1.4510   -0.4470 hc        1 WI2      0.052450
     28 HAJ2        2.0910   -0.2670   -1.0210 hc        1 WI2      0.052450
     29 HAW         2.0970   -1.1040    1.2800 hc        1 WI2      0.037700
     30 HAK1        1.8820    0.3590    3.2320 hc        1 WI2      0.052450
     31 HAK2        1.8730    1.8380    2.1840 hc        1 WI2      0.052450
     32 HAM1       -0.2510   -0.4210    2.3920 h1        1 WI2      0.026200
     33 HAM2       -0.4370    1.3130    2.9190 h1        1 WI2      0.026200
     34 HAB1       -2.0080    3.9510   -1.0730 hn        1 WI2      0.427800
     35 HAB2       -0.6680    3.0990   -0.5070 hn        1 WI2      0.427800
     36 HAH        -5.6630    1.7400    0.5250 h4        1 WI2      0.023100
     37 HAI        -6.4900   -0.3520    0.3620 ha        1 WI2      0.149000
     38 HAG        -3.6380   -0.9200    3.5870 ha        1 WI2      0.156000
     39 HAE        -5.2150   -2.4920    4.6920 ha        1 WI2      0.129000
     40 HAF        -7.4220   -2.9970    3.6730 ha        1 WI2      0.129000
     41 HAA1       -9.4930   -2.5410    2.8760 h1        1 WI2      0.039033
     42 HAA2       -8.6490   -3.8580    1.9170 h1        1 WI2      0.039033
     43 HAA3      -10.0100   -2.8910    1.1470 h1        1 WI2      0.039033
@<TRIPOS>BOND
     1    1    2 1   
     2    1    9 1   
     3    1   25 1   
     4    1   26 1   
     5    2    3 1   
     6    2   27 1   
     7    2   28 1   
     8    3    4 1   
     9    3    7 1   
    10    3   29 1   
    11    4    5 1   
    12    4    6 1   
    13    7    8 1   
    14    7   30 1   
    15    7   31 1   
    16    8    9 1   
    17    8   32 1   
    18    8   33 1   
    19    9   10 1   
    20   10   11 ar  
    21   10   12 ar  
    22   11   16 ar  
    23   12   13 1   
    24   12   14 ar  
    25   13   34 1   
    26   13   35 1   
    27   14   15 ar  
    28   15   16 ar  
    29   15   36 1   
    30   16   17 1   
    31   17   18 ar  
    32   17   19 ar  
    33   18   22 ar  
    34   18   37 1   
    35   19   20 ar  
    36   19   38 1   
    37   20   21 ar  
    38   20   39 1   
    39   21   22 ar  
    40   21   40 1   
    41   22   23 1   
    42   23   24 1   
    43   24   41 1   
    44   24   42 1   
    45   24   43 1   
@<TRIPOS>SUBSTRUCTURE
     1 WI2         1 TEMP              0 ****  ****    0 ROOT
