@<TRIPOS>MOLECULE
WI2
   43    45     1     0     0
SMALL
bcc


@<TRIPOS>ATOM
      1 CAL        -2.5000    0.4240    1.2930 c3        1 WI2      0.173800
      2 CAJ        -4.0030    0.1480    1.2770 c3        1 WI2     -0.061400
      3 CAW        -4.3610   -0.9970    0.3520 c3        1 WI2     -0.191700
      4 CAQ        -5.9050   -1.1100    0.2350 c         1 WI2      0.914600
      5 OAD        -6.5470   -0.1010   -0.1720 o         1 WI2     -0.841300
      6 OAC        -6.4330   -2.2110    0.5560 o         1 WI2     -0.841300
      7 CAK        -3.7640   -0.7710   -1.0220 c3        1 WI2     -0.061400
      8 CAM        -2.2630   -0.4890   -0.9490 c3        1 WI2      0.173800
      9 NAX        -1.9620    0.6260   -0.0530 nh        1 WI2     -0.726300
     10 CAV        -0.5950    1.0530   -0.0530 ca        1 WI2      0.456900
     11 NAO         0.4350    0.1890   -0.1580 nb        1 WI2     -0.635000
     12 CAR        -0.3480    2.5100   -0.0020 ca        1 WI2      0.554900
     13 NAB        -1.3850    3.3960    0.2430 nh        1 WI2     -0.925500
     14 NAN         0.9270    2.9920   -0.1290 nb        1 WI2     -0.726000
     15 CAH         1.9180    2.0920   -0.2430 ca        1 WI2      0.321900
     16 CAU         1.6970    0.6940   -0.2470 cp        1 WI2      0.280500
     17 CAT         2.8380   -0.2250   -0.3620 cp        1 WI2     -0.080500
     18 CAI         4.0540    0.1110    0.2410 ca        1 WI2     -0.153000
     19 CAG         2.7230   -1.4300   -1.0730 ca        1 WI2     -0.129000
     20 CAE         3.8170   -2.2810   -1.1870 ca        1 WI2     -0.106000
     21 CAF         5.0420   -1.9560   -0.6020 ca        1 WI2     -0.206000
     22 CAS         5.1510   -0.7580    0.1110 ca        1 WI2      0.112100
     23 OAP         6.3100   -0.3210    0.7330 os        1 WI2     -0.332900
     24 CAA         7.4060   -1.2250    0.7110 c3        1 WI2      0.116700
     25 HAL1       -2.2960    1.3540    1.8920 h1        1 WI2      0.026200
     26 HAL2       -1.9770   -0.4350    1.8070 h1        1 WI2      0.026200
     27 HAJ1       -4.3200   -0.0950    2.3240 hc        1 WI2      0.052450
     28 HAJ2       -4.5650    1.0620    0.9500 hc        1 WI2      0.052450
     29 HAW        -3.9670   -1.9590    0.7770 hc        1 WI2      0.037700
     30 HAK1       -3.9140   -1.6810   -1.6560 hc        1 WI2      0.052450
     31 HAK2       -4.3000    0.0840   -1.5120 hc        1 WI2      0.052450
     32 HAM1       -1.7370   -1.4330   -0.6250 h1        1 WI2      0.026200
     33 HAM2       -1.8810   -0.2140   -1.9720 h1        1 WI2      0.026200
     34 HAB1       -2.3030    3.0610    0.0460 hn        1 WI2      0.427800
     35 HAB2       -1.2220    4.3550    0.0410 hn        1 WI2      0.427800
     36 HAH         2.9320    2.5130   -0.3520 h4        1 WI2      0.023100
     37 HAI         4.1670    1.0360    0.8240 ha        1 WI2      0.149000
     38 HAG         1.7620   -1.7050   -1.5350 ha        1 WI2      0.156000
     39 HAE         3.7180   -3.2250   -1.7440 ha        1 WI2      0.129000
     40 HAF         5.8950   -2.6390   -0.7030 ha        1 WI2      0.129000
     41 HAA1        7.7530   -1.3970   -0.3370 h1        1 WI2      0.039033
     42 HAA2        8.1940   -0.6960    1.3040 h1        1 WI2      0.039033
     43 HAA3        7.1330   -2.1940    1.1940 h1        1 WI2      0.039033
@<TRIPOS>BOND
     1    1    2 1   
     2    1    9 1   
     3    1   25 1   
     4    1   26 1   
     5    2    3 1   
     6    2   27 1   
     7    2   28 1   
     8    3    4 1   
     9    3    7 1   
    10    3   29 1   
    11    4    5 1   
    12    4    6 1   
    13    7    8 1   
    14    7   30 1   
    15    7   31 1   
    16    8    9 1   
    17    8   32 1   
    18    8   33 1   
    19    9   10 1   
    20   10   11 ar  
    21   10   12 ar  
    22   11   16 ar  
    23   12   13 1   
    24   12   14 ar  
    25   13   34 1   
    26   13   35 1   
    27   14   15 ar  
    28   15   16 ar  
    29   15   36 1   
    30   16   17 1   
    31   17   18 ar  
    32   17   19 ar  
    33   18   22 ar  
    34   18   37 1   
    35   19   20 ar  
    36   19   38 1   
    37   20   21 ar  
    38   20   39 1   
    39   21   22 ar  
    40   21   40 1   
    41   22   23 1   
    42   23   24 1   
    43   24   41 1   
    44   24   42 1   
    45   24   43 1   
@<TRIPOS>SUBSTRUCTURE
     1 WI2         1 TEMP              0 ****  ****    0 ROOT
