@<TRIPOS>MOLECULE
WI2
   43    45     1     0     0
SMALL
bcc


@<TRIPOS>ATOM
      1 CAL         0.1620    0.3110   -0.2560 c3        1 WI2      0.173800
      2 CAJ         1.6860    0.4080   -0.2200 c3        1 WI2     -0.061400
      3 CAW         2.2500   -0.0030    1.1250 c3        1 WI2     -0.191700
      4 CAQ         3.7740    0.2900    1.1630 c         1 WI2      0.914600
      5 OAD         4.1590    1.4760    0.9560 o         1 WI2     -0.841300
      6 OAC         4.5460   -0.6800    1.4010 o         1 WI2     -0.841300
      7 CAK         1.5600    0.7580    2.2400 c3        1 WI2     -0.061400
      8 CAM         0.0380    0.6380    2.1510 c3        1 WI2      0.173800
      9 NAX        -0.4640    1.0500    0.8420 nh        1 WI2     -0.726300
     10 CAV        -1.8900    1.1170    0.7330 ca        1 WI2      0.456900
     11 NAO        -2.7070    0.2310    1.3380 nb        1 WI2     -0.635000
     12 CAR        -2.4520    2.2550   -0.0270 ca        1 WI2      0.554900
     13 NAB        -1.6270    3.0900   -0.7640 nv        1 WI2     -0.925500
     14 NAN        -3.8060    2.4510   -0.0610 nb        1 WI2     -0.726000
     15 CAH        -4.5770    1.5480    0.5670 ca        1 WI2      0.321900
     16 CAU        -4.0520    0.4300    1.2580 cp        1 WI2      0.280500
     17 CAT        -4.9650   -0.5200    1.9080 cp        1 WI2     -0.080500
     18 CAI        -6.1990   -0.8040    1.3150 ca        1 WI2     -0.153000
     19 CAG        -4.6150   -1.1400    3.1190 ca        1 WI2     -0.129000
     20 CAE        -5.4980   -2.0250    3.7300 ca        1 WI2     -0.106000
     21 CAF        -6.7380   -2.3110    3.1580 ca        1 WI2     -0.206000
     22 CAS        -7.0800   -1.6960    1.9500 ca        1 WI2      0.112100
     23 OAP        -8.2800   -1.8930    1.2840 os        1 WI2     -0.332900
     24 CAA        -9.1480   -2.8680    1.8440 c3        1 WI2      0.116700
     25 HAL1       -0.2180    0.7410   -1.2250 h1        1 WI2      0.026200
     26 HAL2       -0.1350   -0.7780   -0.2240 h1        1 WI2      0.026200
     27 HAJ1        2.0930   -0.2600   -1.0220 hc        1 WI2      0.052450
     28 HAJ2        2.0170    1.4560   -0.4430 hc        1 WI2      0.052450
     29 HAW         2.0980   -1.1050    1.2750 hc        1 WI2      0.037700
     30 HAK1        1.8730    1.8340    2.1890 hc        1 WI2      0.052450
     31 HAK2        1.8810    0.3520    3.2330 hc        1 WI2      0.052450
     32 HAM1       -0.4370    1.3060    2.9220 h1        1 WI2      0.026200
     33 HAM2       -0.2510   -0.4260    2.3890 h1        1 WI2      0.026200
     34 HAB1       -0.6670    3.1040   -0.4970 hn        1 WI2      0.427800
     35 HAB2       -2.0080    3.9580   -1.0610 hn        1 WI2      0.427800
     36 HAH        -5.6630    1.7400    0.5270 h4        1 WI2      0.023100
     37 HAI        -6.4890   -0.3520    0.3560 ha        1 WI2      0.149000
     38 HAG        -3.6380   -0.9310    3.5800 ha        1 WI2      0.156000
     39 HAE        -5.2160   -2.5080    4.6780 ha        1 WI2      0.129000
     40 HAF        -7.4220   -3.0100    3.6560 ha        1 WI2      0.129000
     41 HAA1       -8.6470   -3.8650    1.8950 h1        1 WI2      0.039033
     42 HAA2       -9.4920   -2.5530    2.8590 h1        1 WI2      0.039033
     43 HAA3      -10.0080   -2.8950    1.1280 h1        1 WI2      0.039033
@<TRIPOS>BOND
     1    1    2 1   
     2    1    9 1   
     3    1   25 1   
     4    1   26 1   
     5    2    3 1   
     6    2   27 1   
     7    2   28 1   
     8    3    4 1   
     9    3    7 1   
    10    3   29 1   
    11    4    5 1   
    12    4    6 1   
    13    7    8 1   
    14    7   30 1   
    15    7   31 1   
    16    8    9 1   
    17    8   32 1   
    18    8   33 1   
    19    9   10 1   
    20   10   11 ar  
    21   10   12 ar  
    22   11   16 ar  
    23   12   13 1   
    24   12   14 ar  
    25   13   34 1   
    26   13   35 1   
    27   14   15 ar  
    28   15   16 ar  
    29   15   36 1   
    30   16   17 1   
    31   17   18 ar  
    32   17   19 ar  
    33   18   22 ar  
    34   18   37 1   
    35   19   20 ar  
    36   19   38 1   
    37   20   21 ar  
    38   20   39 1   
    39   21   22 ar  
    40   21   40 1   
    41   22   23 1   
    42   23   24 1   
    43   24   41 1   
    44   24   42 1   
    45   24   43 1   
@<TRIPOS>SUBSTRUCTURE
     1 WI2         1 TEMP              0 ****  ****    0 ROOT
