@<TRIPOS>MOLECULE
WI2
   43    39     1     0     0
SMALL
bcc


@<TRIPOS>ATOM
      1 CAL         2.0650    0.7030   -1.2310 c3        1 WI2     -0.063000
      2 CAJ         3.5990    0.6370   -1.1840 c3        1 WI2     -0.139500
      3 CAW         4.1450    0.5890    0.2250 c3        1 WI2     -0.181000
      4 CAQ         5.7420    0.5940    0.2300 c2        1 WI2      0.335000
      5 OAD         6.3500    1.5620   -0.1770 o         1 WI2     -0.576500
      6 OAC         6.3710   -0.4070    0.6640 o         1 WI2     -0.576500
      7 CAK         3.5440    1.7280    1.0230 c3        1 WI2     -0.139500
      8 CAM         2.0120    1.7730    0.9370 c3        1 WI2     -0.063000
      9 NAX         1.5230    1.7700   -0.4280 n3        1 WI2     -0.217000
     10 CAV         0.0400    1.6890   -0.4230 c2        1 WI2      0.001000
     11 NAO        -0.5660    0.5840    0.0290 n2        1 WI2     -0.108000
     12 CAR        -0.7240    2.7450   -0.9450 c1        1 WI2      0.099000
     13 NAB        -0.0950    3.8990   -1.4230 n2        1 WI2     -0.323000
     14 NAN        -2.0610    2.6450   -0.9890 n2        1 WI2     -0.200000
     15 CAH        -2.6670    1.5370   -0.5360 c1        1 WI2     -0.078000
     16 CAU        -1.9080    0.4880   -0.0170 c1        1 WI2     -0.090000
     17 CAT        -2.5470   -0.6420    0.4980 c1        1 WI2      0.027000
     18 CAI        -2.9780   -1.6520   -0.3650 c1        1 WI2     -0.153000
     19 CAG        -2.8040   -0.7360    1.8490 c1        1 WI2     -0.129000
     20 CAE        -3.4980   -1.8450    2.3550 c1        1 WI2     -0.155500
     21 CAF        -3.9280   -2.8520    1.4900 c1        1 WI2     -0.155500
     22 CAS        -3.6700   -2.7560    0.1400 c1        1 WI2      0.067000
     23 OAP        -4.2040   -3.7190   -0.7500 os        1 WI2     -0.216000
     24 CAA        -3.4580   -4.9360   -0.8040 c3        1 WI2     -0.073000
     25 HAL1        1.7180   -0.1140   -0.9240 h1        1 WI2      0.065500
     26 HAL2        1.7870    0.8310   -2.1540 h1        1 WI2      0.065500
     27 HAJ1        3.9480    1.3960   -1.6190 hc        1 WI2      0.091750
     28 HAJ2        3.8970   -0.1690   -1.6630 hc        1 WI2      0.091750
     29 HAW         3.9610   -0.2560    0.6470 hc        1 WI2      0.076000
     30 HAK1        3.9070    2.5870    0.6770 hc        1 WI2      0.091750
     31 HAK2        3.8040    1.6290    1.9550 hc        1 WI2      0.091750
     32 HAM1        1.6980    2.5750    1.3800 h1        1 WI2      0.065500
     33 HAM2        1.6360    0.9650    1.4170 h1        1 WI2      0.065500
     34 HAB1       -0.5860    4.5480   -1.8360 hn        1 WI2      0.223000
     35 HAB2        0.8200    3.9830   -1.3630 hn        1 WI2      0.223000
     36 HAH        -3.6460    1.4640   -0.5680 ha        1 WI2      0.160000
     37 HAI        -2.8520   -1.5620   -1.2850 ha        1 WI2      0.148000
     38 HAG        -2.4280   -0.0610    2.4730 ha        1 WI2      0.156000
     39 HAE        -3.6840   -1.9140    3.3280 ha        1 WI2      0.129000
     40 HAF        -4.3820   -3.6570    1.8530 ha        1 WI2      0.129000
     41 HAA1       -2.5310   -4.7370   -1.0040 h1        1 WI2      0.078667
     42 HAA2       -3.8360   -5.5300   -1.5160 h1        1 WI2      0.078667
     43 HAA3       -3.5120   -5.3790    0.0350 h1        1 WI2      0.078667
@<TRIPOS>BOND
     1    1    2 1   
     2    1    9 1   
     3    1   25 1   
     4    1   26 1   
     5    2    3 1   
     6    2   27 1   
     7    2   28 1   
     8    3    4 1   
     9    3    7 1   
    10    3   29 1   
    11    4    5 1   
    12    4    6 1   
    13    7    8 1   
    14    7   30 1   
    15    7   31 1   
    16    8    9 1   
    17    8   32 1   
    18    8   33 1   
    19    9   10 1   
    20   10   11 1   
    21   10   12 1   
    22   11   16 1   
    23   12   14 1   
    24   13   34 1   
    25   13   35 1   
    26   14   15 1   
    27   15   36 1   
    28   17   19 1   
    29   18   22 1   
    30   18   37 1   
    31   19   38 1   
    32   20   21 1   
    33   20   39 1   
    34   21   40 1   
    35   22   23 1   
    36   23   24 1   
    37   24   41 1   
    38   24   42 1   
    39   24   43 1   
@<TRIPOS>SUBSTRUCTURE
     1 WI2         1 TEMP              0 ****  ****    0 ROOT
