@<TRIPOS>MOLECULE
WI2
   44    46     1     0     0
SMALL
bcc


@<TRIPOS>ATOM
      1 CAL        -0.3090    0.0930   -0.0300 c3        1 WI2      0.167800
      2 CAJ         1.1720    0.0660   -0.4080 c3        1 WI2     -0.077900
      3 CAW         2.0400    0.0960    0.8420 c3        1 WI2     -0.163700
      4 CAQ         3.5020    0.1290    0.4790 c         1 WI2      0.626100
      5 OAD         4.3450   -0.7180    0.7730 o         1 WI2     -0.486000
      6 OAC         4.0050    1.1730   -0.2450 oh        1 WI2     -0.580100
      7 CAK         1.6750    1.2830    1.7210 c3        1 WI2     -0.077900
      8 CAM         0.1780    1.2920    2.0260 c3        1 WI2      0.167800
      9 NAX        -0.6340    1.2440    0.8100 nh        1 WI2     -0.720300
     10 CAV        -2.0400    1.3750    1.1010 ca        1 WI2      0.410900
     11 NAO        -2.7970    0.2960    1.4140 nb        1 WI2     -0.626000
     12 CAR        -2.6310    2.7130    1.0180 ca        1 WI2      0.557900
     13 NAB        -1.8370    3.8380    0.8340 nh        1 WI2     -0.919500
     14 NAN        -3.9820    2.8720    1.2110 nb        1 WI2     -0.702000
     15 CAH        -4.6970    1.7820    1.5060 ca        1 WI2      0.340900
     16 CAU        -4.1230    0.4830    1.6170 cp        1 WI2      0.301500
     17 CAT        -4.9830   -0.6610    1.9550 cp        1 WI2     -0.101500
     18 CAI        -6.2670   -0.7350    1.4090 ca        1 WI2     -0.149000
     19 CAG        -4.5310   -1.6650    2.8240 ca        1 WI2     -0.132000
     20 CAE        -5.3660   -2.7310    3.1490 ca        1 WI2     -0.100000
     21 CAF        -6.6530   -2.8190    2.6190 ca        1 WI2     -0.195000
     22 CAS        -7.0970   -1.8170    1.7480 ca        1 WI2      0.122100
     23 OAP        -8.3470   -1.7900    1.1570 os        1 WI2     -0.328900
     24 CAA        -9.2060   -2.8830    1.4580 c3        1 WI2      0.113700
     25 HAL1       -0.9260    0.1720   -0.9680 h1        1 WI2      0.054450
     26 HAL2       -0.5610   -0.8860    0.4710 h1        1 WI2      0.054450
     27 HAJ1        1.4170    0.9380   -1.0690 hc        1 WI2      0.055450
     28 HAJ2        1.3710   -0.8710   -0.9890 hc        1 WI2      0.055450
     29 HAW         1.8630   -0.8530    1.4260 hc        1 WI2      0.096700
     30 HAK1        2.2340    1.2250    2.6910 hc        1 WI2      0.055450
     31 HAK2        1.9670    2.2400    1.2140 hc        1 WI2      0.055450
     32 HAM1       -0.0770    2.2450    2.5690 h1        1 WI2      0.054450
     33 HAM2       -0.0530    0.4270    2.7130 h1        1 WI2      0.054450
     34 HAB1       -0.9810    3.6880    0.3500 hn        1 WI2      0.422300
     35 HAB2        3.3000    1.8030   -0.4480 ho        1 WI2      0.426000
     36 HAH        -5.7790    1.9400    1.6650 h4        1 WI2      0.040100
     37 HAI        -6.6380    0.0290    0.7110 ha        1 WI2      0.150000
     38 HAG        -3.5180   -1.6130    3.2480 ha        1 WI2      0.146000
     39 HAE        -5.0080   -3.5160    3.8320 ha        1 WI2      0.135000
     40 HAF        -7.2990   -3.6660    2.8870 ha        1 WI2      0.139000
     41 HAA1      -10.1320   -2.6550    0.8720 h1        1 WI2      0.045033
     42 HAA2       -8.7530   -3.8470    1.1200 h1        1 WI2      0.045033
     43 HAA3       -9.4310   -2.9180    2.5520 h1        1 WI2      0.045033
     44 HAB3       -2.3080    4.6860    0.6090 hn        1 WI2      0.422300
@<TRIPOS>BOND
     1    1    2 1   
     2    1    9 1   
     3    1   25 1   
     4    1   26 1   
     5    2    3 1   
     6    2   27 1   
     7    2   28 1   
     8    3    4 1   
     9    3    7 1   
    10    3   29 1   
    11    4    5 2   
    12    4    6 1   
    13    6   35 1   
    14    7    8 1   
    15    7   30 1   
    16    7   31 1   
    17    8    9 1   
    18    8   32 1   
    19    8   33 1   
    20    9   10 1   
    21   10   11 ar  
    22   10   12 ar  
    23   11   16 ar  
    24   12   13 1   
    25   12   14 ar  
    26   13   34 1   
    27   13   44 1   
    28   14   15 ar  
    29   15   16 ar  
    30   15   36 1   
    31   16   17 1   
    32   17   18 ar  
    33   17   19 ar  
    34   18   22 ar  
    35   18   37 1   
    36   19   20 ar  
    37   19   38 1   
    38   20   21 ar  
    39   20   39 1   
    40   21   22 ar  
    41   21   40 1   
    42   22   23 1   
    43   23   24 1   
    44   24   41 1   
    45   24   42 1   
    46   24   43 1   
@<TRIPOS>SUBSTRUCTURE
     1 WI2         1 TEMP              0 ****  ****    0 ROOT
