@<TRIPOS>MOLECULE
WI3
   18    18     1     0     0
SMALL
bcc


@<TRIPOS>ATOM
      1 N5         -0.0780    0.2020    0.0870 nv        1 WI3     -0.945500
      2 C2          1.2990    0.0710    0.0540 ca        1 WI3      0.914900
      3 N1          1.9850    0.0490    1.2700 nb        1 WI3     -0.800000
      4 C3          3.3430   -0.0100    1.1660 ca        1 WI3      0.714300
      5 C8          4.1420   -0.0270    2.4470 c3        1 WI3     -0.140400
      6 N4          1.9230    0.0090   -1.1910 nb        1 WI3     -0.820000
      7 C4          3.2850   -0.0470   -1.1480 ca        1 WI3      0.774300
      8 N3          4.0500   -0.0570   -0.0090 nb        1 WI3     -0.762000
      9 S1          4.1700   -0.1170   -2.6220 ss        1 WI3     -0.175400
     10 C6          2.9700   -0.0760   -3.8930 c3        1 WI3     -0.074000
     11 H51N       -0.5450    0.1000    0.9550 hn        1 WI3      0.443300
     12 H52N       -0.5910    0.0660   -0.7490 hn        1 WI3      0.443300
     13 H81C        4.7740   -0.9480    2.4790 hc        1 WI3      0.066033
     14 H82C        3.4750   -0.0120    3.3430 hc        1 WI3      0.066033
     15 H83C        4.8090    0.8700    2.4760 hc        1 WI3      0.066033
     16 H61C        2.3590    0.8550   -3.8800 h1        1 WI3      0.076700
     17 H62C        3.5610   -0.1120   -4.8400 h1        1 WI3      0.076700
     18 H63C        2.2780   -0.9460   -3.8620 h1        1 WI3      0.076700
@<TRIPOS>BOND
     1    1    2 1   
     2    1   11 1   
     3    1   12 1   
     4    2    3 ar  
     5    2    6 ar  
     6    3    4 ar  
     7    4    5 1   
     8    4    8 ar  
     9    5   13 1   
    10    5   14 1   
    11    5   15 1   
    12    6    7 ar  
    13    7    8 ar  
    14    7    9 1   
    15    9   10 1   
    16   10   16 1   
    17   10   17 1   
    18   10   18 1   
@<TRIPOS>SUBSTRUCTURE
     1 WI3         1 TEMP              0 ****  ****    0 ROOT
