@<TRIPOS>MOLECULE
WI3
   19    19     1     0     0
SMALL
bcc


@<TRIPOS>ATOM
      1 N5         -0.1310   -0.1480    0.1370 n4        1 WI3     -0.826300
      2 C2          1.3640   -0.0740    0.0760 ca        1 WI3      0.763900
      3 N1          2.0110   -0.0660    1.2710 nb        1 WI3     -0.745000
      4 C3          3.3990    0.0050    1.1580 ca        1 WI3      0.747300
      5 C8          4.1820    0.0180    2.4450 c3        1 WI3     -0.155400
      6 N4          1.9130   -0.0210   -1.1770 nb        1 WI3     -0.772000
      7 C4          3.2960    0.0470   -1.1750 ca        1 WI3      0.738300
      8 N3          4.0630    0.0620   -0.0220 nb        1 WI3     -0.681000
      9 S1          4.1520    0.1180   -2.6250 ss        1 WI3      0.030600
     10 C6          2.9710    0.0850   -3.8990 c3        1 WI3     -0.127000
     11 H51N       -0.4470   -0.9810   -0.3740 hn        1 WI3      0.481467
     12 H52N       -0.5260    0.6930   -0.3010 hn        1 WI3      0.481467
     13 H81C        3.8760    0.9030    3.0590 hc        1 WI3      0.093700
     14 H82C        5.2810    0.0750    2.2460 hc        1 WI3      0.093700
     15 H83C        3.9640   -0.9160    3.0230 hc        1 WI3      0.093700
     16 H61C        2.2750    0.9550   -3.8850 h1        1 WI3      0.099700
     17 H62C        3.5800    0.1340   -4.8390 h1        1 WI3      0.099700
     18 H63C        2.3650   -0.8490   -3.9210 h1        1 WI3      0.099700
     19 H53        -0.4400   -0.2060    1.1170 hn        1 WI3      0.481467
@<TRIPOS>BOND
     1    1    2 1   
     2    1   11 1   
     3    1   12 1   
     4    1   19 1   
     5    2    3 ar  
     6    2    6 ar  
     7    3    4 ar  
     8    4    5 1   
     9    4    8 ar  
    10    5   13 1   
    11    5   14 1   
    12    5   15 1   
    13    6    7 ar  
    14    7    8 ar  
    15    7    9 1   
    16    9   10 1   
    17   10   16 1   
    18   10   17 1   
    19   10   18 1   
@<TRIPOS>SUBSTRUCTURE
     1 WI3         1 TEMP              0 ****  ****    0 ROOT
