@<TRIPOS>MOLECULE
WI3
   18    12     1     0     0
SMALL
bcc


@<TRIPOS>ATOM
      1 N5         -3.0520    0.3910    0.3410 n2        1 WI3     -0.343000
      2 C2         -1.6330    0.3910    0.3410 c1        1 WI3      0.196000
      3 N1         -0.9630    0.3910    1.5020 n2        1 WI3     -0.274000
      4 C3          0.3780    0.3910    1.5020 c1        1 WI3      0.094000
      5 C8          1.0740    0.4240    2.7070 c1        1 WI3     -0.164000
      6 N4         -0.9620    0.3910   -0.8210 n1        1 WI3     -0.294000
      7 C4          0.3790    0.3910   -0.8210 c1        1 WI3     -0.079000
      8 N3          1.0490    0.3910    0.3410 n1        1 WI3     -0.236000
      9 S1          1.2650    0.4460   -2.3550 ss        1 WI3      0.334000
     10 C6          1.4210   -1.1960   -3.0060 c3        1 WI3     -0.374000
     11 H51N       -3.5080    0.3950    1.1300 hn        1 WI3      0.238500
     12 H52N       -3.5080    0.3910   -0.4490 hn        1 WI3      0.238500
     13 H81C        1.9630    0.0420    2.5800 ha        1 WI3      0.106000
     14 H82C        1.1570    1.3480    3.0100 DU        1 WI3      0.105000
     15 H83C        0.5890   -0.0960    3.3770 DU        1 WI3      0.105000
     16 H61C        1.8500   -1.1590   -3.8830 h1        1 WI3      0.116000
     17 H62C        0.5360   -1.5970   -3.0940 h1        1 WI3      0.116000
     18 H63C        1.9650   -1.7360   -2.4010 h1        1 WI3      0.116000
@<TRIPOS>BOND
     1    1   11 1   
     2    1   12 1   
     3    2    3 1   
     4    2    6 1   
     5    3    4 1   
     6    5   13 1   
     7    7    8 1   
     8    7    9 1   
     9    9   10 1   
    10   10   16 1   
    11   10   17 1   
    12   10   18 1   
@<TRIPOS>SUBSTRUCTURE
     1 WI3         1 TEMP              0 ****  ****    0 ROOT
