@<TRIPOS>MOLECULE
WI3
   18    18     1     0     0
SMALL
bcc


@<TRIPOS>ATOM
      1 N5          1.4610    2.7050    0.0120 nh        1 WI3     -0.945500
      2 C2          1.0930    1.3710   -0.0240 ca        1 WI3      0.914900
      3 N1          2.1080    0.4130   -0.0300 nb        1 WI3     -0.800000
      4 C3          1.6790   -0.8820    0.0060 ca        1 WI3      0.714300
      5 C8          2.7300   -1.9660    0.0120 c3        1 WI3     -0.140400
      6 N4         -0.2660    1.0640   -0.0120 nb        1 WI3     -0.820000
      7 C4         -0.5530   -0.2690    0.0250 ca        1 WI3      0.774300
      8 N3          0.3680   -1.2850    0.0380 nb        1 WI3     -0.762000
      9 S1         -2.1980   -0.7730    0.0530 ss        1 WI3     -0.175400
     10 C6         -3.1420    0.6980    0.0450 c3        1 WI3     -0.074000
     11 H51N        2.4100    2.9410   -0.1450 hn        1 WI3      0.443300
     12 H52N        0.7670    3.3960   -0.1380 hn        1 WI3      0.443300
     13 H81C        2.6470   -2.5520    0.9610 hc        1 WI3      0.066033
     14 H82C        2.5610   -2.6540   -0.8520 hc        1 WI3      0.066033
     15 H83C        3.7590   -1.5360   -0.0600 hc        1 WI3      0.066033
     16 H61C       -2.9440    1.3430    0.9300 h1        1 WI3      0.076700
     17 H62C       -2.9820    1.3080   -0.8720 h1        1 WI3      0.076700
     18 H63C       -4.2030    0.3520    0.0740 h1        1 WI3      0.076700
@<TRIPOS>BOND
     1    1    2 1   
     2    1   11 1   
     3    1   12 1   
     4    2    3 ar  
     5    2    6 ar  
     6    3    4 ar  
     7    4    5 1   
     8    4    8 ar  
     9    5   13 1   
    10    5   14 1   
    11    5   15 1   
    12    6    7 ar  
    13    7    8 ar  
    14    7    9 1   
    15    9   10 1   
    16   10   16 1   
    17   10   17 1   
    18   10   18 1   
@<TRIPOS>SUBSTRUCTURE
     1 WI3         1 TEMP              0 ****  ****    0 ROOT
