@<TRIPOS>MOLECULE
WI4
   29    31     1     0     0
SMALL
bcc


@<TRIPOS>ATOM
      1 Cl          0.0980    0.2300   -0.4540 cl        1 WI4     -0.092400
      2 CAJ         1.7710    0.0840   -0.1680 ca        1 WI4     -0.014600
      3 CAI         2.2410    0.2140    1.1400 ca        1 WI4     -0.112000
      4 CAA         3.6030    0.1040    1.4060 ca        1 WI4     -0.126000
      5 CAB         4.4950   -0.1460    0.3650 ca        1 WI4     -0.119000
      6 CAC         4.0400   -0.2910   -0.9420 ca        1 WI4     -0.096000
      7 CAK         2.6660   -0.1730   -1.2360 ca        1 WI4      0.136600
      8 NAL         2.1810   -0.3800   -2.5460 nu        1 WI4     -0.709300
      9 CAM         2.5870    0.4110   -3.6280 ca        1 WI4      0.918900
     10 NAN         1.8220    0.2970   -4.7860 nb        1 WI4     -0.808000
     11 NAD         3.7250    1.2070   -3.5210 nb        1 WI4     -0.780000
     12 CAE         4.0530    1.8630   -4.6580 ca        1 WI4      0.702900
     13 NAF         3.4140    1.8310   -5.8520 nb        1 WI4     -0.780000
     14 CAO         2.2830    1.0180   -5.8700 ca        1 WI4      0.806500
     15 NAP         1.5540    0.9270   -7.0700 na        1 WI4     -0.119900
     16 CAQ         1.8610    1.6020   -8.2720 cc        1 WI4     -0.117800
     17 CAR         0.9070    1.2530   -9.2210 cd        1 WI4     -0.189000
     18 CAH        -0.0200    0.3360   -8.5950 cd        1 WI4     -0.189000
     19 CAG         0.3940    0.1510   -7.2810 cc        1 WI4     -0.117800
     20 HAI         1.5320    0.4100    1.9600 ha        1 WI4      0.151000
     21 HAA         3.9700    0.2150    2.4370 ha        1 WI4      0.141000
     22 HAB         5.5730   -0.2350    0.5740 ha        1 WI4      0.141000
     23 HAC         4.7630   -0.4950   -1.7480 ha        1 WI4      0.159000
     24 HAE         4.9570    2.5100   -4.6060 h5        1 WI4      0.062100
     25 HAQ         2.7240    2.2660   -8.3480 h4        1 WI4      0.188000
     26 HAG        -0.0340   -0.4610   -6.4850 h4        1 WI4      0.188000
     27 HAR         0.8590    1.6010  -10.2480 ha        1 WI4      0.158000
     28 HAH        -0.8810   -0.1210   -9.0720 ha        1 WI4      0.158000
     29 H10         1.2580   -0.7650   -2.6080 hn        1 WI4      0.458800
@<TRIPOS>BOND
     1    1    2 1   
     2    2    3 ar  
     3    2    7 ar  
     4    3    4 ar  
     5    3   20 1   
     6    4    5 ar  
     7    4   21 1   
     8    5    6 ar  
     9    5   22 1   
    10    6    7 ar  
    11    6   23 1   
    12    7    8 1   
    13    8    9 1   
    14    8   29 1   
    15    9   10 ar  
    16    9   11 ar  
    17   10   14 ar  
    18   11   12 ar  
    19   12   13 ar  
    20   12   24 1   
    21   13   14 ar  
    22   14   15 1   
    23   15   16 1   
    24   15   19 1   
    25   16   17 2   
    26   16   25 1   
    27   17   18 1   
    28   17   27 1   
    29   18   19 2   
    30   18   28 1   
    31   19   26 1   
@<TRIPOS>SUBSTRUCTURE
     1 WI4         1 TEMP              0 ****  ****    0 ROOT
