@<TRIPOS>MOLECULE
WI4
   29    31     1     0     0
SMALL
bcc


@<TRIPOS>ATOM
      1 CL          2.7830   -2.1920    0.5610 cl        1 WI4     -0.092400
      2 CAJ         3.2430   -0.6190    0.0950 ca        1 WI4     -0.014600
      3 CAI         4.5650   -0.2200    0.2980 ca        1 WI4     -0.112000
      4 CAA         4.9710    1.0600   -0.0690 ca        1 WI4     -0.126000
      5 CAB         4.0570    1.9400   -0.6470 ca        1 WI4     -0.119000
      6 CAC         2.7390    1.5520   -0.8670 ca        1 WI4     -0.096000
      7 CAK         2.3030    0.2630   -0.4940 ca        1 WI4      0.136600
      8 NAL         0.9860   -0.1680   -0.7690 nh        1 WI4     -0.709300
      9 CAM        -0.1380    0.4780   -0.2410 ca        1 WI4      0.918900
     10 NAN        -1.3420   -0.2140   -0.3430 nb        1 WI4     -0.808000
     11 NAD        -0.0170    1.7590    0.2960 nb        1 WI4     -0.780000
     12 CAE        -1.1880    2.3020    0.7030 ca        1 WI4      0.702900
     13 NAF        -2.4250    1.7540    0.6480 nb        1 WI4     -0.780000
     14 CAO        -2.4540    0.4700    0.1060 ca        1 WI4      0.806500
     15 NAP        -3.7000   -0.1790    0.0130 na        1 WI4     -0.119900
     16 CAQ        -4.9380    0.3530    0.4340 cc        1 WI4     -0.117800
     17 CAR        -5.9250   -0.5910    0.1750 cd        1 WI4     -0.189000
     18 CAH        -5.2860   -1.7410   -0.4230 cd        1 WI4     -0.189000
     19 CAG        -3.9260   -1.4690   -0.5130 cc        1 WI4     -0.117800
     20 HAI         5.2840   -0.9190    0.7540 ha        1 WI4      0.151000
     21 HAA         6.0110    1.3740    0.1000 ha        1 WI4      0.141000
     22 HAB         4.3770    2.9520   -0.9390 ha        1 WI4      0.141000
     23 HAC         2.0360    2.2610   -1.3320 ha        1 WI4      0.159000
     24 HAE        -1.1270    3.3240    1.1380 h5        1 WI4      0.062100
     25 HAQ        -5.0090    1.3480    0.8780 h4        1 WI4      0.188000
     26 HAG        -3.1080   -2.0770   -0.9030 h4        1 WI4      0.188000
     27 HAR        -6.9870   -0.4890    0.3820 ha        1 WI4      0.158000
     28 HAH        -5.7860   -2.6510   -0.7430 ha        1 WI4      0.158000
     29 H10         0.8830   -1.1490   -0.9480 hn        1 WI4      0.458800
@<TRIPOS>BOND
     1    1    2 1   
     2    2    3 ar  
     3    2    7 ar  
     4    3    4 ar  
     5    3   20 1   
     6    4    5 ar  
     7    4   21 1   
     8    5    6 ar  
     9    5   22 1   
    10    6    7 ar  
    11    6   23 1   
    12    7    8 1   
    13    8    9 1   
    14    8   29 1   
    15    9   10 ar  
    16    9   11 ar  
    17   10   14 ar  
    18   11   12 ar  
    19   12   13 ar  
    20   12   24 1   
    21   13   14 ar  
    22   14   15 1   
    23   15   16 1   
    24   15   19 1   
    25   16   17 2   
    26   16   25 1   
    27   17   18 1   
    28   17   27 1   
    29   18   19 2   
    30   18   28 1   
    31   19   26 1   
@<TRIPOS>SUBSTRUCTURE
     1 WI4         1 TEMP              0 ****  ****    0 ROOT
