@<TRIPOS>MOLECULE
WI4
   29    31     1     0     0
SMALL
bcc


@<TRIPOS>ATOM
      1 CL          0.0950    0.2450   -0.4540 cl        1 WI4     -0.092400
      2 CAJ         1.7670    0.0940   -0.1670 ca        1 WI4     -0.014600
      3 CAI         2.2370    0.2250    1.1410 ca        1 WI4     -0.112000
      4 CAA         3.5990    0.1110    1.4070 ca        1 WI4     -0.126000
      5 CAB         4.4910   -0.1450    0.3680 ca        1 WI4     -0.119000
      6 CAC         4.0360   -0.2900   -0.9390 ca        1 WI4     -0.096000
      7 CAK         2.6620   -0.1680   -1.2340 ca        1 WI4      0.136600
      8 NAL         2.1770   -0.3770   -2.5450 nh        1 WI4     -0.709300
      9 CAM         2.5860    0.4100   -3.6280 ca        1 WI4      0.918900
     10 NAN         1.8220    0.2960   -4.7860 nb        1 WI4     -0.808000
     11 NAD         3.7270    1.2030   -3.5210 nb        1 WI4     -0.780000
     12 CAE         4.0580    1.8560   -4.6600 ca        1 WI4      0.702900
     13 NAF         3.4200    1.8240   -5.8540 nb        1 WI4     -0.780000
     14 CAO         2.2860    1.0130   -5.8710 ca        1 WI4      0.806500
     15 NAP         1.5570    0.9230   -7.0720 na        1 WI4     -0.119900
     16 CAQ         1.8670    1.5930   -8.2750 cc        1 WI4     -0.117800
     17 CAR         0.9130    1.2450   -9.2230 cd        1 WI4     -0.189000
     18 CAH        -0.0180    0.3340   -8.5960 cd        1 WI4     -0.189000
     19 CAG         0.3940    0.1500   -7.2810 cc        1 WI4     -0.117800
     20 HAI         1.5280    0.4250    1.9590 ha        1 WI4      0.151000
     21 HAA         3.9660    0.2230    2.4380 ha        1 WI4      0.141000
     22 HAB         5.5680   -0.2370    0.5780 ha        1 WI4      0.141000
     23 HAC         4.7590   -0.4980   -1.7440 ha        1 WI4      0.159000
     24 HAE         4.9630    2.5000   -4.6090 h5        1 WI4      0.062100
     25 HAQ         2.7320    2.2540   -8.3510 h4        1 WI4      0.188000
     26 HAG        -0.0360   -0.4590   -6.4840 h4        1 WI4      0.188000
     27 HAR         0.8670    1.5910  -10.2520 ha        1 WI4      0.158000
     28 HAH        -0.8800   -0.1210   -9.0730 ha        1 WI4      0.158000
     29 H10         1.2530   -0.7590   -2.6060 hn        1 WI4      0.458800
@<TRIPOS>BOND
     1    1    2 1   
     2    2    3 ar  
     3    2    7 ar  
     4    3    4 ar  
     5    3   20 1   
     6    4    5 ar  
     7    4   21 1   
     8    5    6 ar  
     9    5   22 1   
    10    6    7 ar  
    11    6   23 1   
    12    7    8 1   
    13    8    9 1   
    14    8   29 1   
    15    9   10 ar  
    16    9   11 ar  
    17   10   14 ar  
    18   11   12 ar  
    19   12   13 ar  
    20   12   24 1   
    21   13   14 ar  
    22   14   15 1   
    23   15   16 1   
    24   15   19 1   
    25   16   17 2   
    26   16   25 1   
    27   17   18 1   
    28   17   27 1   
    29   18   19 2   
    30   18   28 1   
    31   19   26 1   
@<TRIPOS>SUBSTRUCTURE
     1 WI4         1 TEMP              0 ****  ****    0 ROOT
