@<TRIPOS>MOLECULE
WI4
   30    32     1     0     0
SMALL
bcc


@<TRIPOS>ATOM
      1 CL          1.8910    2.0990    0.5510 cl        1 WI4     -0.024400
      2 CAJ         2.6670    0.7480   -0.1070 ca        1 WI4      0.038400
      3 CAI         3.8160    0.2390    0.5060 ca        1 WI4     -0.102000
      4 CAA         4.4580   -0.8790   -0.0260 ca        1 WI4     -0.059000
      5 CAB         3.9600   -1.5000   -1.1730 ca        1 WI4     -0.108000
      6 CAC         2.8180   -1.0100   -1.8010 ca        1 WI4     -0.080000
      7 CAK         2.1660    0.1150   -1.2660 ca        1 WI4     -0.062400
      8 NAL         0.9510    0.6190   -1.9130 n4        1 WI4     -0.616100
      9 CAM         1.2830    1.4110   -3.1480 ca        1 WI4      0.785900
     10 NAN         1.4220    0.6880   -4.2970 nb        1 WI4     -0.770000
     11 NAD         1.4130    2.7620   -2.9880 nb        1 WI4     -0.732000
     12 CAE         1.7290    3.4110   -4.1570 ca        1 WI4      0.726900
     13 NAF         1.9040    2.8550   -5.3670 nb        1 WI4     -0.708000
     14 CAO         1.7380    1.4620   -5.4240 ca        1 WI4      0.831500
     15 NAP         1.8910    0.8190   -6.6380 na        1 WI4     -0.122900
     16 CAQ         2.2240    1.4470   -7.8750 cc        1 WI4     -0.121800
     17 CAR         2.2790    0.4700   -8.8510 cd        1 WI4     -0.142000
     18 CAH         1.9730   -0.8080   -8.2230 cd        1 WI4     -0.142000
     19 CAG         1.7410   -0.5770   -6.8810 cc        1 WI4     -0.121800
     20 HAI         4.2120    0.7270    1.4140 ha        1 WI4      0.185000
     21 HAA         5.3650   -1.2730    0.4650 ha        1 WI4      0.176000
     22 HAB         4.4710   -2.3850   -1.5900 ha        1 WI4      0.175000
     23 HAC         2.4410   -1.5060   -2.7120 ha        1 WI4      0.169000
     24 HAE         1.8500    4.5190   -4.0820 h5        1 WI4      0.103100
     25 HAQ         2.3880    2.5260   -7.9360 h4        1 WI4      0.195000
     26 HAG         1.4800   -1.2680   -6.0780 h4        1 WI4      0.195000
     27 HAR         2.5070    0.6150   -9.9050 ha        1 WI4      0.182500
     28 HAH         1.9380   -1.7670   -8.7370 ha        1 WI4      0.182500
     29 H10         0.3540   -0.1790   -2.1750 hn        1 WI4      0.484300
     30 HAL2        0.4390    1.2330   -1.2530 hn        1 WI4      0.484300
@<TRIPOS>BOND
     1    1    2 1   
     2    2    3 ar  
     3    2    7 ar  
     4    3    4 ar  
     5    3   20 1   
     6    4    5 ar  
     7    4   21 1   
     8    5    6 ar  
     9    5   22 1   
    10    6    7 ar  
    11    6   23 1   
    12    7    8 1   
    13    8    9 1   
    14    8   29 1   
    15    8   30 1   
    16    9   10 ar  
    17    9   11 ar  
    18   10   14 ar  
    19   11   12 ar  
    20   12   13 ar  
    21   12   24 1   
    22   13   14 ar  
    23   14   15 1   
    24   15   16 1   
    25   15   19 1   
    26   16   17 2   
    27   16   25 1   
    28   17   18 1   
    29   17   27 1   
    30   18   19 2   
    31   18   28 1   
    32   19   26 1   
@<TRIPOS>SUBSTRUCTURE
     1 WI4         1 TEMP              0 ****  ****    0 ROOT
