@<TRIPOS>MOLECULE
WIA
   25    25     1     0     0
SMALL
bcc


@<TRIPOS>ATOM
      1 C1          0.0490   -0.0330    0.0530 c3        1 WIA      0.306900
      2 CM         -1.6050    0.1450   -1.6450 c3        1 WIA      0.121700
      3 O1         -0.2240    0.2110   -1.3080 os        1 WIA     -0.418600
      4 C2          1.5810   -0.0220    0.2110 c3        1 WIA      0.086100
      5 O2          2.1540   -1.1830   -0.3600 oh        1 WIA     -0.605800
      6 C3          1.9260   -0.0420    1.7060 c3        1 WIA      0.112100
      7 O3          3.3190    0.1260    1.9060 oh        1 WIA     -0.606800
      8 C4          1.2390    1.1390    2.4150 c3        1 WIA      0.124100
      9 O4          1.7650    2.3810    1.9880 oh        1 WIA     -0.591800
     10 C5         -0.2730    1.1230    2.1090 c3        1 WIA      0.089100
     11 O5         -0.5490    1.0810    0.7070 os        1 WIA     -0.426600
     12 C6         -0.9200    2.3790    2.6230 c         1 WIA      0.224200
     13 S1         -1.7430    2.4860    3.8970 s         1 WIA     -0.226400
     14 H1         -0.4080   -0.9970    0.4120 h2        1 WIA      0.050700
     15 HMC1       -1.6220    0.3380   -2.7460 h1        1 WIA      0.043700
     16 HMC2       -2.1790    0.9300   -1.0950 h1        1 WIA      0.043700
     17 HMC3       -2.0130   -0.8690   -1.4120 h1        1 WIA      0.043700
     18 H2          2.0020    0.9050   -0.2690 h1        1 WIA      0.086700
     19 HA          1.9290   -1.1650   -1.3010 ho        1 WIA      0.427000
     20 H3          1.5950   -1.0160    2.1630 h1        1 WIA      0.060700
     21 HB          3.7600   -0.5230    1.3410 ho        1 WIA      0.432000
     22 H4          1.3930    1.0340    3.5260 h1        1 WIA      0.064700
     23 HC          2.7290    2.3070    2.0320 ho        1 WIA      0.428000
     24 H5         -0.7150    0.2040    2.5940 h1        1 WIA      0.066700
     25 H6         -0.6980    3.2250    1.9390 h4        1 WIA      0.064200
@<TRIPOS>BOND
     1    1    3 1   
     2    1    4 1   
     3    1   11 1   
     4    1   14 1   
     5    2    3 1   
     6    2   15 1   
     7    2   16 1   
     8    2   17 1   
     9    4    5 1   
    10    4    6 1   
    11    4   18 1   
    12    5   19 1   
    13    6    7 1   
    14    6    8 1   
    15    6   20 1   
    16    7   21 1   
    17    8    9 1   
    18    8   10 1   
    19    8   22 1   
    20    9   23 1   
    21   10   11 1   
    22   10   12 1   
    23   10   24 1   
    24   12   13 2   
    25   12   25 1   
@<TRIPOS>SUBSTRUCTURE
     1 WIA         1 TEMP              0 ****  ****    0 ROOT
