@<TRIPOS>MOLECULE
WIA
   25    25     1     0     0
SMALL
bcc


@<TRIPOS>ATOM
      1 C1          1.1260    0.3000   -0.6940 c3        1 WIA      0.299900
      2 CM          3.3140   -0.3000    0.0150 c3        1 WIA      0.119700
      3 O1          2.1790   -0.6340   -0.7750 os        1 WIA     -0.419600
      4 C2          0.0640   -0.1360   -1.7230 c3        1 WIA      0.078100
      5 O2          0.4610    0.2470   -3.0260 oh        1 WIA     -0.599800
      6 C3         -1.2660    0.5840   -1.4400 c3        1 WIA      0.116100
      7 O3         -2.3010    0.0520   -2.2410 oh        1 WIA     -0.575800
      8 C4         -1.6760    0.4000    0.0330 c3        1 WIA      0.126100
      9 O4         -2.0080   -0.9320    0.3490 oh        1 WIA     -0.567800
     10 C5         -0.5130    0.9110    0.9130 c3        1 WIA      0.042100
     11 O5          0.6650    0.1390    0.6440 os        1 WIA     -0.440600
     12 C6         -0.8240    0.7210    2.3690 c         1 WIA      0.213200
     13 S1         -1.2260    1.8210    3.3340 s         1 WIA     -0.206400
     14 H1          1.4750    1.3550   -0.8700 h2        1 WIA      0.057700
     15 HMC1        4.0340   -1.1330   -0.1840 h1        1 WIA      0.044367
     16 HMC2        3.7400    0.6800   -0.3140 h1        1 WIA      0.044367
     17 HMC3        3.0400   -0.2620    1.0970 h1        1 WIA      0.044367
     18 H2         -0.0780   -1.2520   -1.6730 h1        1 WIA      0.075700
     19 HA          1.2700   -0.2430   -3.2240 ho        1 WIA      0.424000
     20 H3         -1.1430    1.6830   -1.6580 h1        1 WIA      0.055700
     21 HB         -2.0000    0.1230   -3.1580 ho        1 WIA      0.420000
     22 H4         -2.6180    0.9820    0.2360 h1        1 WIA      0.107700
     23 HC         -1.2220   -1.4720    0.1890 ho        1 WIA      0.410000
     24 H5         -0.3130    1.9950    0.6770 h1        1 WIA      0.073700
     25 H6         -0.7310   -0.3520    2.6410 h4        1 WIA      0.054200
@<TRIPOS>BOND
     1    1    3 1   
     2    1    4 1   
     3    1   11 1   
     4    1   14 1   
     5    2    3 1   
     6    2   15 1   
     7    2   16 1   
     8    2   17 1   
     9    4    5 1   
    10    4    6 1   
    11    4   18 1   
    12    5   19 1   
    13    6    7 1   
    14    6    8 1   
    15    6   20 1   
    16    7   21 1   
    17    8    9 1   
    18    8   10 1   
    19    8   22 1   
    20    9   23 1   
    21   10   11 1   
    22   10   12 1   
    23   10   24 1   
    24   12   13 2   
    25   12   25 1   
@<TRIPOS>SUBSTRUCTURE
     1 WIA         1 TEMP              0 ****  ****    0 ROOT
