@<TRIPOS>MOLECULE
WIA
   25    25     1     0     0
SMALL
bcc


@<TRIPOS>ATOM
      1 C1          0.0500   -0.0750    0.0900 c3        1 WIA      0.306900
      2 CM         -1.6050    0.0030   -1.6150 c3        1 WIA      0.121700
      3 O1         -0.2240    0.0930   -1.2820 os        1 WIA     -0.418600
      4 C2          1.5820   -0.0480    0.2470 c3        1 WIA      0.086100
      5 O2          2.1600   -1.2350   -0.2610 oh        1 WIA     -0.605800
      6 C3          1.9270    0.0150    1.7410 c3        1 WIA      0.112100
      7 O3          3.3180    0.2000    1.9310 oh        1 WIA     -0.606800
      8 C4          1.2340    1.2290    2.3850 c3        1 WIA      0.124100
      9 O4          1.7540    2.4490    1.8910 oh        1 WIA     -0.591800
     10 C5         -0.2780    1.1890    2.0800 c3        1 WIA      0.089100
     11 O5         -0.5530    1.0690    0.6820 os        1 WIA     -0.426600
     12 C6         -0.9320    2.4680    2.5250 c         1 WIA      0.224200
     13 S1         -1.7540    2.6400    3.7920 s         1 WIA     -0.226400
     14 H1         -0.4030   -1.0200    0.5000 h2        1 WIA      0.050700
     15 HMC1       -1.6220    0.1350   -2.7260 h1        1 WIA      0.043700
     16 HMC2       -2.0080   -1.0000   -1.3280 h1        1 WIA      0.043700
     17 HMC3       -2.1830    0.8130   -1.1090 h1        1 WIA      0.043700
     18 H2          1.9990    0.8540   -0.2830 h1        1 WIA      0.086700
     19 HA          1.9360   -1.2700   -1.2010 ho        1 WIA      0.427000
     20 H3          1.6000   -0.9340    2.2490 h1        1 WIA      0.060700
     21 HB          3.7630   -0.4760    1.4020 ho        1 WIA      0.432000
     22 H4          1.3880    1.1850    3.5000 h1        1 WIA      0.064700
     23 HC          2.7190    2.3820    1.9390 ho        1 WIA      0.428000
     24 H5         -0.7150    0.2960    2.6140 h1        1 WIA      0.066700
     25 H6         -0.7140    3.2770    1.7960 h4        1 WIA      0.064200
@<TRIPOS>BOND
     1    1    3 1   
     2    1    4 1   
     3    1   11 1   
     4    1   14 1   
     5    2    3 1   
     6    2   15 1   
     7    2   16 1   
     8    2   17 1   
     9    4    5 1   
    10    4    6 1   
    11    4   18 1   
    12    5   19 1   
    13    6    7 1   
    14    6    8 1   
    15    6   20 1   
    16    7   21 1   
    17    8    9 1   
    18    8   10 1   
    19    8   22 1   
    20    9   23 1   
    21   10   11 1   
    22   10   12 1   
    23   10   24 1   
    24   12   13 2   
    25   12   25 1   
@<TRIPOS>SUBSTRUCTURE
     1 WIA         1 TEMP              0 ****  ****    0 ROOT
