@<TRIPOS>MOLECULE
WJ1
   20    20     1     0     0
SMALL
bcc


@<TRIPOS>ATOM
      1 O2         -0.0010    0.4350    0.0040 o         1 WJ1     -0.820800
      2 C9          1.2400    0.2240   -0.0610 c         1 WJ1      0.919600
      3 O1          1.9180    0.1730   -1.1210 o         1 WJ1     -0.820800
      4 C8          1.9850    0.0750    1.2970 c3        1 WJ1     -0.042300
      5 Cl1         2.2290   -1.6470    1.6830 cl        1 WJ1     -0.262400
      6 C7          3.3100    0.8060    1.2460 c3        1 WJ1     -0.046100
      7 C6          3.9590    0.9750    2.5730 ca        1 WJ1     -0.046300
      8 C1          5.1780    0.3460    2.8600 ca        1 WJ1     -0.129000
      9 C5          3.3680    1.7860    3.5520 ca        1 WJ1     -0.129000
     10 C4          3.9840    1.9650    4.7880 ca        1 WJ1     -0.138000
     11 C3          5.2000    1.3380    5.0640 ca        1 WJ1     -0.155000
     12 C2          5.7930    0.5270    4.0970 ca        1 WJ1     -0.138000
     13 H2          1.3390    0.4550    2.1250 h1        1 WJ1      0.054700
     14 H3          3.9910    0.2730    0.5290 hc        1 WJ1      0.070700
     15 H4          3.1090    1.8230    0.8050 hc        1 WJ1      0.070700
     16 H5          5.6430   -0.3020    2.1020 ha        1 WJ1      0.136000
     17 H6          2.4060    2.2750    3.3360 ha        1 WJ1      0.136000
     18 H7          3.5100    2.6010    5.5500 ha        1 WJ1      0.114500
     19 H8          5.6850    1.4800    6.0390 ha        1 WJ1      0.112000
     20 H9          6.7470    0.0260    4.3120 ha        1 WJ1      0.114500
@<TRIPOS>BOND
     1    1    2 1   
     2    2    3 1   
     3    2    4 1   
     4    4    5 1   
     5    4    6 1   
     6    4   13 1   
     7    6    7 1   
     8    6   14 1   
     9    6   15 1   
    10    7    8 ar  
    11    7    9 ar  
    12    8   12 ar  
    13    8   16 1   
    14    9   10 ar  
    15    9   17 1   
    16   10   11 ar  
    17   10   18 1   
    18   11   12 ar  
    19   11   19 1   
    20   12   20 1   
@<TRIPOS>SUBSTRUCTURE
     1 WJ1         1 TEMP              0 ****  ****    0 ROOT
