@<TRIPOS>MOLECULE
WJ1
   20    20     1     0     0
SMALL
bcc


@<TRIPOS>ATOM
      1 O2          0.0050    0.4100    0.0010 o         1 WJ1     -0.820800
      2 C9          1.2450    0.1980   -0.0600 c         1 WJ1      0.919600
      3 O1          1.9260    0.1370   -1.1180 o         1 WJ1     -0.820800
      4 C8          1.9880    0.0620    1.3000 c3        1 WJ1     -0.042300
      5 CL1         2.2320   -1.6560    1.7030 cl        1 WJ1     -0.262400
      6 C7          3.3120    0.7940    1.2450 c3        1 WJ1     -0.046100
      7 C6          3.9590    0.9760    2.5720 ca        1 WJ1     -0.046300
      8 C1          5.1780    0.3520    2.8660 ca        1 WJ1     -0.129000
      9 C5          3.3650    1.7930    3.5440 ca        1 WJ1     -0.129000
     10 C4          3.9780    1.9850    4.7790 ca        1 WJ1     -0.138000
     11 C3          5.1950    1.3630    5.0620 ca        1 WJ1     -0.155000
     12 C2          5.7910    0.5450    4.1030 ca        1 WJ1     -0.138000
     13 H2          1.3400    0.4500    2.1230 h1        1 WJ1      0.054700
     14 H3          3.9950    0.2550    0.5340 hc        1 WJ1      0.070700
     15 H4          3.1110    1.8070    0.7950 hc        1 WJ1      0.070700
     16 H5          5.6460   -0.3020    2.1150 ha        1 WJ1      0.136000
     17 H6          2.4020    2.2780    3.3210 ha        1 WJ1      0.136000
     18 H7          3.5020    2.6260    5.5340 ha        1 WJ1      0.114500
     19 H8          5.6780    1.5140    6.0360 ha        1 WJ1      0.112000
     20 H9          6.7460    0.0480    4.3230 ha        1 WJ1      0.114500
@<TRIPOS>BOND
     1    1    2 1   
     2    2    3 1   
     3    2    4 1   
     4    4    5 1   
     5    4    6 1   
     6    4   13 1   
     7    6    7 1   
     8    6   14 1   
     9    6   15 1   
    10    7    8 ar  
    11    7    9 ar  
    12    8   12 ar  
    13    8   16 1   
    14    9   10 ar  
    15    9   17 1   
    16   10   11 ar  
    17   10   18 1   
    18   11   12 ar  
    19   11   19 1   
    20   12   20 1   
@<TRIPOS>SUBSTRUCTURE
     1 WJ1         1 TEMP              0 ****  ****    0 ROOT
