@<TRIPOS>MOLECULE
WJ1
   20    20     1     0     0
SMALL
bcc


@<TRIPOS>ATOM
      1 O2          3.3160    1.4000   -0.7160 o         1 WJ1     -0.820800
      2 C9          2.6680    0.6970    0.1040 c         1 WJ1      0.919600
      3 O1          3.0620    0.3640    1.2540 o         1 WJ1     -0.820800
      4 C8          1.2400    0.2630   -0.3370 c3        1 WJ1     -0.042300
      5 CL1         1.2660   -1.4040   -0.9640 cl        1 WJ1     -0.262400
      6 C7          0.2770    0.3860    0.8240 c3        1 WJ1     -0.046100
      7 C6         -1.1550    0.2810    0.4370 ca        1 WJ1     -0.046300
      8 C1         -1.9410   -0.7900    0.8810 ca        1 WJ1     -0.129000
      9 C5         -1.7460    1.2680   -0.3650 ca        1 WJ1     -0.129000
     10 C4         -3.0920    1.1860   -0.7110 ca        1 WJ1     -0.138000
     11 C3         -3.8680    0.1180   -0.2610 ca        1 WJ1     -0.155000
     12 C2         -3.2890   -0.8700    0.5340 ca        1 WJ1     -0.138000
     13 H2          0.9120    0.8810   -1.2080 h1        1 WJ1      0.054700
     14 H3          0.5420   -0.3840    1.5980 hc        1 WJ1      0.070700
     15 H4          0.4550    1.3930    1.2970 hc        1 WJ1      0.070700
     16 H5         -1.4840   -1.5760    1.5000 ha        1 WJ1      0.136000
     17 H6         -1.1300    2.1070   -0.7250 ha        1 WJ1      0.136000
     18 H7         -3.5430    1.9640   -1.3430 ha        1 WJ1      0.114500
     19 H8         -4.9300    0.0540   -0.5350 ha        1 WJ1      0.112000
     20 H9         -3.8950   -1.7170    0.8850 ha        1 WJ1      0.114500
@<TRIPOS>BOND
     1    1    2 1   
     2    2    3 1   
     3    2    4 1   
     4    4    5 1   
     5    4    6 1   
     6    4   13 1   
     7    6    7 1   
     8    6   14 1   
     9    6   15 1   
    10    7    8 ar  
    11    7    9 ar  
    12    8   12 ar  
    13    8   16 1   
    14    9   10 ar  
    15    9   17 1   
    16   10   11 ar  
    17   10   18 1   
    18   11   12 ar  
    19   11   19 1   
    20   12   20 1   
@<TRIPOS>SUBSTRUCTURE
     1 WJ1         1 TEMP              0 ****  ****    0 ROOT
