@<TRIPOS>MOLECULE
WJ2
   20    20     1     0     0
SMALL
bcc


@<TRIPOS>ATOM
      1 Cl1         0.1910    0.5160    0.1460 cl        1 WJ2     -0.262400
      2 C02         1.9120    0.0750    0.0260 c3        1 WJ2     -0.042300
      3 C03         2.5520    0.0030    1.4430 c         1 WJ2      0.919600
      4 O04         3.2080    1.0140    1.8100 o         1 WJ2     -0.820800
      5 O05         2.4160   -1.0610    2.1030 o         1 WJ2     -0.820800
      6 C06         2.0790   -1.2490   -0.6880 c3        1 WJ2     -0.046100
      7 C07         1.7710   -1.1960   -2.1420 ca        1 WJ2     -0.046300
      8 C08         0.6870   -1.9080   -2.6700 ca        1 WJ2     -0.129000
      9 C09         0.4170   -1.8740   -4.0370 ca        1 WJ2     -0.138000
     10 C10         1.2260   -1.1280   -4.8930 ca        1 WJ2     -0.155000
     11 C11         2.3060   -0.4130   -4.3750 ca        1 WJ2     -0.138000
     12 C12         2.5770   -0.4460   -3.0090 ca        1 WJ2     -0.129000
     13 H1          2.3730    0.9130   -0.5520 h1        1 WJ2      0.054700
     14 H3          1.4490   -2.0220   -0.1700 hc        1 WJ2      0.070700
     15 H4          3.1520   -1.5650   -0.5530 hc        1 WJ2      0.070700
     16 H5          0.0410   -2.4900   -1.9960 ha        1 WJ2      0.136000
     17 H6         -0.4390   -2.4340   -4.4400 ha        1 WJ2      0.114500
     18 H7          1.0120   -1.1000   -5.9710 ha        1 WJ2      0.112000
     19 H8          2.9430    0.1810   -5.0450 ha        1 WJ2      0.114500
     20 H9          3.4250    0.1230   -2.5980 ha        1 WJ2      0.136000
@<TRIPOS>BOND
     1    1    2 1   
     2    2    3 1   
     3    2    6 1   
     4    2   13 1   
     5    3    4 1   
     6    3    5 1   
     7    6    7 1   
     8    6   14 1   
     9    6   15 1   
    10    7    8 ar  
    11    7   12 ar  
    12    8    9 ar  
    13    8   16 1   
    14    9   10 ar  
    15    9   17 1   
    16   10   11 ar  
    17   10   18 1   
    18   11   12 ar  
    19   11   19 1   
    20   12   20 1   
@<TRIPOS>SUBSTRUCTURE
     1 WJ2         1 TEMP              0 ****  ****    0 ROOT
