@<TRIPOS>MOLECULE
WJ2
   20    20     1     0     0
SMALL
bcc


@<TRIPOS>ATOM
      1 CL1         0.1790    0.5150    0.1370 cl        1 WJ2     -0.262400
      2 C02         1.9010    0.0740    0.0270 c3        1 WJ2     -0.042300
      3 C03         2.5330    0.0020    1.4480 c         1 WJ2      0.919600
      4 O04         3.1880    1.0120    1.8190 o         1 WJ2     -0.820800
      5 O05         2.3930   -1.0620    2.1070 o         1 WJ2     -0.820800
      6 C06         2.0730   -1.2500   -0.6860 c3        1 WJ2     -0.046100
      7 C07         1.7720   -1.1960   -2.1420 ca        1 WJ2     -0.046300
      8 C08         0.6930   -1.9100   -2.6770 ca        1 WJ2     -0.129000
      9 C09         0.4300   -1.8750   -4.0460 ca        1 WJ2     -0.138000
     10 C10         1.2430   -1.1270   -4.8960 ca        1 WJ2     -0.155000
     11 C11         2.3180   -0.4100   -4.3720 ca        1 WJ2     -0.138000
     12 C12         2.5820   -0.4440   -3.0050 ca        1 WJ2     -0.129000
     13 H1          2.3650    0.9120   -0.5480 h1        1 WJ2      0.054700
     14 H3          1.4400   -2.0230   -0.1720 hc        1 WJ2      0.070700
     15 H4          3.1450   -1.5650   -0.5450 hc        1 WJ2      0.070700
     16 H5          0.0440   -2.4930   -2.0060 ha        1 WJ2      0.136000
     17 H6         -0.4220   -2.4360   -4.4540 ha        1 WJ2      0.114500
     18 H7          1.0350   -1.0990   -5.9750 ha        1 WJ2      0.112000
     19 H8          2.9580    0.1860   -5.0380 ha        1 WJ2      0.114500
     20 H9          3.4260    0.1270   -2.5880 ha        1 WJ2      0.136000
@<TRIPOS>BOND
     1    1    2 1   
     2    2    3 1   
     3    2    6 1   
     4    2   13 1   
     5    3    4 1   
     6    3    5 1   
     7    6    7 1   
     8    6   14 1   
     9    6   15 1   
    10    7    8 ar  
    11    7   12 ar  
    12    8    9 ar  
    13    8   16 1   
    14    9   10 ar  
    15    9   17 1   
    16   10   11 ar  
    17   10   18 1   
    18   11   12 ar  
    19   11   19 1   
    20   12   20 1   
@<TRIPOS>SUBSTRUCTURE
     1 WJ2         1 TEMP              0 ****  ****    0 ROOT
