@<TRIPOS>MOLECULE
WJ2
   20    20     1     0     0
SMALL
bcc


@<TRIPOS>ATOM
      1 CL1         1.2660   -1.3970    0.9770 cl        1 WJ2     -0.262400
      2 C02         1.2400    0.2670    0.3400 c3        1 WJ2     -0.042300
      3 C03         2.6680    0.6990   -0.1030 c         1 WJ2      0.919600
      4 O04         3.3150    1.4070    0.7140 o         1 WJ2     -0.820800
      5 O05         3.0630    0.3590   -1.2500 o         1 WJ2     -0.820800
      6 C06         0.2780    0.3820   -0.8230 c3        1 WJ2     -0.046100
      7 C07        -1.1550    0.2790   -0.4370 ca        1 WJ2     -0.046300
      8 C08        -1.9390   -0.7950   -0.8750 ca        1 WJ2     -0.129000
      9 C09        -3.2870   -0.8740   -0.5290 ca        1 WJ2     -0.138000
     10 C10        -3.8680    0.1180    0.2600 ca        1 WJ2     -0.155000
     11 C11        -3.0930    1.1900    0.7040 ca        1 WJ2     -0.138000
     12 C12        -1.7460    1.2700    0.3590 ca        1 WJ2     -0.129000
     13 H1          0.9110    0.8900    1.2070 h1        1 WJ2      0.054700
     14 H3          0.4560    1.3860   -1.3020 hc        1 WJ2      0.070700
     15 H4          0.5440   -0.3930   -1.5920 hc        1 WJ2      0.070700
     16 H5         -1.4810   -1.5850   -1.4890 ha        1 WJ2      0.136000
     17 H6         -3.8920   -1.7230   -0.8760 ha        1 WJ2      0.114500
     18 H7         -4.9300    0.0550    0.5330 ha        1 WJ2      0.112000
     19 H8         -3.5450    1.9720    1.3300 ha        1 WJ2      0.114500
     20 H9         -1.1320    2.1110    0.7140 ha        1 WJ2      0.136000
@<TRIPOS>BOND
     1    1    2 1   
     2    2    3 1   
     3    2    6 1   
     4    2   13 1   
     5    3    4 1   
     6    3    5 1   
     7    6    7 1   
     8    6   14 1   
     9    6   15 1   
    10    7    8 ar  
    11    7   12 ar  
    12    8    9 ar  
    13    8   16 1   
    14    9   10 ar  
    15    9   17 1   
    16   10   11 ar  
    17   10   18 1   
    18   11   12 ar  
    19   11   19 1   
    20   12   20 1   
@<TRIPOS>SUBSTRUCTURE
     1 WJ2         1 TEMP              0 ****  ****    0 ROOT
