@<TRIPOS>MOLECULE
WL3
   26    27     1     0     0
SMALL
bcc


@<TRIPOS>ATOM
      1 C01         0.0870   -0.0760   -0.0260 ca        1 WL3     -0.127600
      2 C02        -0.4650   -2.6580   -3.8270 ca        1 WL3     -0.183000
      3 C03        -0.3590   -1.4770   -3.0970 ca        1 WL3     -0.076000
      4 C04        -1.8300   -2.3860   -1.4010 ca        1 WL3     -0.076000
      5 C05        -1.9480   -3.5720   -2.1190 ca        1 WL3     -0.183000
      6 C06        -1.2620   -3.7090   -3.3380 ca        1 WL3      0.106900
      7 C07         0.6510   -0.6380    2.2630 ca        1 WL3     -0.156000
      8 C08         1.9350   -0.1230    2.0680 ca        1 WL3     -0.150000
      9 C09         2.2870    0.4110    0.8340 ca        1 WL3     -0.108000
     10 C10         1.3710    0.4440   -0.2270 ca        1 WL3     -0.093600
     11 C11        -0.2690   -0.6140    1.2200 ca        1 WL3     -0.133000
     12 C12         1.8140    1.0420   -1.5550 c         1 WL3      0.909200
     13 F13        -1.3720   -4.8620   -4.0460 f         1 WL3     -0.162900
     14 O14         0.9740    1.0750   -2.5010 o         1 WL3     -0.823300
     15 O15         2.9980    1.4680   -1.6460 o         1 WL3     -0.823300
     16 C16        -0.9420   -0.0720   -1.0980 c         1 WL3      0.640300
     17 C17        -1.0400   -1.3370   -1.8830 ca        1 WL3     -0.139600
     18 O18        -1.7400    0.8520   -1.2660 o         1 WL3     -0.521100
     19 H11        -1.2810   -1.0150    1.3710 ha        1 WL3      0.111000
     20 H02         0.0700   -2.7750   -4.7790 ha        1 WL3      0.135500
     21 H03         0.2710   -0.6370   -3.4590 ha        1 WL3      0.172000
     22 H04        -2.3640   -2.2750   -0.4450 ha        1 WL3      0.172000
     23 H05        -2.5660   -4.3990   -1.7440 ha        1 WL3      0.135500
     24 H07         0.3670   -1.0590    3.2360 ha        1 WL3      0.108000
     25 H08         2.6620   -0.1410    2.8910 ha        1 WL3      0.109000
     26 H09         3.2930    0.8260    0.6540 ha        1 WL3      0.158000
@<TRIPOS>BOND
     1    1   10 ar  
     2    1   11 ar  
     3    1   16 1   
     4    2    3 ar  
     5    2    6 ar  
     6    2   20 1   
     7    3   17 ar  
     8    3   21 1   
     9    4    5 ar  
    10    4   17 ar  
    11    4   22 1   
    12    5    6 ar  
    13    5   23 1   
    14    6   13 1   
    15    7    8 ar  
    16    7   11 ar  
    17    7   24 1   
    18    8    9 ar  
    19    8   25 1   
    20    9   10 ar  
    21    9   26 1   
    22   10   12 1   
    23   11   19 1   
    24   12   14 1   
    25   12   15 1   
    26   16   17 1   
    27   16   18 2   
@<TRIPOS>SUBSTRUCTURE
     1 WL3         1 TEMP              0 ****  ****    0 ROOT
