@<TRIPOS>MOLECULE
WLH
   38    40     1     0     0
SMALL
bcc


@<TRIPOS>ATOM
      1 CAC        -0.4990   -0.3870    0.9290 c3        1 WLH      0.175300
      2 CAB         0.8370   -0.3170    0.1650 c3        1 WLH      0.135800
      3 NAR         1.9170    0.2470    0.9650 n3        1 WLH     -0.731600
      4 CAA         3.1540    0.3520    0.2240 c3        1 WLH      0.157100
      5 CAF         1.5470    1.5020    1.6040 c3        1 WLH      0.135800
      6 CAE         0.2180    1.4010    2.3800 c3        1 WLH      0.175300
      7 NAD        -0.8910    0.8290    1.6270 nh        1 WLH     -0.685600
      8 CAG        -1.6290    1.8020    0.8450 cc        1 WLH      0.645800
      9 NAH        -1.5370    1.8590   -0.4920 nd        1 WLH     -0.675300
     10 CAI        -2.3520    2.7540   -1.1710 cd        1 WLH      0.193400
     11 CAQ        -2.2110    2.7800   -2.6680 c3        1 WLH     -0.032200
     12 CAP        -3.3870    3.4580   -3.3410 c3        1 WLH     -0.080400
     13 CAO        -3.7220    4.7730   -2.6720 c3        1 WLH     -0.078400
     14 CAN        -4.1210    4.5580   -1.2260 c3        1 WLH     -0.017200
     15 CAJ        -3.2240    3.6060   -0.5300 cc        1 WLH     -0.246400
     16 CAK        -3.3120    3.5730    0.9320 c         1 WLH      0.697700
     17 OAL        -4.0420    4.2920    1.6400 o         1 WLH     -0.635500
     18 NAM        -2.4780    2.6400    1.5840 n         1 WLH     -0.474400
     19 HAC1       -1.3030   -0.6990    0.2090 h1        1 WLH      0.068700
     20 HAC2       -0.4200   -1.1730    1.7350 h1        1 WLH      0.068700
     21 HAB1        0.6840    0.2560   -0.7950 h1        1 WLH      0.045700
     22 HAB2        1.1330   -1.3690   -0.1050 h1        1 WLH      0.045700
     23 HAA1        3.9620    0.7030    0.9180 h1        1 WLH      0.034367
     24 HAA2        3.0940    1.0640   -0.6450 h1        1 WLH      0.034367
     25 HAA3        3.4260   -0.6630   -0.1660 h1        1 WLH      0.034367
     26 HAF1        2.3580    1.7650    2.3390 h1        1 WLH      0.045700
     27 HAF2        1.4690    2.3470    0.8580 h1        1 WLH      0.045700
     28 HAE1        0.3620    0.7250    3.2710 h1        1 WLH      0.068700
     29 HAE2       -0.0450    2.4280    2.7550 h1        1 WLH      0.068700
     30 HAM        -2.5360    2.5580    2.5760 hn        1 WLH      0.340500
     31 HAQ1       -1.2620    3.3310   -2.9140 hc        1 WLH      0.065200
     32 HAQ2       -2.1040    1.7360   -3.0670 hc        1 WLH      0.065200
     33 HAP1       -3.1380    3.6320   -4.4200 hc        1 WLH      0.046200
     34 HAP2       -4.2820    2.7820   -3.3060 hc        1 WLH      0.046200
     35 HAO1       -2.8340    5.4560   -2.7230 hc        1 WLH      0.044700
     36 HAO2       -4.5640    5.2730   -3.2180 hc        1 WLH      0.044700
     37 HAN1       -4.1200    5.5390   -0.6780 hc        1 WLH      0.061700
     38 HAN2       -5.1720    4.1600   -1.1770 hc        1 WLH      0.061700
@<TRIPOS>BOND
     1    1    2 1   
     2    1    7 1   
     3    1   19 1   
     4    1   20 1   
     5    2    3 1   
     6    2   21 1   
     7    2   22 1   
     8    3    4 1   
     9    3    5 1   
    10    4   23 1   
    11    4   24 1   
    12    4   25 1   
    13    5    6 1   
    14    5   26 1   
    15    5   27 1   
    16    6    7 1   
    17    6   28 1   
    18    6   29 1   
    19    7    8 1   
    20    8    9 2   
    21    8   18 1   
    22    9   10 1   
    23   10   11 1   
    24   10   15 2   
    25   11   12 1   
    26   11   31 1   
    27   11   32 1   
    28   12   13 1   
    29   12   33 1   
    30   12   34 1   
    31   13   14 1   
    32   13   35 1   
    33   13   36 1   
    34   14   15 1   
    35   14   37 1   
    36   14   38 1   
    37   15   16 1   
    38   16   17 2   
    39   16   18 1   
    40   18   30 1   
@<TRIPOS>SUBSTRUCTURE
     1 WLH         1 TEMP              0 ****  ****    0 ROOT
