@<TRIPOS>MOLECULE
WLH
   38    40     1     0     0
SMALL
bcc


@<TRIPOS>ATOM
      1 CAC        -0.5080   -0.3870    0.9380 c3        1 WLH      0.175300
      2 CAB         0.8270   -0.3250    0.1710 c3        1 WLH      0.135800
      3 NAR         1.9100    0.2390    0.9670 n3        1 WLH     -0.731600
      4 CAA         3.1450    0.3370    0.2230 c3        1 WLH      0.157100
      5 CAF         1.5450    1.4970    1.6020 c3        1 WLH      0.135800
      6 CAE         0.2170    1.4040    2.3810 c3        1 WLH      0.175300
      7 NAD        -0.8950    0.8330    1.6320 nh        1 WLH     -0.685600
      8 CAG        -1.6310    1.8060    0.8480 cc        1 WLH      0.645800
      9 NAH        -1.5400    1.8570   -0.4900 nd        1 WLH     -0.675300
     10 CAI        -2.3530    2.7530   -1.1710 cd        1 WLH      0.193400
     11 CAQ        -2.2140    2.7750   -2.6680 c3        1 WLH     -0.032200
     12 CAP        -3.3880    3.4540   -3.3410 c3        1 WLH     -0.080400
     13 CAO        -3.7190    4.7720   -2.6760 c3        1 WLH     -0.078400
     14 CAN        -4.1170    4.5630   -1.2290 c3        1 WLH     -0.017200
     15 CAJ        -3.2220    3.6100   -0.5310 cc        1 WLH     -0.246400
     16 CAK        -3.3080    3.5810    0.9310 c         1 WLH      0.697700
     17 OAL        -4.0360    4.3040    1.6370 o         1 WLH     -0.635500
     18 NAM        -2.4760    2.6490    1.5850 ns        1 WLH     -0.474400
     19 HAC1       -0.4310   -1.1700    1.7470 h1        1 WLH      0.068700
     20 HAC2       -1.3150   -0.6990    0.2200 h1        1 WLH      0.068700
     21 HAB1        0.6730    0.2450   -0.7910 h1        1 WLH      0.045700
     22 HAB2        1.1180   -1.3790   -0.0950 h1        1 WLH      0.045700
     23 HAA1        3.4130   -0.6810   -0.1630 h1        1 WLH      0.034367
     24 HAA2        3.0870    1.0460   -0.6480 h1        1 WLH      0.034367
     25 HAA3        3.9560    0.6870    0.9140 h1        1 WLH      0.034367
     26 HAF1        2.3580    1.7600    2.3340 h1        1 WLH      0.045700
     27 HAF2        1.4680    2.3400    0.8530 h1        1 WLH      0.045700
     28 HAE1        0.3610    0.7310    3.2750 h1        1 WLH      0.068700
     29 HAE2       -0.0410    2.4320    2.7530 h1        1 WLH      0.068700
     30 HAM        -2.5340    2.5690    2.5780 hn        1 WLH      0.340500
     31 HAQ1       -1.2640    3.3220   -2.9160 hc        1 WLH      0.065200
     32 HAQ2       -2.1110    1.7290   -3.0630 hc        1 WLH      0.065200
     33 HAP1       -4.2850    2.7820   -3.3040 hc        1 WLH      0.046200
     34 HAP2       -3.1390    3.6250   -4.4210 hc        1 WLH      0.046200
     35 HAO1       -4.5590    5.2740   -3.2230 hc        1 WLH      0.044700
     36 HAO2       -2.8290    5.4520   -2.7290 hc        1 WLH      0.044700
     37 HAN1       -4.1130    5.5460   -0.6830 hc        1 WLH      0.061700
     38 HAN2       -5.1690    4.1680   -1.1770 hc        1 WLH      0.061700
@<TRIPOS>BOND
     1    1    2 1   
     2    1    7 1   
     3    1   19 1   
     4    1   20 1   
     5    2    3 1   
     6    2   21 1   
     7    2   22 1   
     8    3    4 1   
     9    3    5 1   
    10    4   23 1   
    11    4   24 1   
    12    4   25 1   
    13    5    6 1   
    14    5   26 1   
    15    5   27 1   
    16    6    7 1   
    17    6   28 1   
    18    6   29 1   
    19    7    8 1   
    20    8    9 2   
    21    8   18 1   
    22    9   10 1   
    23   10   11 1   
    24   10   15 2   
    25   11   12 1   
    26   11   31 1   
    27   11   32 1   
    28   12   13 1   
    29   12   33 1   
    30   12   34 1   
    31   13   14 1   
    32   13   35 1   
    33   13   36 1   
    34   14   15 1   
    35   14   37 1   
    36   14   38 1   
    37   15   16 1   
    38   16   17 2   
    39   16   18 1   
    40   18   30 1   
@<TRIPOS>SUBSTRUCTURE
     1 WLH         1 TEMP              0 ****  ****    0 ROOT
