@<TRIPOS>MOLECULE
WLL
   36    36     1     0     0
SMALL
bcc


@<TRIPOS>ATOM
      1 C19        -2.0550    1.1960    2.0710 c1        1 WLL     -0.067000
      2 C20         1.1280   -0.3020   -0.2170 c2        1 WLL     -0.159000
      3 C18        -0.7940    0.8980    1.8830 c2        1 WLL     -0.159000
      4 C10         7.7310   -7.0340    1.0260 c2        1 WLL     -0.504000
      5 C16         1.0960   -0.7120    2.2240 c2        1 WLL     -0.352000
      6 C9          9.0200   -7.2880    1.2510 c1        1 WLL      0.380000
      7 C6          7.0590   -5.7730    1.1240 c2        1 WLL     -0.046000
      8 C15         1.7510   -0.4870    0.9570 c2        1 WLL     -0.106000
      9 C17        -0.0650   -0.1220    2.6250 c2        1 WLL      0.205000
     10 C7          5.6830   -5.5990    1.1340 c2        1 WLL     -0.167000
     11 C4          7.9410   -4.5850    1.2040 c2        1 WLL      0.323000
     12 C2          5.9190   -3.2730    1.1320 c2        1 WLL      0.042000
     13 C11         5.3000   -1.8960    1.0940 c2        1 WLL      0.293000
     14 C22        -3.3030    1.5020    2.2320 c2        1 WLL     -0.150000
     15 C14         3.2500   -0.4530    1.0180 c3        1 WLL     -0.084000
     16 N1          5.1160   -4.3280    1.1200 n2        1 WLL     -0.162000
     17 N3          7.3030   -3.3240    1.1860 n         1 WLL     -0.287000
     18 N13         3.8050   -1.8500    1.0300 n4        1 WLL     -0.086000
     19 O12         5.9190   -0.8420    1.1110 o         1 WLL     -0.155000
     20 O21        -0.6440   -0.4230    3.8280 oh        1 WLL     -0.228000
     21 S8          4.5190   -6.8480    1.1420 sh        1 WLL      0.263000
     22 H1          0.0310   -0.3090   -0.2990 ha        1 WLL      0.142500
     23 H2          1.6680   -0.1170   -1.1560 ha        1 WLL      0.142500
     24 H3         -0.1930    1.4480    1.1340 ha        1 WLL      0.157000
     25 H4          7.1330   -7.9080    0.6770 ha        1 WLL      0.205000
     26 H5          1.5930   -1.4160    2.9100 ha        1 WLL      0.113000
     27 H6          5.2740   -7.8350    1.6040 hs        1 WLL      0.038000
     28 H7         -0.1240   -1.1090    4.2770 ho        1 WLL      0.227000
     29 H8         -3.6290    2.2670    2.9560 ha        1 WLL      0.161500
     30 H9         -4.1090    1.0170    1.6590 ha        1 WLL      0.161500
     31 H10         3.6000    0.0640    1.9580 hx        1 WLL      0.154500
     32 H11         3.6910    0.0830    0.1290 hx        1 WLL      0.154500
     33 H12         7.8530   -2.4880    1.2080 hn        1 WLL      0.283000
     34 H13         3.4920   -2.3490    0.1840 hn        1 WLL      0.273500
     35 H132        3.4190   -2.3570    1.8410 hn        1 WLL      0.273500
     36 O5          9.1760   -4.6280    1.2860 o         1 WLL     -0.283000
@<TRIPOS>BOND
     1    1    3 1   
     2    1   14 1   
     3    2    8 1   
     4    2   22 1   
     5    2   23 1   
     6    3    9 1   
     7    3   24 1   
     8    4    6 1   
     9    4    7 1   
    10    4   25 1   
    11    5    8 1   
    12    5    9 1   
    13    5   26 1   
    14    7   10 1   
    15    7   11 1   
    16    8   15 1   
    17    9   20 1   
    18   10   16 1   
    19   10   21 1   
    20   11   17 1   
    21   11   36 1   
    22   12   13 1   
    23   12   16 1   
    24   12   17 1   
    25   13   18 1   
    26   13   19 1   
    27   14   29 1   
    28   14   30 1   
    29   15   18 1   
    30   15   31 1   
    31   15   32 1   
    32   17   33 1   
    33   18   34 1   
    34   18   35 1   
    35   20   28 1   
    36   21   27 1   
@<TRIPOS>SUBSTRUCTURE
     1 WLL         1 TEMP              0 ****  ****    0 ROOT
