@<TRIPOS>MOLECULE
WLL
   36    36     1     0     0
SMALL
bcc


@<TRIPOS>ATOM
      1 C19        -2.0310    1.0490    2.1700 c1        1 WLL     -0.127000
      2 C20         1.1740   -0.1660   -0.2370 c2        1 WLL     -0.158000
      3 C18        -0.7560    0.8370    1.9640 c2        1 WLL     -0.169000
      4 C10         7.6950   -7.0740    1.0840 c2        1 WLL     -0.503000
      5 C16         1.1960   -0.7190    2.1790 c2        1 WLL     -0.284000
      6 C9          8.9710   -7.3470    1.3540 c1        1 WLL      0.378000
      7 C6          7.0400   -5.8030    1.1520 c2        1 WLL     -0.047000
      8 C15         1.8190   -0.4270    0.9100 c2        1 WLL     -0.112000
      9 C17         0.0300   -0.1880    2.6380 c2        1 WLL      0.175000
     10 C7          5.6670   -5.6080    1.1130 c2        1 WLL     -0.166000
     11 C4          7.9360   -4.6280    1.2550 c2        1 WLL      0.324000
     12 C2          5.9390   -3.2850    1.1080 c2        1 WLL      0.043000
     13 C11         5.3430   -1.8990    1.0410 c2        1 WLL      0.295000
     14 C22        -3.2940    1.2880    2.3320 c2        1 WLL     -0.137000
     15 C14         3.3200   -0.4230    0.9380 c3        1 WLL     -0.083000
     16 N1          5.1210   -4.3280    1.0740 n2        1 WLL     -0.161000
     17 N3          7.3190   -3.3570    1.2100 ns        1 WLL     -0.287000
     18 N13         3.8490   -1.8290    0.9800 ny        1 WLL     -0.086000
     19 O12         5.9800   -0.8560    1.0330 o         1 WLL     -0.157000
     20 O21        -0.3820   -0.6590    3.8610 oh        1 WLL     -0.245000
     21 S8          4.4850   -6.8380    1.0870 sh        1 WLL      0.265000
     22 H1          0.0750   -0.1520   -0.2960 ha        1 WLL      0.141500
     23 H2          1.6960    0.0590   -1.1770 ha        1 WLL      0.141500
     24 H3         -0.1970    1.4660    1.2450 ha        1 WLL      0.163000
     25 H4          7.0960   -7.9410    0.7200 ha        1 WLL      0.205000
     26 H5          1.7150   -1.4350    2.8380 ha        1 WLL      0.130000
     27 H6          5.2070   -7.8330    1.5820 hs        1 WLL      0.037000
     28 H7         -1.2030   -0.2070    4.1120 ho        1 WLL      0.242000
     29 H8         -3.6670    2.0000    3.0870 ha        1 WLL      0.161000
     30 H9         -4.0700    0.7970    1.7220 ha        1 WLL      0.161000
     31 H10         3.6960    0.1130    1.8580 hx        1 WLL      0.154500
     32 H11         3.7540    0.0790    0.0270 hx        1 WLL      0.154500
     33 H12         7.8810   -2.5300    1.2430 hn        1 WLL      0.283000
     34 H13         3.5240   -2.3420    0.1480 hn        1 WLL      0.275500
     35 H132        3.4580   -2.3100    1.8060 hn        1 WLL      0.275500
     36 O5          9.1680   -4.6890    1.3790 o         1 WLL     -0.284000
@<TRIPOS>BOND
     1    1    3 1   
     2    1   14 1   
     3    2    8 1   
     4    2   22 1   
     5    2   23 1   
     6    3    9 1   
     7    3   24 1   
     8    4    6 1   
     9    4    7 1   
    10    4   25 1   
    11    5    8 1   
    12    5    9 1   
    13    5   26 1   
    14    7   10 1   
    15    7   11 1   
    16    8   15 1   
    17    9   20 1   
    18   10   16 1   
    19   10   21 1   
    20   11   17 1   
    21   11   36 1   
    22   12   13 1   
    23   12   16 1   
    24   12   17 1   
    25   13   18 1   
    26   13   19 1   
    27   14   29 1   
    28   14   30 1   
    29   15   18 1   
    30   15   31 1   
    31   15   32 1   
    32   17   33 1   
    33   18   34 1   
    34   18   35 1   
    35   20   28 1   
    36   21   27 1   
@<TRIPOS>SUBSTRUCTURE
     1 WLL         1 TEMP              0 ****  ****    0 ROOT
