@<TRIPOS>MOLECULE
WLM
   56    58     1     0     0
SMALL
bcc


@<TRIPOS>ATOM
      1 C1         -0.0710    0.3210    0.2290 ca        1 WLM     -0.244600
      2 C2          0.8540    0.0360   -0.8010 ca        1 WLM      0.214100
      3 C3         -0.1230   -0.4990    1.3680 ca        1 WLM     -0.070000
      4 C4         -0.9110    1.5120    0.1250 c         1 WLM      0.599700
      5 C5          1.7250   -1.0620   -0.6720 ca        1 WLM     -0.191000
      6 O6          0.7950    0.8600   -1.8910 os        1 WLM     -0.330900
      7 C7          0.7390   -1.5840    1.4800 ca        1 WLM     -0.017600
      8 N8         -2.4100    1.2440    0.2690 n4        1 WLM     -0.686800
      9 O9         -0.6180    2.6790   -0.0590 o         1 WLM     -0.389100
     10 C10         1.6680   -1.8620    0.4580 ca        1 WLM     -0.021000
     11 C11         1.8090    0.6930   -2.8890 c3        1 WLM      0.109700
     12 CL          0.6810   -2.5700    2.8510 cl        1 WLM     -0.027400
     13 C13        -3.0150    0.9410   -1.0620 c3        1 WLM      0.106800
     14 C14        -4.5230    0.7060   -0.9870 c3        1 WLM     -0.060100
     15 C15        -5.0360    0.4290   -2.3590 ca        1 WLM     -0.057300
     16 C16        -5.4420   -0.8630   -2.7120 ca        1 WLM     -0.151000
     17 C17        -5.1230    1.4640   -3.2940 ca        1 WLM     -0.151000
     18 C18        -5.9290   -1.1090   -3.9940 ca        1 WLM      0.011000
     19 C19        -5.6070    1.2070   -4.5760 ca        1 WLM      0.011000
     20 C20        -6.0140   -0.0820   -4.9410 ca        1 WLM     -0.357500
     21 S21        -6.5440   -0.4020   -6.5160 sy        1 WLM      1.515200
     22 N22        -8.1850   -0.3090   -6.4220 nh        1 WLM     -0.835800
     23 O23        -6.0190    0.5710   -7.3710 o         1 WLM     -0.629800
     24 O24        -6.2560   -1.7500   -6.8080 o         1 WLM     -0.629800
     25 C25        -8.9190    0.8280   -6.1360 cc        1 WLM      0.596300
     26 S26       -10.5970    1.0270   -6.5240 ss        1 WLM     -0.162800
     27 N27        -8.3980    1.9440   -5.5270 nd        1 WLM     -0.394000
     28 C28       -10.5020    2.6030   -5.8330 cc        1 WLM      0.364700
     29 N29        -9.2660    2.8980   -5.3730 nd        1 WLM     -0.294000
     30 C30       -11.6810    3.5110   -5.7770 c3        1 WLM     -0.091000
     31 C31       -12.0190    3.8700   -4.3420 c3        1 WLM     -0.089600
     32 C32       -11.4340    4.7630   -6.5980 c3        1 WLM     -0.089600
     33 H3         -0.8190   -0.2670    2.1910 ha        1 WLM      0.149000
     34 H5          2.4560   -1.2840   -1.4670 ha        1 WLM      0.175000
     35 H8         -2.5600    0.4520    0.9000 hn        1 WLM      0.452800
     36 H10         2.3550   -2.7210    0.5600 ha        1 WLM      0.181000
     37 H111        2.8230    0.8170   -2.4400 h1        1 WLM      0.070033
     38 H112        1.5850    1.5220   -3.6090 h1        1 WLM      0.070033
     39 H113        1.7010   -0.3040   -3.3810 h1        1 WLM      0.070033
     40 H131       -2.7970    1.8140   -1.7450 hx        1 WLM      0.115700
     41 H132       -2.5020    0.0250   -1.4750 hx        1 WLM      0.115700
     42 H141       -4.7510   -0.1570   -0.3060 hc        1 WLM      0.073700
     43 H142       -5.0410    1.6150   -0.5750 hc        1 WLM      0.073700
     44 H16        -5.3880   -1.6840   -1.9820 ha        1 WLM      0.141000
     45 H17        -4.8270    2.4890   -3.0220 ha        1 WLM      0.141000
     46 H18        -6.2340   -2.1330   -4.2750 ha        1 WLM      0.174500
     47 H19        -5.6660    2.0290   -5.3150 ha        1 WLM      0.174500
     48 H22        -8.7420   -1.1190   -6.5880 hn        1 WLM      0.470800
     49 H30       -12.5600    2.9600   -6.2220 hc        1 WLM      0.057700
     50 H311      -11.1850    4.4460   -3.8730 hc        1 WLM      0.047367
     51 H312      -12.9410    4.5000   -4.3220 hc        1 WLM      0.047367
     52 H313      -12.2020    2.9500   -3.7380 hc        1 WLM      0.047367
     53 H321      -11.1930    4.4990   -7.6550 hc        1 WLM      0.047367
     54 H322      -10.5850    5.3510   -6.1740 hc        1 WLM      0.047367
     55 H323      -12.3510    5.4020   -6.5890 hc        1 WLM      0.047367
     56 H82        -2.8700    2.0740    0.6620 hn        1 WLM      0.452800
@<TRIPOS>BOND
     1    1    2 ar  
     2    1    3 ar  
     3    1    4 1   
     4    2    5 ar  
     5    2    6 1   
     6    3    7 ar  
     7    3   33 1   
     8    4    8 1   
     9    4    9 2   
    10    5   10 ar  
    11    5   34 1   
    12    6   11 1   
    13    7   10 ar  
    14    7   12 1   
    15    8   13 1   
    16    8   35 1   
    17    8   56 1   
    18   10   36 1   
    19   11   37 1   
    20   11   38 1   
    21   11   39 1   
    22   13   14 1   
    23   13   40 1   
    24   13   41 1   
    25   14   15 1   
    26   14   42 1   
    27   14   43 1   
    28   15   16 ar  
    29   15   17 ar  
    30   16   18 ar  
    31   16   44 1   
    32   17   19 ar  
    33   17   45 1   
    34   18   20 ar  
    35   18   46 1   
    36   19   20 ar  
    37   19   47 1   
    38   20   21 1   
    39   21   22 1   
    40   21   23 2   
    41   21   24 2   
    42   22   25 1   
    43   22   48 1   
    44   25   26 1   
    45   25   27 2   
    46   26   28 1   
    47   27   29 1   
    48   28   29 2   
    49   28   30 1   
    50   30   31 1   
    51   30   32 1   
    52   30   49 1   
    53   31   50 1   
    54   31   51 1   
    55   31   52 1   
    56   32   53 1   
    57   32   54 1   
    58   32   55 1   
@<TRIPOS>SUBSTRUCTURE
     1 WLM         1 TEMP              0 ****  ****    0 ROOT
