@<TRIPOS>MOLECULE
WLM
   57    58     1     0     0
SMALL
bcc


@<TRIPOS>ATOM
      1 C1         -0.0430   -0.2980    0.1880 ca        1 WLM     -0.260600
      2 C2          1.3330   -0.0510   -0.0430 ca        1 WLM      0.237100
      3 C3         -0.5520   -0.2030    1.5000 ca        1 WLM     -0.079000
      4 C4         -0.8720   -0.7100   -0.9320 c         1 WLM      0.603700
      5 C5          2.1760    0.2820    1.0390 ca        1 WLM     -0.195000
      6 O6          1.7380   -0.1250   -1.3420 os        1 WLM     -0.322900
      7 C7          0.2880    0.1280    2.5510 ca        1 WLM     -0.014600
      8 N8         -2.3160   -0.1550   -0.8780 n4        1 WLM     -0.691800
      9 O9         -0.6290   -1.4020   -1.9040 o         1 WLM     -0.399100
     10 C10         1.6610    0.3690    2.3180 ca        1 WLM     -0.004000
     11 C11         3.1420    0.0150   -1.6030 c3        1 WLM      0.107700
     12 CL         -0.3230    0.2350    4.1220 cl        1 WLM     -0.015400
     13 C13        -2.9660   -0.1190   -2.2150 c3        1 WLM      0.103800
     14 C14        -4.4300    0.3170   -2.1560 c3        1 WLM     -0.082100
     15 C15        -5.0330    0.2930   -3.5200 ca        1 WLM      0.032700
     16 C16        -5.2980   -0.9330   -4.1560 ca        1 WLM     -0.152000
     17 C17        -5.3760    1.4860   -4.1630 ca        1 WLM     -0.152000
     18 C18        -5.8960   -0.9570   -5.4040 ca        1 WLM      0.055000
     19 C19        -5.9770    1.4600   -5.4180 ca        1 WLM      0.055000
     20 C20        -6.2500    0.2390   -6.0760 ca        1 WLM     -0.549500
     21 S21        -6.8850    0.2030   -7.5270 s4        1 WLM      1.667300
     22 N22        -9.2480   -0.0870   -7.3020 nh        1 WLM     -0.949500
     23 O23        -7.0120    1.3750   -8.1910 o         1 WLM     -0.414900
     24 O24        -6.8440   -1.0090   -8.1420 o         1 WLM     -0.414900
     25 C25        -9.7540    0.9900   -6.5280 cc        1 WLM      0.359300
     26 S26       -11.3680    1.5500   -6.4200 ss        1 WLM      0.016200
     27 N27        -8.8950    1.7490   -5.7620 nd        1 WLM     -0.371000
     28 C28       -10.8280    2.7660   -5.3600 cc        1 WLM      0.389700
     29 N29        -9.4800    2.7050   -5.1300 nd        1 WLM     -0.300000
     30 C30       -11.7400    3.7850   -4.7650 c3        1 WLM     -0.104000
     31 C31       -11.7410    3.6880   -3.2500 c3        1 WLM     -0.092600
     32 C32       -11.3500    5.1810   -5.2130 c3        1 WLM     -0.092600
     33 H3         -1.6090   -0.4280    1.7100 ha        1 WLM      0.138000
     34 H5          3.2490    0.4670    0.8640 ha        1 WLM      0.182000
     35 H8         -2.8620   -0.7480   -0.2450 hn        1 WLM      0.454800
     36 H10         2.3230    0.6250    3.1670 ha        1 WLM      0.189000
     37 H111        3.4810    1.0430   -1.3320 h1        1 WLM      0.074367
     38 H112        3.7200   -0.7650   -1.0510 h1        1 WLM      0.074367
     39 H113        3.2030   -0.1510   -2.7100 h1        1 WLM      0.074367
     40 H131       -2.3720    0.5880   -2.8630 hx        1 WLM      0.119200
     41 H132       -2.8890   -1.1530   -2.6660 hx        1 WLM      0.119200
     42 H141       -4.5100    1.3520   -1.7230 hc        1 WLM      0.088700
     43 H142       -5.0200   -0.3740   -1.4920 hc        1 WLM      0.088700
     44 H16        -5.0390   -1.8820   -3.6570 ha        1 WLM      0.171500
     45 H17        -5.1880    2.4590   -3.6780 ha        1 WLM      0.171500
     46 H18        -6.0930   -1.9310   -5.8950 ha        1 WLM      0.186500
     47 H19        -6.2470    2.4180   -5.9080 ha        1 WLM      0.186500
     48 H22        -9.4820   -0.9720   -6.8760 hn        1 WLM      0.424800
     49 H30       -12.7840    3.5690   -5.1370 hc        1 WLM      0.071700
     50 H311      -12.0260    2.6610   -2.9190 hc        1 WLM      0.055533
     51 H312      -10.7330    3.9340   -2.8370 hc        1 WLM      0.055533
     52 H313      -12.4810    4.4150   -2.8360 hc        1 WLM      0.055533
     53 H321      -10.3340    5.4510   -4.8350 hc        1 WLM      0.055533
     54 H322      -11.3500    5.2550   -6.3270 hc        1 WLM      0.055533
     55 H323      -12.0860    5.9180   -4.8080 hc        1 WLM      0.055533
     56 H82        -2.2810    0.7880   -0.4780 hn        1 WLM      0.454800
     57 H222       -9.6300   -0.0570   -8.2360 hn        1 WLM      0.424800
@<TRIPOS>BOND
     1    1    2 ar  
     2    1    3 ar  
     3    1    4 1   
     4    2    5 ar  
     5    2    6 1   
     6    3    7 ar  
     7    3   33 1   
     8    4    8 1   
     9    4    9 2   
    10    5   10 ar  
    11    5   34 1   
    12    6   11 1   
    13    7   10 ar  
    14    7   12 1   
    15    8   13 1   
    16    8   35 1   
    17    8   56 1   
    18   10   36 1   
    19   11   37 1   
    20   11   38 1   
    21   11   39 1   
    22   13   14 1   
    23   13   40 1   
    24   13   41 1   
    25   14   15 1   
    26   14   42 1   
    27   14   43 1   
    28   15   16 ar  
    29   15   17 ar  
    30   16   18 ar  
    31   16   44 1   
    32   17   19 ar  
    33   17   45 1   
    34   18   20 ar  
    35   18   46 1   
    36   19   20 ar  
    37   19   47 1   
    38   20   21 1   
    39   21   23 1   
    40   21   24 1   
    41   22   25 1   
    42   22   48 1   
    43   22   57 1   
    44   25   26 1   
    45   25   27 2   
    46   26   28 1   
    47   27   29 1   
    48   28   29 2   
    49   28   30 1   
    50   30   31 1   
    51   30   32 1   
    52   30   49 1   
    53   31   50 1   
    54   31   51 1   
    55   31   52 1   
    56   32   53 1   
    57   32   54 1   
    58   32   55 1   
@<TRIPOS>SUBSTRUCTURE
     1 WLM         1 TEMP              0 ****  ****    0 ROOT
