@<TRIPOS>MOLECULE
WLM
   55    57     1     0     0
SMALL
bcc


@<TRIPOS>ATOM
      1 C1         -6.0000   -0.0590   -0.6620 ca        1 WLM     -0.160600
      2 C2         -6.7970   -0.3390    0.4670 ca        1 WLM      0.154100
      3 C3         -6.5300    0.7340   -1.6860 ca        1 WLM     -0.045000
      4 C4         -4.6170   -0.5820   -0.8750 c         1 WLM      0.684700
      5 C5         -8.0970    0.1800    0.5620 ca        1 WLM     -0.204000
      6 O6         -6.2300   -1.1250    1.4500 os        1 WLM     -0.338900
      7 C7         -7.8210    1.2550   -1.5800 ca        1 WLM     -0.026600
      8 N8         -3.7610   -0.6220    0.2050 n         1 WLM     -0.560900
      9 O9         -4.2350   -0.9200   -2.0160 o         1 WLM     -0.612100
     10 C10        -8.6060    0.9790   -0.4570 ca        1 WLM     -0.070000
     11 C11        -7.1050   -1.6030    2.4680 c3        1 WLM      0.114700
     12 CL         -8.4440    2.2250   -2.8280 cl        1 WLM     -0.082400
     13 C13        -2.4240   -1.1310    0.1070 c3        1 WLM      0.097000
     14 C14        -1.3440   -0.0410    0.1900 c3        1 WLM     -0.073100
     15 C15         0.0100   -0.6440    0.0630 ca        1 WLM     -0.002300
     16 C16         0.4250   -1.1920   -1.1600 ca        1 WLM     -0.162000
     17 C17         0.8880   -0.6600    1.1520 ca        1 WLM     -0.162000
     18 C18         1.6950   -1.7380   -1.2840 ca        1 WLM      0.006500
     19 C19         2.1610   -1.2090    1.0190 ca        1 WLM      0.006500
     20 C20         2.5870   -1.7540   -0.2000 ca        1 WLM     -0.413500
     21 S21         4.0940   -2.4450   -0.3520 sy        1 WLM      1.522200
     22 N22         5.0340   -1.2260   -0.9840 nh        1 WLM     -0.825800
     23 O23         4.5780   -2.8510    0.8970 o         1 WLM     -0.638800
     24 O24         4.0690   -3.4260   -1.3680 o         1 WLM     -0.638800
     25 C25         5.3750   -0.0450   -0.3640 cc        1 WLM      0.634300
     26 S26         6.5540    1.0740   -0.9930 ss        1 WLM     -0.222800
     27 N27         4.8420    0.3930    0.8240 nd        1 WLM     -0.389000
     28 C28         6.2480    2.0640    0.3890 cc        1 WLM      0.355700
     29 N29         5.3270    1.5330    1.2170 nd        1 WLM     -0.286000
     30 C30         6.9540    3.3580    0.6000 c3        1 WLM     -0.086000
     31 C31         5.9680    4.5110    0.6420 c3        1 WLM     -0.088600
     32 C32         7.7850    3.3180    1.8690 c3        1 WLM     -0.088600
     33 H3         -5.9140    0.9260   -2.5820 ha        1 WLM      0.174000
     34 H5         -8.7250   -0.0360    1.4390 ha        1 WLM      0.147000
     35 H8         -4.1130   -0.4120    1.1090 hn        1 WLM      0.323500
     36 H10        -9.6250    1.3870   -0.3750 ha        1 WLM      0.152000
     37 H111       -7.4520   -0.7560    3.1100 h1        1 WLM      0.050700
     38 H112       -7.9730   -2.1460    2.0250 h1        1 WLM      0.050700
     39 H113       -6.4570   -2.3030    3.0550 h1        1 WLM      0.050700
     40 H131       -2.2550   -1.8660    0.9470 h1        1 WLM      0.064200
     41 H132       -2.3060   -1.6800   -0.8730 h1        1 WLM      0.064200
     42 H141       -1.4950    0.7030   -0.6380 hc        1 WLM      0.062700
     43 H142       -1.4330    0.5130    1.1610 hc        1 WLM      0.062700
     44 H16        -0.2620   -1.1870   -2.0210 ha        1 WLM      0.147500
     45 H17         0.5780   -0.2330    2.1180 ha        1 WLM      0.147500
     46 H18         2.0080   -2.1860   -2.2450 ha        1 WLM      0.161000
     47 H19         2.8470   -1.2200    1.8860 ha        1 WLM      0.161000
     48 H22         5.4120   -1.3280   -1.9000 hn        1 WLM      0.461800
     49 H30         7.6490    3.5160   -0.2760 hc        1 WLM      0.051700
     50 H311        5.2770    4.4040    1.5120 hc        1 WLM      0.044533
     51 H312        6.5230    5.4750    0.7430 hc        1 WLM      0.044533
     52 H313        5.3610    4.5430   -0.2940 hc        1 WLM      0.044533
     53 H321        8.3480    4.2760    1.9780 hc        1 WLM      0.044533
     54 H322        7.1290    3.1850    2.7630 hc        1 WLM      0.044533
     55 H323        8.5140    2.4740    1.8340 hc        1 WLM      0.044533
@<TRIPOS>BOND
     1    1    2 ar  
     2    1    3 ar  
     3    1    4 1   
     4    2    5 ar  
     5    2    6 1   
     6    3    7 ar  
     7    3   33 1   
     8    4    8 1   
     9    4    9 2   
    10    5   10 ar  
    11    5   34 1   
    12    6   11 1   
    13    7   10 ar  
    14    7   12 1   
    15    8   13 1   
    16    8   35 1   
    17   10   36 1   
    18   11   37 1   
    19   11   38 1   
    20   11   39 1   
    21   13   14 1   
    22   13   40 1   
    23   13   41 1   
    24   14   15 1   
    25   14   42 1   
    26   14   43 1   
    27   15   16 ar  
    28   15   17 ar  
    29   16   18 ar  
    30   16   44 1   
    31   17   19 ar  
    32   17   45 1   
    33   18   20 ar  
    34   18   46 1   
    35   19   20 ar  
    36   19   47 1   
    37   20   21 1   
    38   21   22 1   
    39   21   23 2   
    40   21   24 2   
    41   22   25 1   
    42   22   48 1   
    43   25   26 1   
    44   25   27 2   
    45   26   28 1   
    46   27   29 1   
    47   28   29 2   
    48   28   30 1   
    49   30   31 1   
    50   30   32 1   
    51   30   49 1   
    52   31   50 1   
    53   31   51 1   
    54   31   52 1   
    55   32   53 1   
    56   32   54 1   
    57   32   55 1   
@<TRIPOS>SUBSTRUCTURE
     1 WLM         1 TEMP              0 ****  ****    0 ROOT
