@<TRIPOS>MOLECULE
WLM
   56    58     1     0     0
SMALL
bcc


@<TRIPOS>ATOM
      1 C1         -0.0250    0.3950    0.1690 ca        1 WLM     -0.244600
      2 C2          0.8740    0.0460   -0.8640 ca        1 WLM      0.214100
      3 C3         -0.0680   -0.3720    1.3460 ca        1 WLM     -0.070000
      4 C4         -0.8450    1.5950    0.0280 c         1 WLM      0.599700
      5 C5          1.7280   -1.0610   -0.7030 ca        1 WLM     -0.191000
      6 O6          0.8070    0.8210   -1.9890 os        1 WLM     -0.330900
      7 C7          0.7780   -1.4660    1.4900 ca        1 WLM     -0.017600
      8 N8         -2.3460    1.3630    0.2140 ny        1 WLM     -0.686800
      9 O9         -0.5360    2.7470   -0.2170 o         1 WLM     -0.389100
     10 C10         1.6800   -1.8070    0.4630 ca        1 WLM     -0.021000
     11 C11         1.7970    0.5890   -2.9990 c3        1 WLM      0.109700
     12 Cl          0.7300   -2.3870    2.9060 cl        1 WLM     -0.027400
     13 C13        -2.9830    1.0020   -1.0870 c3        1 WLM      0.106800
     14 C14        -4.4930    0.8010   -0.9720 c3        1 WLM     -0.060100
     15 C15        -5.0380    0.4610   -2.3160 ca        1 WLM     -0.057300
     16 C16        -5.4790   -0.8390   -2.5910 ca        1 WLM     -0.151000
     17 C17        -5.1210    1.4450   -3.3060 ca        1 WLM     -0.151000
     18 C18        -5.9950   -1.1440   -3.8480 ca        1 WLM      0.011000
     19 C19        -5.6340    1.1290   -4.5630 ca        1 WLM      0.011000
     20 C20        -6.0760   -0.1690   -4.8480 ca        1 WLM     -0.357500
     21 S21        -6.6430   -0.5620   -6.3940 sy        1 WLM      1.515200
     22 N22        -8.2790   -0.4260   -6.2760 nu        1 WLM     -0.836800
     23 O23        -6.1120    0.3490   -7.3100 o         1 WLM     -0.629800
     24 O24        -6.3900   -1.9310   -6.6150 o         1 WLM     -0.629800
     25 C25        -8.9820    0.7410   -6.0430 cc        1 WLM      0.596300
     26 S26       -10.6620    0.9580   -6.4130 ss        1 WLM     -0.162800
     27 N27        -8.4260    1.8770   -5.5050 nd        1 WLM     -0.394000
     28 C28       -10.5190    2.5670   -5.8140 cc        1 WLM      0.364700
     29 N29        -9.2690    2.8580   -5.3920 nd        1 WLM     -0.294000
     30 C30       -11.6770    3.5050   -5.7890 c3        1 WLM     -0.091000
     31 C31       -11.9810    3.9510   -4.3710 c3        1 WLM     -0.089600
     32 C32       -11.4160    4.7030   -6.6830 c3        1 WLM     -0.089600
     33 H3         -0.7420   -0.0900    2.1710 ha        1 WLM      0.149000
     34 H5          2.4380   -1.3330   -1.5010 ha        1 WLM      0.175000
     35 H8         -2.7830    2.2200    0.5720 hn        1 WLM      0.452800
     36 H10         2.3540   -2.6740    0.5920 ha        1 WLM      0.181000
     37 H111        1.6610   -0.4270   -3.4420 h1        1 WLM      0.070033
     38 H112        2.8220    0.7140   -2.5770 h1        1 WLM      0.070033
     39 H113        1.5730    1.3890   -3.7520 h1        1 WLM      0.070033
     40 H131       -2.7620    1.8330   -1.8190 hx        1 WLM      0.115700
     41 H132       -2.4950    0.0560   -1.4610 hx        1 WLM      0.115700
     42 H141       -4.7240   -0.0200   -0.2410 hc        1 WLM      0.073700
     43 H142       -4.9860    1.7410   -0.6000 hc        1 WLM      0.073700
     44 H16        -5.4280   -1.6200   -1.8170 ha        1 WLM      0.141000
     45 H17        -4.7980    2.4760   -3.0950 ha        1 WLM      0.141000
     46 H18        -6.3270   -2.1750   -4.0660 ha        1 WLM      0.174500
     47 H19        -5.6900    1.9100   -5.3450 ha        1 WLM      0.174500
     48 H22        -8.8570   -1.2320   -6.3860 hn        1 WLM      0.470800
     49 H30       -12.5750    2.9500   -6.1890 hc        1 WLM      0.057700
     50 H311      -12.8880    4.6030   -4.3720 hc        1 WLM      0.047367
     51 H312      -11.1260    4.5320   -3.9500 hc        1 WLM      0.047367
     52 H313      -12.1740    3.0700   -3.7140 hc        1 WLM      0.047367
     53 H321      -11.2000    4.3740   -7.7280 hc        1 WLM      0.047367
     54 H322      -12.3180    5.3620   -6.6950 hc        1 WLM      0.047367
     55 H323      -10.5470    5.2930   -6.3070 hc        1 WLM      0.047367
     56 H82        -2.4970    0.6070    0.8880 hn        1 WLM      0.452800
@<TRIPOS>BOND
     1    1    2 ar  
     2    1    3 ar  
     3    1    4 1   
     4    2    5 ar  
     5    2    6 1   
     6    3    7 ar  
     7    3   33 1   
     8    4    8 1   
     9    4    9 2   
    10    5   10 ar  
    11    5   34 1   
    12    6   11 1   
    13    7   10 ar  
    14    7   12 1   
    15    8   13 1   
    16    8   35 1   
    17    8   56 1   
    18   10   36 1   
    19   11   37 1   
    20   11   38 1   
    21   11   39 1   
    22   13   14 1   
    23   13   40 1   
    24   13   41 1   
    25   14   15 1   
    26   14   42 1   
    27   14   43 1   
    28   15   16 ar  
    29   15   17 ar  
    30   16   18 ar  
    31   16   44 1   
    32   17   19 ar  
    33   17   45 1   
    34   18   20 ar  
    35   18   46 1   
    36   19   20 ar  
    37   19   47 1   
    38   20   21 1   
    39   21   22 1   
    40   21   23 2   
    41   21   24 2   
    42   22   25 1   
    43   22   48 1   
    44   25   26 1   
    45   25   27 2   
    46   26   28 1   
    47   27   29 1   
    48   28   29 2   
    49   28   30 1   
    50   30   31 1   
    51   30   32 1   
    52   30   49 1   
    53   31   50 1   
    54   31   51 1   
    55   31   52 1   
    56   32   53 1   
    57   32   54 1   
    58   32   55 1   
@<TRIPOS>SUBSTRUCTURE
     1 WLM         1 TEMP              0 ****  ****    0 ROOT
