@<TRIPOS>MOLECULE
WLU
   25    24     1     0     0
SMALL
bcc


@<TRIPOS>ATOM
      1 N           0.9100   -1.3530    0.9030 n3        1 WLU     -0.805200
      2 CN          1.6320   -2.4700    0.3430 c3        1 WLU      0.153100
      3 CA          0.6820   -0.2890   -0.0770 c3        1 WLU      0.025500
      4 CB         -0.3340    0.7420    0.4240 c3        1 WLU     -0.056400
      5 CG         -1.7700    0.2380    0.4040 c3        1 WLU     -0.068700
      6 CG1        -2.3280    0.3360   -1.0140 c3        1 WLU      0.127400
      7 O4         -3.5770   -0.3470   -1.0520 oh        1 WLU     -0.617800
      8 CG2        -2.6330    1.0350    1.3600 c3        1 WLU     -0.083100
      9 C           1.9720    0.4960   -0.4960 c         1 WLU      0.890600
     10 O           2.9860    0.4350    0.2560 o         1 WLU     -0.842800
     11 OXT         1.9170    1.1490   -1.5750 o         1 WLU     -0.842800
     12 H1          1.4650   -0.9550    1.6460 hn        1 WLU      0.354800
     13 H3          1.8330   -3.2130    1.1600 h1        1 WLU      0.016033
     14 H4          0.9980   -2.9640   -0.4390 h1        1 WLU      0.016033
     15 H5          2.6120   -2.1810   -0.1270 h1        1 WLU      0.016033
     16 H6          0.2730   -0.7670   -1.0140 h1        1 WLU      0.038700
     17 H7         -0.0710    1.0600    1.4660 hc        1 WLU      0.047200
     18 H8         -0.2440    1.6470   -0.2360 hc        1 WLU      0.047200
     19 H9         -1.7930   -0.8430    0.7160 hc        1 WLU      0.071700
     20 H10        -2.4920    1.4100   -1.3000 h1        1 WLU      0.028700
     21 H11        -1.6120   -0.1300   -1.7420 h1        1 WLU      0.028700
     22 H12        -3.7920   -0.4600   -1.9830 ho        1 WLU      0.383000
     23 H13        -3.6990    0.7150    1.2710 hc        1 WLU      0.024033
     24 H14        -2.2940    0.8740    2.4110 hc        1 WLU      0.024033
     25 H15        -2.5690    2.1260    1.1310 hc        1 WLU      0.024033
@<TRIPOS>BOND
     1    1    2 1   
     2    1    3 1   
     3    1   12 1   
     4    2   13 1   
     5    2   14 1   
     6    2   15 1   
     7    3    4 1   
     8    3    9 1   
     9    3   16 1   
    10    4    5 1   
    11    4   17 1   
    12    4   18 1   
    13    5    6 1   
    14    5    8 1   
    15    5   19 1   
    16    6    7 1   
    17    6   20 1   
    18    6   21 1   
    19    7   22 1   
    20    8   23 1   
    21    8   24 1   
    22    8   25 1   
    23    9   10 1   
    24    9   11 1   
@<TRIPOS>SUBSTRUCTURE
     1 WLU         1 TEMP              0 ****  ****    0 ROOT
