@<TRIPOS>MOLECULE
WM1
   16    16     1     0     0
SMALL
bcc


@<TRIPOS>ATOM
      1 CAD         0.0250    0.0110   -0.0530 ca        1 WM1     -0.124300
      2 CAG         1.4300    0.0220   -0.0210 ca        1 WM1     -0.094000
      3 CAH         2.0800    0.0280    1.2060 ca        1 WM1     -0.159300
      4 CAI         1.2980    0.0230    2.3920 ca        1 WM1      0.422200
      5 NAF        -0.0360    0.0130    2.3910 nb        1 WM1     -0.680000
      6 CAE        -0.6620    0.0070    1.1750 ca        1 WM1      0.281800
      7 CAB        -2.1360   -0.0040    1.1310 c         1 WM1      0.471600
      8 OAC        -2.8690   -0.0110    0.1550 o         1 WM1     -0.407100
      9 NAA        -2.8510   -0.0080    2.4670 nz        1 WM1     -0.746400
     10 H1         -0.5240    0.0060   -1.0090 ha        1 WM1      0.185000
     11 H2          1.9990    0.0250   -0.9660 ha        1 WM1      0.182000
     12 H3          3.1790    0.0360    1.2760 ha        1 WM1      0.184000
     13 H4          1.7820    0.0280    3.3890 h4        1 WM1      0.060100
     14 H5         -2.5720   -0.8370    3.0030 hn        1 WM1      0.474467
     15 H6         -2.5850    0.8260    3.0010 hn        1 WM1      0.474467
     16 HAA3       -3.8680   -0.0160    2.3250 hn        1 WM1      0.474467
@<TRIPOS>BOND
     1    1    2 ar  
     2    1    6 ar  
     3    1   10 1   
     4    2    3 ar  
     5    2   11 1   
     6    3    4 ar  
     7    3   12 1   
     8    4    5 ar  
     9    4   13 1   
    10    5    6 ar  
    11    6    7 1   
    12    7    8 2   
    13    7    9 1   
    14    9   14 1   
    15    9   15 1   
    16    9   16 1   
@<TRIPOS>SUBSTRUCTURE
     1 WM1         1 TEMP              0 ****  ****    0 ROOT
