@<TRIPOS>MOLECULE
WM1
   16    16     1     0     0
SMALL
bcc


@<TRIPOS>ATOM
      1 CAD         0.0260   -0.0010   -0.0520 ca        1 WM1     -0.124300
      2 CAG         1.4310   -0.0010   -0.0200 ca        1 WM1     -0.094000
      3 CAH         2.0810    0.0010    1.2070 ca        1 WM1     -0.159300
      4 CAI         1.2980    0.0020    2.3930 ca        1 WM1      0.422200
      5 NAF        -0.0350    0.0010    2.3910 nb        1 WM1     -0.680000
      6 CAE        -0.6610   -0.0000    1.1750 ca        1 WM1      0.281800
      7 CAB        -2.1350   -0.0010    1.1300 c         1 WM1      0.471600
      8 OAC        -2.8680   -0.0030    0.1530 o         1 WM1     -0.407100
      9 NAA        -2.8510    0.0000    2.4660 n4        1 WM1     -0.746400
     10 H1         -0.5220   -0.0020   -1.0090 ha        1 WM1      0.185000
     11 H2          2.0010   -0.0010   -0.9650 ha        1 WM1      0.182000
     12 H3          3.1800    0.0010    1.2780 ha        1 WM1      0.184000
     13 H4          1.7820    0.0030    3.3900 h4        1 WM1      0.060100
     14 H5         -3.8680   -0.0000    2.3230 hn        1 WM1      0.474467
     15 H6         -2.5780   -0.8310    3.0020 hn        1 WM1      0.474467
     16 HAA3       -2.5790    0.8330    3.0000 hn        1 WM1      0.474467
@<TRIPOS>BOND
     1    1    2 ar  
     2    1    6 ar  
     3    1   10 1   
     4    2    3 ar  
     5    2   11 1   
     6    3    4 ar  
     7    3   12 1   
     8    4    5 ar  
     9    4   13 1   
    10    5    6 ar  
    11    6    7 1   
    12    7    8 2   
    13    7    9 1   
    14    9   14 1   
    15    9   15 1   
    16    9   16 1   
@<TRIPOS>SUBSTRUCTURE
     1 WM1         1 TEMP              0 ****  ****    0 ROOT
