@<TRIPOS>MOLECULE
WM2
   23    23     1     0     0
SMALL
bcc


@<TRIPOS>ATOM
      1 O9         -0.0500    0.2260    0.1390 o         1 WM2     -0.382100
      2 C7          1.1420    0.0680   -0.0410 c         1 WM2      0.550100
      3 N8          1.9400   -0.1500    1.2430 nz        1 WM2     -0.774400
      4 C1          1.9550    0.0630   -1.3110 c3        1 WM2     -0.125700
      5 C6          1.0090   -0.0910   -2.5020 c3        1 WM2     -0.078400
      6 C5          1.7960   -0.0620   -3.7970 c3        1 WM2     -0.079900
      7 C4          2.6210    1.2020   -3.9160 c3        1 WM2     -0.088400
      8 C3          3.5360    1.3770   -2.7230 c3        1 WM2     -0.079900
      9 C2          2.7590    1.3560   -1.4190 c3        1 WM2     -0.078400
     10 H1          2.6880    0.5470    1.3060 hn        1 WM2      0.466800
     11 H2          1.3290   -0.0660    2.0640 hn        1 WM2      0.466800
     12 H3          2.6620   -0.8160   -1.2970 hc        1 WM2      0.095700
     13 H4          0.4490   -1.0580   -2.4160 hc        1 WM2      0.061700
     14 H5          0.2570    0.7430   -2.4920 hc        1 WM2      0.061700
     15 H6          2.4660   -0.9600   -3.8530 hc        1 WM2      0.065200
     16 H7          1.0770   -0.1250   -4.6560 hc        1 WM2      0.065200
     17 H8          3.2370    1.1590   -4.8530 hc        1 WM2      0.066700
     18 H9          1.9400    2.0900   -4.0030 hc        1 WM2      0.066700
     19 H10         4.0790    2.3560   -2.8030 hc        1 WM2      0.065200
     20 H11         4.3080    0.5630   -2.7140 hc        1 WM2      0.065200
     21 H12         3.4760    1.4420   -0.5620 hc        1 WM2      0.061700
     22 H13         2.0650    2.2370   -1.3860 hc        1 WM2      0.061700
     23 H83         2.3610   -1.0830    1.2360 hn        1 WM2      0.466800
@<TRIPOS>BOND
     1    1    2 2   
     2    2    3 1   
     3    2    4 1   
     4    3   10 1   
     5    3   11 1   
     6    3   23 1   
     7    4    5 1   
     8    4    9 1   
     9    4   12 1   
    10    5    6 1   
    11    5   13 1   
    12    5   14 1   
    13    6    7 1   
    14    6   15 1   
    15    6   16 1   
    16    7    8 1   
    17    7   17 1   
    18    7   18 1   
    19    8    9 1   
    20    8   19 1   
    21    8   20 1   
    22    9   21 1   
    23    9   22 1   
@<TRIPOS>SUBSTRUCTURE
     1 WM2         1 TEMP              0 ****  ****    0 ROOT
