@<TRIPOS>MOLECULE
WM2
   23    23     1     0     0
SMALL
bcc


@<TRIPOS>ATOM
      1 O9         -0.0460    0.2040    0.1400 o         1 WM2     -0.382100
      2 C7          1.1470    0.0560   -0.0420 c         1 WM2      0.550100
      3 N8          1.9490   -0.1600    1.2410 n4        1 WM2     -0.774400
      4 C1          1.9590    0.0590   -1.3120 c3        1 WM2     -0.125700
      5 C6          1.0140   -0.0990   -2.5030 c3        1 WM2     -0.078400
      6 C5          1.7990   -0.0610   -3.7980 c3        1 WM2     -0.079900
      7 C4          2.6140    1.2090   -3.9150 c3        1 WM2     -0.088400
      8 C3          3.5290    1.3890   -2.7220 c3        1 WM2     -0.079900
      9 C2          2.7540    1.3580   -1.4180 c3        1 WM2     -0.078400
     10 H1          2.6900    0.5440    1.3050 hn        1 WM2      0.466800
     11 H2          2.3760   -1.0890    1.2320 hn        1 WM2      0.466800
     12 H3          2.6720   -0.8140   -1.3000 hc        1 WM2      0.095700
     13 H4          0.4610   -1.0710   -2.4180 hc        1 WM2      0.061700
     14 H5          0.2550    0.7280   -2.4900 hc        1 WM2      0.061700
     15 H6          1.0790   -0.1280   -4.6570 hc        1 WM2      0.065200
     16 H7          2.4760   -0.9540   -3.8570 hc        1 WM2      0.065200
     17 H8          1.9270    2.0920   -3.9990 hc        1 WM2      0.066700
     18 H9          3.2290    1.1730   -4.8530 hc        1 WM2      0.066700
     19 H10         4.3070    0.5800   -2.7160 hc        1 WM2      0.065200
     20 H11         4.0640    2.3720   -2.8010 hc        1 WM2      0.065200
     21 H12         3.4700    1.4480   -0.5610 hc        1 WM2      0.061700
     22 H13         2.0520    2.2340   -1.3820 hc        1 WM2      0.061700
     23 H83         1.3370   -0.0820    2.0630 hn        1 WM2      0.466800
@<TRIPOS>BOND
     1    1    2 2   
     2    2    3 1   
     3    2    4 1   
     4    3   10 1   
     5    3   11 1   
     6    3   23 1   
     7    4    5 1   
     8    4    9 1   
     9    4   12 1   
    10    5    6 1   
    11    5   13 1   
    12    5   14 1   
    13    6    7 1   
    14    6   15 1   
    15    6   16 1   
    16    7    8 1   
    17    7   17 1   
    18    7   18 1   
    19    8    9 1   
    20    8   19 1   
    21    8   20 1   
    22    9   21 1   
    23    9   22 1   
@<TRIPOS>SUBSTRUCTURE
     1 WM2         1 TEMP              0 ****  ****    0 ROOT
