@<TRIPOS>MOLECULE
WM3
   21    20     1     0     0
SMALL
bcc


@<TRIPOS>ATOM
      1 OAB      -143.7340  405.9660  -60.2260 o         1 WM3     -0.389900
      2 SAD      -143.2500  404.7330  -59.9690 s4        1 WM3      1.662300
      3 OAE      -143.2560  403.7390  -60.8830 o         1 WM3     -0.389900
      4 NAC       290.9930 -805.3920  112.2420 n8        1 WM3     -0.673600
      5 NAA       292.0630 -806.1100  111.7200 nz        1 WM3     -0.609400
      6 CAG      -142.6670  404.4470  -58.5750 ca        1 WM3     -0.647500
      7 CAF      -142.6290  405.4510  -57.5620 ca        1 WM3      0.043000
      8 CAH      -142.1410  403.1660  -58.2340 ca        1 WM3      0.043000
      9 CAK      -141.6190  402.9110  -56.9800 ca        1 WM3     -0.151000
     10 CAJ      -141.5980  403.9210  -56.0070 ca        1 WM3      0.054000
     11 CAI      -142.1070  405.1920  -56.3090 ca        1 WM3     -0.151000
     12 H1        290.5710 -804.8010  111.5330 hn        1 WM3      0.429800
     13 H2        292.7700 -805.4270  111.3880 hn        1 WM3      0.474800
     14 H3        291.8340 -806.7560  110.9460 hn        1 WM3      0.474800
     15 H4       -143.0290  406.4580  -57.7930 ha        1 WM3      0.180000
     16 H5       -142.1540  402.3630  -58.9970 ha        1 WM3      0.180000
     17 H6       -141.2180  401.9090  -56.7410 ha        1 WM3      0.190000
     18 H7       -141.1810  403.7150  -55.0040 ha        1 WM3      0.186000
     19 H8       -142.0890  405.9880  -55.5420 ha        1 WM3      0.190000
     20 HAC2      290.2920 -806.0150  112.6300 hn        1 WM3      0.429800
     21 HAA3      292.4880 -806.6530  112.4960 hn        1 WM3      0.474800
@<TRIPOS>BOND
     1    1    2 1   
     2    2    3 1   
     3    2    6 1   
     4    4    5 1   
     5    4   12 1   
     6    4   20 1   
     7    5   13 1   
     8    5   14 1   
     9    5   21 1   
    10    6    7 ar  
    11    6    8 ar  
    12    7   11 ar  
    13    7   15 1   
    14    8    9 ar  
    15    8   16 1   
    16    9   10 ar  
    17    9   17 1   
    18   10   11 ar  
    19   10   18 1   
    20   11   19 1   
@<TRIPOS>SUBSTRUCTURE
     1 WM3         1 TEMP              0 ****  ****    0 ROOT
