@<TRIPOS>MOLECULE
WM3
   21    20     1     0     0
SMALL
bcc


@<TRIPOS>ATOM
      1 OAB      -125.4550  477.4510  -14.8280 o         1 WM3     -0.389400
      2 SAD      -124.2270  477.6280  -15.3600 s4        1 WM3      1.662300
      3 OAE      -124.0120  478.3390  -16.4870 o         1 WM3     -0.389400
      4 NAC       252.1360 -950.4130   24.1730 n3        1 WM3     -0.673600
      5 NAA       251.3070 -950.5840   25.2760 n4        1 WM3     -0.609400
      6 CAG      -123.0190  476.9930  -14.6500 ca        1 WM3     -0.647500
      7 CAF      -123.1740  476.2280  -13.4560 ca        1 WM3      0.043000
      8 CAH      -121.6940  477.1400  -15.1550 ca        1 WM3      0.043000
      9 CAK      -120.6100  476.5690  -14.5150 ca        1 WM3     -0.151000
     10 CAJ      -120.7980  475.8230  -13.3430 ca        1 WM3      0.054000
     11 CAI      -122.0880  475.6580  -12.8190 ca        1 WM3     -0.151000
     12 H1        251.6520 -949.9230   23.4270 hn        1 WM3      0.429800
     13 H2        250.4500 -951.1380   25.1100 hn        1 WM3      0.474800
     14 H3        251.0360 -949.6420   25.6160 hn        1 WM3      0.474800
     15 H4       -124.1910  476.0930  -13.0350 ha        1 WM3      0.180000
     16 H5       -121.5370  477.7280  -16.0820 ha        1 WM3      0.180000
     17 H6       -119.5930  476.6980  -14.9280 ha        1 WM3      0.190000
     18 H7       -119.9300  475.3660  -12.8320 ha        1 WM3      0.186000
     19 H8       -122.2350  475.0700  -11.8950 ha        1 WM3      0.190000
     20 HAC2      252.4760 -951.3070   23.8320 hn        1 WM3      0.429800
     21 HAA3      251.8630 -951.0420   26.0220 hn        1 WM3      0.474800
@<TRIPOS>BOND
     1    1    2 1   
     2    2    3 1   
     3    2    6 1   
     4    4    5 1   
     5    4   12 1   
     6    4   20 1   
     7    5   13 1   
     8    5   14 1   
     9    5   21 1   
    10    6    7 ar  
    11    6    8 ar  
    12    7   11 ar  
    13    7   15 1   
    14    8    9 ar  
    15    8   16 1   
    16    9   10 ar  
    17    9   17 1   
    18   10   11 ar  
    19   10   18 1   
    20   11   19 1   
@<TRIPOS>SUBSTRUCTURE
     1 WM3         1 TEMP              0 ****  ****    0 ROOT
