@<TRIPOS>MOLECULE
WM4
   20    19     1     0     0
SMALL
bcc


@<TRIPOS>ATOM
      1 CAE       460.2180  -20.1140 -274.7020 ca        1 WM4     -0.003000
      2 CAH       459.0030  -20.1740 -274.0360 ca        1 WM4     -0.138000
      3 CAI       457.8180  -19.8090 -274.6880 ca        1 WM4      0.017000
      4 CAJ       457.8440  -19.3800 -276.0210 ca        1 WM4     -0.138000
      5 CAG       459.0440  -19.3100 -276.7130 ca        1 WM4     -0.003000
      6 CAF       460.2450  -19.6790 -276.0520 ca        1 WM4     -0.200000
      7 CAB       461.4520  -19.6120 -276.7300 c1        1 WM4      0.469000
      8 OAA       462.4620  -19.5560 -277.2980 o         1 WM4      0.081000
      9 NAC      -855.1770   36.7230  516.6700 n8        1 WM4     -0.264000
     10 NAD      -856.3430   36.5230  515.9400 nz        1 WM4      0.005000
     11 H1        461.1510  -20.4020 -274.1870 ha        1 WM4      0.175000
     12 H2        458.9710  -20.5120 -272.9840 ha        1 WM4      0.190000
     13 H3        456.8550  -19.8610 -274.1460 ha        1 WM4      0.186000
     14 H4        456.9040  -19.0950 -276.5270 ha        1 WM4      0.190000
     15 H5        459.0650  -18.9720 -277.7630 ha        1 WM4      0.175000
     16 H6       -855.1530   36.1230  517.4890 hn        1 WM4      0.225000
     17 H7       -856.2900   37.1180  515.0910 hn        1 WM4      0.270000
     18 H8       -856.3570   35.5330  515.6310 hn        1 WM4      0.270000
     19 HAC2     -855.0870   37.6940  516.9530 hn        1 WM4      0.225000
     20 HAD3     -857.2250   36.7300  516.4390 hn        1 WM4      0.270000
@<TRIPOS>BOND
     1    1    2 1   
     2    1    6 1   
     3    1   11 1   
     4    2    3 1   
     5    2   12 1   
     6    3    4 1   
     7    3   13 1   
     8    4    5 1   
     9    4   14 1   
    10    5    6 1   
    11    5   15 1   
    12    6    7 1   
    13    7    8 1   
    14    9   10 1   
    15    9   16 1   
    16    9   19 1   
    17   10   17 1   
    18   10   18 1   
    19   10   20 1   
@<TRIPOS>SUBSTRUCTURE
     1 WM4         1 TEMP              0 ****  ****    0 ROOT
