@<TRIPOS>MOLECULE
WM4
   20    19     1     0     0
SMALL
bcc


@<TRIPOS>ATOM
      1 CAE       623.2710   -3.9870 -384.3890 ca        1 WM4     -0.003000
      2 CAH       622.2410   -3.5600 -383.5660 ca        1 WM4     -0.138000
      3 CAI       621.0060   -3.1850 -384.1110 ca        1 WM4      0.017000
      4 CAJ       620.7960   -3.2370 -385.4950 ca        1 WM4     -0.138000
      5 CAG       621.8080   -3.6600 -386.3440 ca        1 WM4     -0.003000
      6 CAF       623.0590   -4.0400 -385.7920 ca        1 WM4     -0.200000
      7 CAB       624.0790   -4.4660 -386.6270 c1        1 WM4      0.469000
      8 OAA       624.9340   -4.8230 -387.3250 o         1 WM4      0.081000
      9 NAC     -1157.8610    7.0920  719.4880 n3        1 WM4     -0.264000
     10 NAD     -1159.0300    6.5960  720.0550 n4        1 WM4      0.005000
     11 H1        624.2440   -4.2820 -383.9590 ha        1 WM4      0.175000
     12 H2        622.3970   -3.5150 -382.4730 ha        1 WM4      0.190000
     13 H3        620.1910   -2.8460 -383.4440 ha        1 WM4      0.186000
     14 H4        619.8190   -2.9390 -385.9160 ha        1 WM4      0.190000
     15 H5        621.6420   -3.7010 -387.4340 ha        1 WM4      0.175000
     16 H6      -1157.1650    7.2870  720.2020 hn        1 WM4      0.225000
     17 H7      -1158.7940    5.7110  720.5430 hn        1 WM4      0.270000
     18 H8      -1159.5080    7.2270  720.7200 hn        1 WM4      0.270000
     19 HAC2    -1158.0460    7.9330  718.9510 hn        1 WM4      0.225000
     20 HAD3    -1159.6830    6.3660  719.2820 hn        1 WM4      0.270000
@<TRIPOS>BOND
     1    1    2 1   
     2    1    6 1   
     3    1   11 1   
     4    2    3 1   
     5    2   12 1   
     6    3    4 1   
     7    3   13 1   
     8    4    5 1   
     9    4   14 1   
    10    5    6 1   
    11    5   15 1   
    12    6    7 1   
    13    7    8 1   
    14    9   10 1   
    15    9   16 1   
    16    9   19 1   
    17   10   17 1   
    18   10   18 1   
    19   10   20 1   
@<TRIPOS>SUBSTRUCTURE
     1 WM4         1 TEMP              0 ****  ****    0 ROOT
