@<TRIPOS>MOLECULE
WM9
   38    35     1     0     0
SMALL
bcc


@<TRIPOS>ATOM
      1 C1         -1.4040   -2.4250    0.1650 c3        1 WM9     -0.220000
      2 C2         -0.0160   -1.9480   -0.2820 c3        1 WM9      0.190000
      3 N3          0.5100   -2.5750   -1.3440 n2        1 WM9     -0.277000
      4 C4          1.7080   -3.5990   -1.0270 c1        1 WM9      0.094000
      5 C5          2.4780   -3.2910    0.0600 c2        1 WM9     -0.203000
      6 C6          1.6350   -2.5590    1.1950 c3        1 WM9     -0.018000
      7 O7          1.0290   -1.6820    0.8610 os        1 WM9     -0.295000
      8 N8          2.2380   -4.4300   -2.0680 n3        1 WM9     -0.329000
      9 C9         -0.2820   -0.6620   -0.7710 c2        1 WM9     -0.065000
     10 C10        -0.4800   -0.4610   -2.1360 c1        1 WM9     -0.098000
     11 C11        -0.7800    0.8120   -2.6160 c1        1 WM9     -0.127500
     12 C12        -0.8830    1.8840   -1.7310 c1        1 WM9     -0.127500
     13 C13        -0.6850    1.6850   -0.3650 c1        1 WM9     -0.055000
     14 C14        -0.3850    0.4170    0.1170 c2        1 WM9     -0.090000
     15 C15        -0.8140    2.8620    0.6050 c2        1 WM9     -0.020000
     16 C16         0.2850    3.6050    0.9300 c2        1 WM9     -0.120000
     17 C17         0.1600    4.6900    1.7670 c1        1 WM9     -0.123000
     18 C18        -1.0640    5.0230    2.2740 c1        1 WM9     -0.126000
     19 C19        -2.1670    4.2800    1.9490 c1        1 WM9     -0.061000
     20 C20        -2.0440    3.2000    1.1150 c1        1 WM9     -0.117000
     21 CL         -3.7110    4.6870    2.6150 cl        1 WM9     -0.021000
     22 H11C       -1.6900   -1.9120    0.9540 hc        1 WM9      0.089667
     23 H12C       -2.0450   -2.2880   -0.5640 hc        1 WM9      0.089667
     24 H13C       -1.3670   -3.3630    0.3870 hc        1 WM9      0.089667
     25 H51C        3.3210   -2.7920   -0.1620 ha        1 WM9      0.111000
     26 H52C        2.8530   -4.1220    0.4130 ha        1 WM9      0.111000
     27 H81N        1.7370   -4.6420   -2.7640 hn        1 WM9      0.194000
     28 H82N        3.1220   -4.7530   -2.0080 hn        1 WM9      0.194000
     29 H61C        2.2560   -2.2560    1.8870 h1        1 WM9      0.093500
     30 H62C        1.0320   -3.2110    1.5900 h1        1 WM9      0.093500
     31 H10        -0.4050   -1.2460   -2.7830 ha        1 WM9      0.147000
     32 H14        -0.2420    0.2730    1.1110 ha        1 WM9      0.154000
     33 H11        -0.9260    0.9620   -3.6180 ha        1 WM9      0.133500
     34 H12        -1.0970    2.7920   -2.0750 ha        1 WM9      0.133500
     35 H16         1.1620    3.3660    0.5660 ha        1 WM9      0.141000
     36 H20        -2.8330    2.6680    0.8830 ha        1 WM9      0.150000
     37 H17         0.9450    5.2200    1.9990 ha        1 WM9      0.136000
     38 H18        -1.1530    5.7950    2.8700 ha        1 WM9      0.146000
@<TRIPOS>BOND
     1    1    2 1   
     2    1   22 1   
     3    1   23 1   
     4    1   24 1   
     5    2    3 1   
     6    2    7 1   
     7    2    9 1   
     8    3    4 1   
     9    4    8 1   
    10    5    6 1   
    11    5   25 1   
    12    5   26 1   
    13    6    7 1   
    14    6   29 1   
    15    6   30 1   
    16    8   27 1   
    17    8   28 1   
    18    9   10 1   
    19    9   14 1   
    20   10   31 1   
    21   11   12 1   
    22   11   33 1   
    23   12   34 1   
    24   13   14 1   
    25   13   15 1   
    26   14   32 1   
    27   15   16 1   
    28   15   20 1   
    29   16   17 1   
    30   16   35 1   
    31   17   37 1   
    32   18   19 1   
    33   18   38 1   
    34   19   21 1   
    35   20   36 1   
@<TRIPOS>SUBSTRUCTURE
     1 WM9         1 TEMP              0 ****  ****    0 ROOT
