@<TRIPOS>MOLECULE
WM9
   39    41     1     0     0
SMALL
bcc


@<TRIPOS>ATOM
      1 C1          1.5160    0.4200    0.2270 c3        1 WM9     -0.108100
      2 C2          0.0160    0.0850    0.1350 c3        1 WM9      0.396300
      3 N3         -0.5550   -0.1200    1.4850 n2        1 WM9     -0.540900
      4 C4         -0.8850   -1.3000    1.8710 c2        1 WM9      0.475200
      5 C5         -0.7490   -2.5890    1.0990 c3        1 WM9     -0.194700
      6 C6          0.1660   -2.3160   -0.0980 c3        1 WM9      0.124400
      7 O7         -0.1550   -1.0790   -0.7100 os        1 WM9     -0.402600
      8 N8         -1.4900   -1.4470    3.2320 n4        1 WM9     -0.810600
      9 C9         -0.7270    1.2240   -0.5450 ca        1 WM9     -0.114300
     10 C10        -1.3620    1.0340   -1.7750 ca        1 WM9     -0.089000
     11 C11        -2.0030    2.1100   -2.3910 ca        1 WM9     -0.127000
     12 C12        -2.0210    3.3630   -1.7840 ca        1 WM9     -0.090000
     13 C13        -1.3910    3.5580   -0.5460 cp        1 WM9     -0.030000
     14 C14        -0.7420    2.4800    0.0700 ca        1 WM9     -0.099000
     15 C15        -1.4080    4.8700    0.0980 cp        1 WM9     -0.045000
     16 C16        -1.2210    6.0360   -0.6580 ca        1 WM9     -0.112000
     17 C17        -1.2360    7.2840   -0.0380 ca        1 WM9     -0.114000
     18 C18        -1.4390    7.3900    1.3380 ca        1 WM9     -0.108000
     19 C19        -1.6270    6.2270    2.0910 ca        1 WM9      0.017400
     20 C20        -1.6120    4.9700    1.4810 ca        1 WM9     -0.120000
     21 CL         -1.8780    6.3370    3.7690 cl        1 WM9     -0.087400
     22 H11C        1.6670    1.3860    0.7660 hc        1 WM9      0.072367
     23 H12C        2.0860   -0.3870    0.7450 hc        1 WM9      0.072367
     24 H13C        1.9000    0.5220   -0.8180 hc        1 WM9      0.072367
     25 H51C       -0.3090   -3.4080    1.7250 hc        1 WM9      0.093700
     26 H52C       -1.7610   -2.9160    0.7400 hc        1 WM9      0.093700
     27 H81N       -0.9000   -2.0740    3.7880 hn        1 WM9      0.469467
     28 H82N       -1.5720   -0.5410    3.7130 hn        1 WM9      0.469467
     29 H61C        1.2420   -2.3340    0.2190 h1        1 WM9      0.088200
     30 H62C       -0.0080   -3.0750   -0.9090 h1        1 WM9      0.088200
     31 H10        -1.3510    0.0490   -2.2670 ha        1 WM9      0.156000
     32 H14        -0.2360    2.6360    1.0360 ha        1 WM9      0.142000
     33 H11        -2.4980    1.9640   -3.3640 ha        1 WM9      0.151000
     34 H12        -2.5340    4.2060   -2.2740 ha        1 WM9      0.153000
     35 H16        -1.0540    5.9650   -1.7430 ha        1 WM9      0.143000
     36 H20        -1.7710    4.0620    2.0800 ha        1 WM9      0.136000
     37 H17        -1.0860    8.1960   -0.6370 ha        1 WM9      0.150000
     38 H18        -1.4520    8.3780    1.8240 ha        1 WM9      0.158000
     39 H83        -2.4230   -1.8580    3.1260 hn        1 WM9      0.469467
@<TRIPOS>BOND
     1    1    2 1   
     2    1   22 1   
     3    1   23 1   
     4    1   24 1   
     5    2    3 1   
     6    2    7 1   
     7    2    9 1   
     8    3    4 2   
     9    4    5 1   
    10    4    8 1   
    11    5    6 1   
    12    5   25 1   
    13    5   26 1   
    14    6    7 1   
    15    6   29 1   
    16    6   30 1   
    17    8   27 1   
    18    8   28 1   
    19    8   39 1   
    20    9   10 ar  
    21    9   14 ar  
    22   10   11 ar  
    23   10   31 1   
    24   11   12 ar  
    25   11   33 1   
    26   12   13 ar  
    27   12   34 1   
    28   13   14 ar  
    29   13   15 1   
    30   14   32 1   
    31   15   16 ar  
    32   15   20 ar  
    33   16   17 ar  
    34   16   35 1   
    35   17   18 ar  
    36   17   37 1   
    37   18   19 ar  
    38   18   38 1   
    39   19   20 ar  
    40   19   21 1   
    41   20   36 1   
@<TRIPOS>SUBSTRUCTURE
     1 WM9         1 TEMP              0 ****  ****    0 ROOT
