@<TRIPOS>MOLECULE
WM9
   39    41     1     0     0
SMALL
bcc


@<TRIPOS>ATOM
      1 C1          1.5170    0.4090    0.2620 c3        1 WM9     -0.108100
      2 C2          0.0170    0.0800    0.1470 c3        1 WM9      0.396300
      3 N3         -0.5760   -0.1250    1.4870 n2        1 WM9     -0.540900
      4 C4         -0.9160   -1.3040    1.8670 c2        1 WM9      0.475200
      5 C5         -0.7730   -2.5930    1.0950 c3        1 WM9     -0.194700
      6 C6          0.1610   -2.3210   -0.0880 c3        1 WM9      0.124400
      7 O7         -0.1470   -1.0820   -0.7030 os        1 WM9     -0.402600
      8 N8         -1.5410   -1.4510    3.2180 n4        1 WM9     -0.810600
      9 C9         -0.7120    1.2230   -0.5430 ca        1 WM9     -0.114300
     10 C10        -1.3300    1.0370   -1.7820 ca        1 WM9     -0.089000
     11 C11        -1.9580    2.1160   -2.4050 ca        1 WM9     -0.127000
     12 C12        -1.9800    3.3690   -1.7970 ca        1 WM9     -0.090000
     13 C13        -1.3670    3.5590   -0.5490 cp        1 WM9     -0.030000
     14 C14        -0.7310    2.4780    0.0740 ca        1 WM9     -0.099000
     15 C15        -1.3890    4.8710    0.0960 cp        1 WM9     -0.045000
     16 C16        -1.1870    6.0370   -0.6550 ca        1 WM9     -0.112000
     17 C17        -1.2070    7.2840   -0.0340 ca        1 WM9     -0.114000
     18 C18        -1.4290    7.3880    1.3390 ca        1 WM9     -0.108000
     19 C19        -1.6320    6.2250    2.0880 ca        1 WM9      0.017400
     20 C20        -1.6120    4.9690    1.4760 ca        1 WM9     -0.120000
     21 CL         -1.9060    6.3330    3.7620 cl        1 WM9     -0.087400
     22 H11C        1.9160    0.5120   -0.7770 hc        1 WM9      0.072367
     23 H12C        2.0750   -0.4000    0.7860 hc        1 WM9      0.072367
     24 H13C        1.6620    1.3740    0.8040 hc        1 WM9      0.072367
     25 H51C       -1.7810   -2.9150    0.7200 hc        1 WM9      0.093700
     26 H52C       -0.3450   -3.4140    1.7260 hc        1 WM9      0.093700
     27 H81N       -1.6270   -0.5460    3.7000 hn        1 WM9      0.469467
     28 H82N       -0.9630   -2.0820    3.7820 hn        1 WM9      0.469467
     29 H61C       -0.0040   -3.0780   -0.9020 h1        1 WM9      0.088200
     30 H62C        1.2320   -2.3440    0.2450 h1        1 WM9      0.088200
     31 H10        -1.3150    0.0520   -2.2750 ha        1 WM9      0.156000
     32 H14        -0.2390    2.6310    1.0470 ha        1 WM9      0.142000
     33 H11        -2.4390    1.9730   -3.3860 ha        1 WM9      0.151000
     34 H12        -2.4830    4.2140   -2.2930 ha        1 WM9      0.153000
     35 H16        -1.0060    5.9660   -1.7380 ha        1 WM9      0.143000
     36 H20        -1.7820    4.0610    2.0720 ha        1 WM9      0.136000
     37 H17        -1.0450    8.1960   -0.6300 ha        1 WM9      0.150000
     38 H18        -1.4450    8.3760    1.8260 ha        1 WM9      0.158000
     39 H83        -2.4740   -1.8580    3.0980 hn        1 WM9      0.469467
@<TRIPOS>BOND
     1    1    2 1   
     2    1   22 1   
     3    1   23 1   
     4    1   24 1   
     5    2    3 1   
     6    2    7 1   
     7    2    9 1   
     8    3    4 2   
     9    4    5 1   
    10    4    8 1   
    11    5    6 1   
    12    5   25 1   
    13    5   26 1   
    14    6    7 1   
    15    6   29 1   
    16    6   30 1   
    17    8   27 1   
    18    8   28 1   
    19    8   39 1   
    20    9   10 ar  
    21    9   14 ar  
    22   10   11 ar  
    23   10   31 1   
    24   11   12 ar  
    25   11   33 1   
    26   12   13 ar  
    27   12   34 1   
    28   13   14 ar  
    29   13   15 1   
    30   14   32 1   
    31   15   16 ar  
    32   15   20 ar  
    33   16   17 ar  
    34   16   35 1   
    35   17   18 ar  
    36   17   37 1   
    37   18   19 ar  
    38   18   38 1   
    39   19   20 ar  
    40   19   21 1   
    41   20   36 1   
@<TRIPOS>SUBSTRUCTURE
     1 WM9         1 TEMP              0 ****  ****    0 ROOT
