@<TRIPOS>MOLECULE
WM9
   38    40     1     0     0
SMALL
bcc


@<TRIPOS>ATOM
      1 C1          2.4670   -0.0820   -2.1390 c3        1 WM9     -0.102100
      2 C2          2.5590   -0.0650   -0.5970 c3        1 WM9      0.394300
      3 N3          2.3940    1.2850   -0.0680 n2        1 WM9     -0.689900
      4 C4          3.4060    1.9270    0.4510 c2        1 WM9      0.609200
      5 C5          4.7960    1.3290    0.6180 c3        1 WM9     -0.199700
      6 C6          4.9450    0.1340   -0.3070 c3        1 WM9      0.132400
      7 O7          3.8130   -0.7160   -0.2390 os        1 WM9     -0.438600
      8 N8          3.2840    3.2720    0.8460 nh        1 WM9     -0.890800
      9 C9          1.4620   -0.9720   -0.0440 ca        1 WM9     -0.071300
     10 C10         1.7670   -2.1830    0.5830 ca        1 WM9     -0.097000
     11 C11         0.7380   -3.0000    1.0530 ca        1 WM9     -0.142000
     12 C12        -0.5920   -2.6160    0.9050 ca        1 WM9     -0.113000
     13 C13        -0.9060   -1.4000    0.2820 cp        1 WM9     -0.055000
     14 C14         0.1280   -0.5810   -0.1910 ca        1 WM9     -0.090000
     15 C15        -2.3010   -0.9880    0.1280 cp        1 WM9     -0.021000
     16 C16        -3.2840   -1.9230   -0.2250 ca        1 WM9     -0.122000
     17 C17        -4.6120   -1.5280   -0.3700 ca        1 WM9     -0.123000
     18 C18        -4.9820   -0.2000   -0.1660 ca        1 WM9     -0.126000
     19 C19        -4.0020    0.7330    0.1860 ca        1 WM9      0.017400
     20 C20        -2.6670    0.3500    0.3340 ca        1 WM9     -0.116000
     21 CL         -4.4400    2.3580    0.4410 cl        1 WM9     -0.099400
     22 H11C        3.2490    0.5740   -2.5890 hc        1 WM9      0.050367
     23 H12C        2.6260   -1.1290   -2.4890 hc        1 WM9      0.050367
     24 H13C        1.4610    0.2710   -2.4650 hc        1 WM9      0.050367
     25 H51C        5.5910    2.0830    0.3850 hc        1 WM9      0.071700
     26 H52C        4.9170    1.0080    1.6860 hc        1 WM9      0.071700
     27 H81N        2.3550    3.6320    0.8850 hn        1 WM9      0.399800
     28 H82N        3.8290    3.4940    1.6500 hn        1 WM9      0.399800
     29 H61C        5.1080    0.4740   -1.3650 h1        1 WM9      0.054200
     30 H62C        5.8000   -0.5200    0.0130 h1        1 WM9      0.054200
     31 H10         2.8160   -2.4950    0.7070 ha        1 WM9      0.152000
     32 H14        -0.1160    0.3740   -0.6830 ha        1 WM9      0.150000
     33 H11         0.9810   -3.9530    1.5460 ha        1 WM9      0.132000
     34 H12        -1.3980   -3.2610    1.2840 ha        1 WM9      0.133000
     35 H16        -3.0010   -2.9730   -0.3940 ha        1 WM9      0.139000
     36 H20        -1.9020    1.0910    0.6160 ha        1 WM9      0.154000
     37 H17        -5.3770   -2.2680   -0.6500 ha        1 WM9      0.136000
     38 H18        -6.0310    0.1100   -0.2810 ha        1 WM9      0.146000
@<TRIPOS>BOND
     1    1    2 1   
     2    1   22 1   
     3    1   23 1   
     4    1   24 1   
     5    2    3 1   
     6    2    7 1   
     7    2    9 1   
     8    3    4 2   
     9    4    5 1   
    10    4    8 1   
    11    5    6 1   
    12    5   25 1   
    13    5   26 1   
    14    6    7 1   
    15    6   29 1   
    16    6   30 1   
    17    8   27 1   
    18    8   28 1   
    19    9   10 ar  
    20    9   14 ar  
    21   10   11 ar  
    22   10   31 1   
    23   11   12 ar  
    24   11   33 1   
    25   12   13 ar  
    26   12   34 1   
    27   13   14 ar  
    28   13   15 1   
    29   14   32 1   
    30   15   16 ar  
    31   15   20 ar  
    32   16   17 ar  
    33   16   35 1   
    34   17   18 ar  
    35   17   37 1   
    36   18   19 ar  
    37   18   38 1   
    38   19   20 ar  
    39   19   21 1   
    40   20   36 1   
@<TRIPOS>SUBSTRUCTURE
     1 WM9         1 TEMP              0 ****  ****    0 ROOT
