@<TRIPOS>MOLECULE
WM9
   39    41     1     0     0
SMALL
bcc


@<TRIPOS>ATOM
      1 C1          1.5180    0.4200    0.2510 c3        1 WM9     -0.108100
      2 C2          0.0190    0.0850    0.1400 c3        1 WM9      0.396300
      3 N3         -0.5690   -0.1240    1.4820 n2        1 WM9     -0.540900
      4 C4         -0.9040   -1.3060    1.8600 c2        1 WM9      0.475200
      5 C5         -0.7580   -2.5920    1.0850 c3        1 WM9     -0.194700
      6 C6          0.1710   -2.3140   -0.1000 c3        1 WM9      0.124400
      7 O7         -0.1430   -1.0750   -0.7120 os        1 WM9     -0.402600
      8 N8         -1.5250   -1.4570    3.2120 nz        1 WM9     -0.810600
      9 C9         -0.7160    1.2270   -0.5450 ca        1 WM9     -0.114300
     10 C10        -1.3370    1.0420   -1.7840 ca        1 WM9     -0.089000
     11 C11        -1.9710    2.1190   -2.4030 ca        1 WM9     -0.127000
     12 C12        -1.9950    3.3710   -1.7920 ca        1 WM9     -0.090000
     13 C13        -1.3790    3.5610   -0.5460 cp        1 WM9     -0.030000
     14 C14        -0.7380    2.4810    0.0740 ca        1 WM9     -0.099000
     15 C15        -1.4040    4.8720    0.1030 cp        1 WM9     -0.045000
     16 C16        -1.2080    6.0400   -0.6470 ca        1 WM9     -0.112000
     17 C17        -1.2300    7.2860   -0.0230 ca        1 WM9     -0.114000
     18 C18        -1.4490    7.3860    1.3500 ca        1 WM9     -0.108000
     19 C19        -1.6460    6.2210    2.0980 ca        1 WM9      0.017400
     20 C20        -1.6240    4.9670    1.4830 ca        1 WM9     -0.120000
     21 Cl         -1.9150    6.3250    3.7730 cl        1 WM9     -0.087400
     22 H11C        1.6620    1.3840    0.7950 hc        1 WM9      0.072367
     23 H12C        2.0810   -0.3890    0.7720 hc        1 WM9      0.072367
     24 H13C        1.9140    0.5260   -0.7890 hc        1 WM9      0.072367
     25 H51C       -1.7660   -2.9170    0.7120 hc        1 WM9      0.093700
     26 H52C       -0.3260   -3.4130    1.7130 hc        1 WM9      0.093700
     27 H81N       -2.4570   -1.8670    3.0940 hn        1 WM9      0.469467
     28 H82N       -1.6120   -0.5530    3.6960 hn        1 WM9      0.469467
     29 H61C        1.2430   -2.3340    0.2300 h1        1 WM9      0.088200
     30 H62C        0.0070   -3.0710   -0.9160 h1        1 WM9      0.088200
     31 H10        -1.3190    0.0580   -2.2790 ha        1 WM9      0.156000
     32 H14        -0.2440    2.6340    1.0460 ha        1 WM9      0.142000
     33 H11        -2.4540    1.9770   -3.3820 ha        1 WM9      0.151000
     34 H12        -2.5030    4.2160   -2.2850 ha        1 WM9      0.153000
     35 H16        -1.0300    5.9720   -1.7310 ha        1 WM9      0.143000
     36 H20        -1.7890    4.0560    2.0780 ha        1 WM9      0.136000
     37 H17        -1.0740    8.1990   -0.6180 ha        1 WM9      0.150000
     38 H18        -1.4670    8.3730    1.8390 ha        1 WM9      0.158000
     39 H83        -0.9420   -2.0860    3.7730 hn        1 WM9      0.469467
@<TRIPOS>BOND
     1    1    2 1   
     2    1   22 1   
     3    1   23 1   
     4    1   24 1   
     5    2    3 1   
     6    2    7 1   
     7    2    9 1   
     8    3    4 2   
     9    4    5 1   
    10    4    8 1   
    11    5    6 1   
    12    5   25 1   
    13    5   26 1   
    14    6    7 1   
    15    6   29 1   
    16    6   30 1   
    17    8   27 1   
    18    8   28 1   
    19    8   39 1   
    20    9   10 ar  
    21    9   14 ar  
    22   10   11 ar  
    23   10   31 1   
    24   11   12 ar  
    25   11   33 1   
    26   12   13 ar  
    27   12   34 1   
    28   13   14 ar  
    29   13   15 1   
    30   14   32 1   
    31   15   16 ar  
    32   15   20 ar  
    33   16   17 ar  
    34   16   35 1   
    35   17   18 ar  
    36   17   37 1   
    37   18   19 ar  
    38   18   38 1   
    39   19   20 ar  
    40   19   21 1   
    41   20   36 1   
@<TRIPOS>SUBSTRUCTURE
     1 WM9         1 TEMP              0 ****  ****    0 ROOT
