@<TRIPOS>MOLECULE
WMJ
   48    50     1     0     0
SMALL
bcc


@<TRIPOS>ATOM
      1 OAD         4.9600    0.5450    2.6670 o         1 WMJ     -0.646500
      2 CAX         4.7800    0.9580    1.5000 c         1 WMJ      0.810500
      3 NAQ         5.2090    2.2380    1.1260 n         1 WMJ     -0.584500
      4 CAW         5.0280    2.7650   -0.1660 c         1 WMJ      0.715700
      5 OAC         5.4310    3.9160   -0.3990 o         1 WMJ     -0.604500
      6 CAT         4.3590    1.8830   -1.1410 cc        1 WMJ     -0.247400
      7 CAA         4.1660    2.4120   -2.5060 c3        1 WMJ     -0.032900
      8 CAL         3.9500    0.6420   -0.7620 cd        1 WMJ      0.028600
      9 NBC         4.1730    0.1330    0.5120 n         1 WMJ     -0.388000
     10 CBA         3.5770   -1.1290    0.9320 c3        1 WMJ      0.306500
     11 OAR         2.1430   -1.0250    0.9780 os        1 WMJ     -0.432600
     12 CAN         3.9030   -2.3160   -0.0010 c3        1 WMJ     -0.150400
     13 CAY         2.6230   -2.5670   -0.8070 c3        1 WMJ      0.116100
     14 OAE         2.7550   -2.1110   -2.1430 oh        1 WMJ     -0.596800
     15 CAZ         1.5420   -1.6870   -0.1440 c3        1 WMJ      0.092100
     16 CAM         0.3720   -2.5380    0.3800 c3        1 WMJ      0.075000
     17 NAO        -0.6270   -1.8080    1.1150 n         1 WMJ     -0.522900
     18 CAS        -1.7340   -1.2890    0.4040 c         1 WMJ      0.757100
     19 OAB        -2.0100   -1.7140   -0.7400 o         1 WMJ     -0.613100
     20 NAP        -2.5310   -0.3270    1.0600 n         1 WMJ     -0.468100
     21 CAU        -3.7680    0.1460    0.6110 ca        1 WMJ      0.126600
     22 CAI        -4.5940    0.8370    1.5380 ca        1 WMJ     -0.187500
     23 CAK        -5.8110    1.3710    1.1470 ca        1 WMJ     -0.037500
     24 CAH        -4.2180    0.0130   -0.7230 ca        1 WMJ     -0.187500
     25 CAJ        -5.4390    0.5450   -1.1130 ca        1 WMJ     -0.037500
     26 CAV        -6.2400    1.2250   -0.1820 ca        1 WMJ     -0.214200
     27 NBB        -7.5430    1.7930   -0.6010 no        1 WMJ      0.319200
     28 OAG        -8.2160    2.3710    0.2120 o         1 WMJ     -0.214000
     29 OAF        -7.8970    1.6620   -1.7430 o         1 WMJ     -0.214000
     30 HAQ         5.6470    2.7930    1.8300 hn        1 WMJ      0.353500
     31 HAA1        5.1590    2.5520   -3.0050 hc        1 WMJ      0.053033
     32 HAA2        3.5460    1.7190   -3.1250 hc        1 WMJ      0.053033
     33 HAA3        3.6630    3.4100   -2.4610 hc        1 WMJ      0.053033
     34 HAL         3.4250   -0.0470   -1.4580 h4        1 WMJ      0.185000
     35 HBA         3.8910   -1.3230    2.0030 h2        1 WMJ      0.132700
     36 HAN1        4.7700   -2.1100   -0.6740 hc        1 WMJ      0.080700
     37 HAN2        4.1500   -3.2050    0.6300 hc        1 WMJ      0.080700
     38 HAZ         1.1820   -0.8980   -0.8600 h1        1 WMJ      0.090700
     39 HAY         2.3370   -3.6520   -0.7950 h1        1 WMJ      0.061700
     40 HAE         3.3100   -2.7490   -2.6080 ho        1 WMJ      0.415000
     41 HAM1       -0.1060   -3.0500   -0.5040 h1        1 WMJ      0.083200
     42 HAM2        0.7790   -3.3180    1.0860 h1        1 WMJ      0.083200
     43 HAO        -0.2500   -1.2480    1.8520 hn        1 WMJ      0.306500
     44 HAP        -2.3250   -0.1250    2.0160 hn        1 WMJ      0.321500
     45 HAI        -4.2760    0.9610    2.5860 ha        1 WMJ      0.166500
     46 HAH        -3.6080   -0.5180   -1.4740 ha        1 WMJ      0.166500
     47 HAK        -6.4420    1.9060    1.8790 ha        1 WMJ      0.172000
     48 HAJ        -5.7780    0.4320   -2.1580 ha        1 WMJ      0.172000
@<TRIPOS>BOND
     1    1    2 2   
     2    2    3 1   
     3    2    9 1   
     4    3    4 1   
     5    3   30 1   
     6    4    5 2   
     7    4    6 1   
     8    6    7 1   
     9    6    8 2   
    10    7   31 1   
    11    7   32 1   
    12    7   33 1   
    13    8    9 1   
    14    8   34 1   
    15    9   10 1   
    16   10   11 1   
    17   10   12 1   
    18   10   35 1   
    19   11   15 1   
    20   12   13 1   
    21   12   36 1   
    22   12   37 1   
    23   13   14 1   
    24   13   15 1   
    25   13   39 1   
    26   14   40 1   
    27   15   16 1   
    28   15   38 1   
    29   16   17 1   
    30   16   41 1   
    31   16   42 1   
    32   17   18 1   
    33   17   43 1   
    34   18   19 2   
    35   18   20 1   
    36   20   21 1   
    37   20   44 1   
    38   21   22 ar  
    39   21   24 ar  
    40   22   23 ar  
    41   22   45 1   
    42   23   26 ar  
    43   23   47 1   
    44   24   25 ar  
    45   24   46 1   
    46   25   26 ar  
    47   25   48 1   
    48   26   27 1   
    49   27   28 1   
    50   27   29 1   
@<TRIPOS>SUBSTRUCTURE
     1 WMJ         1 TEMP              0 ****  ****    0 ROOT
