@<TRIPOS>MOLECULE
WMJ
   49    51     1     0     0
SMALL
bcc


@<TRIPOS>ATOM
      1 OAD         2.8840    2.5390   -1.6370 o         1 WMJ     -0.642500
      2 CAX         2.8260    1.5140   -0.9240 c         1 WMJ      0.814500
      3 NAQ         3.2690    1.5190    0.3990 ns        1 WMJ     -0.578500
      4 CAW         3.2630    0.3740    1.2210 c         1 WMJ      0.708700
      5 OAC         3.6810    0.4740    2.3820 o         1 WMJ     -0.566500
      6 CAT         2.7600   -0.8720    0.6030 cc        1 WMJ     -0.206400
      7 CAA         2.7620   -2.0830    1.4460 c3        1 WMJ     -0.044900
      8 CAL         2.3180   -0.8610   -0.6820 cd        1 WMJ     -0.005400
      9 NBC         2.2810    0.3020   -1.4520 n         1 WMJ     -0.396000
     10 CBA         1.9130    0.2810   -2.8470 c3        1 WMJ      0.320500
     11 OAR         3.0190   -0.2080   -3.6590 os        1 WMJ     -0.473600
     12 CAN         0.7060   -0.6140   -3.2000 c3        1 WMJ     -0.151400
     13 CAY         1.2830   -1.8570   -3.8860 c3        1 WMJ      0.128100
     14 OAE         1.2220   -3.0030   -3.0590 oh        1 WMJ     -0.594800
     15 CAZ         2.7890   -1.5520   -4.0710 c3        1 WMJ      0.105100
     16 CAM         3.2080   -1.6470   -5.5460 c3        1 WMJ      0.102800
     17 NAO         4.6150   -1.1850   -5.7350 ny        1 WMJ     -0.665800
     18 CAS         4.9700   -1.0440   -7.2230 c         1 WMJ      0.646100
     19 OAB         5.5880   -2.0160   -7.6660 o         1 WMJ     -0.475100
     20 NAP         4.5320    0.0850   -7.8620 ns        1 WMJ     -0.418100
     21 CAU         4.8910    0.4030   -9.2030 ca        1 WMJ      0.042600
     22 CAI         4.8310    1.7600   -9.5920 ca        1 WMJ     -0.146500
     23 CAK         5.1260    2.1200  -10.9010 ca        1 WMJ     -0.040000
     24 CAH         5.2560   -0.5820  -10.1390 ca        1 WMJ     -0.146500
     25 CAJ         5.5540   -0.2160  -11.4500 ca        1 WMJ     -0.040000
     26 CAV         5.4870    1.1310  -11.8290 ca        1 WMJ     -0.164200
     27 NBB         5.8030    1.5200  -13.2360 no        1 WMJ      0.315200
     28 OAG         5.7380    2.6800  -13.5340 o         1 WMJ     -0.178500
     29 OAF         6.1090    0.6580  -14.0110 o         1 WMJ     -0.178500
     30 HAQ         3.5980    2.3900    0.7650 hn        1 WMJ      0.364500
     31 HAA1        2.0560   -1.9470    2.3060 hc        1 WMJ      0.062700
     32 HAA2        3.7840   -2.2510    1.8710 hc        1 WMJ      0.062700
     33 HAA3        2.4550   -2.9860    0.8660 hc        1 WMJ      0.062700
     34 HAL         1.9500   -1.7780   -1.1860 h4        1 WMJ      0.174000
     35 HBA         1.7740    1.3520   -3.1950 h2        1 WMJ      0.142700
     36 HAN1        0.1020   -0.8940   -2.3000 hc        1 WMJ      0.097200
     37 HAN2        0.0390   -0.0520   -3.9010 hc        1 WMJ      0.097200
     38 HAZ         3.4060   -2.2410   -3.4280 h1        1 WMJ      0.104700
     39 HAY         0.7730   -2.0580   -4.8660 h1        1 WMJ      0.064700
     40 HAE         0.2930   -3.2620   -2.9890 ho        1 WMJ      0.436000
     41 HAM1        3.1290   -2.7160   -5.8950 hx        1 WMJ      0.115700
     42 HAM2        2.5370   -0.9960   -6.1750 hx        1 WMJ      0.115700
     43 HAO         4.7470   -0.3020   -5.2220 hn        1 WMJ      0.476300
     44 HAP         4.1000    0.8230   -7.3440 hn        1 WMJ      0.352500
     45 HAI         4.5520    2.5510   -8.8770 ha        1 WMJ      0.167000
     46 HAH         5.3200   -1.6480   -9.8620 ha        1 WMJ      0.167000
     47 HAK         5.0790    3.1830  -11.2080 ha        1 WMJ      0.195000
     48 HAJ         5.8410   -0.9910  -12.1860 ha        1 WMJ      0.195000
     49 HAO2        5.2590   -1.8870   -5.3420 hn        1 WMJ      0.476300
@<TRIPOS>BOND
     1    1    2 2   
     2    2    3 1   
     3    2    9 1   
     4    3    4 1   
     5    3   30 1   
     6    4    5 2   
     7    4    6 1   
     8    6    7 1   
     9    6    8 2   
    10    7   31 1   
    11    7   32 1   
    12    7   33 1   
    13    8    9 1   
    14    8   34 1   
    15    9   10 1   
    16   10   11 1   
    17   10   12 1   
    18   10   35 1   
    19   11   15 1   
    20   12   13 1   
    21   12   36 1   
    22   12   37 1   
    23   13   14 1   
    24   13   15 1   
    25   13   39 1   
    26   14   40 1   
    27   15   16 1   
    28   15   38 1   
    29   16   17 1   
    30   16   41 1   
    31   16   42 1   
    32   17   18 1   
    33   17   43 1   
    34   17   49 1   
    35   18   19 2   
    36   18   20 1   
    37   20   21 1   
    38   20   44 1   
    39   21   22 ar  
    40   21   24 ar  
    41   22   23 ar  
    42   22   45 1   
    43   23   26 ar  
    44   23   47 1   
    45   24   25 ar  
    46   24   46 1   
    47   25   26 ar  
    48   25   48 1   
    49   26   27 1   
    50   27   28 1   
    51   27   29 1   
@<TRIPOS>SUBSTRUCTURE
     1 WMJ         1 TEMP              0 ****  ****    0 ROOT
