@<TRIPOS>MOLECULE
WMJ
   49    51     1     0     0
SMALL
bcc


@<TRIPOS>ATOM
      1 OAD         2.7470    2.5840   -1.7050 o         1 WMJ     -0.642500
      2 CAX         2.7160    1.5730   -0.9710 c         1 WMJ      0.814500
      3 NAQ         3.1440    1.6220    0.3570 n         1 WMJ     -0.578500
      4 CAW         3.1680    0.4960    1.2030 c         1 WMJ      0.708700
      5 OAC         3.5690    0.6350    2.3660 o         1 WMJ     -0.566500
      6 CAT         2.7160   -0.7800    0.6070 cc        1 WMJ     -0.206400
      7 CAA         2.7510   -1.9720    1.4760 c3        1 WMJ     -0.044900
      8 CAL         2.2890   -0.8130   -0.6830 cd        1 WMJ     -0.005400
      9 NBC         2.2200    0.3310   -1.4780 n         1 WMJ     -0.396000
     10 CBA         1.8690    0.2690   -2.8760 c3        1 WMJ      0.320500
     11 OAR         3.0010   -0.1990   -3.6660 os        1 WMJ     -0.473600
     12 CAN         0.6980   -0.6760   -3.2230 c3        1 WMJ     -0.151400
     13 CAY         1.3270   -1.9120   -3.8760 c3        1 WMJ      0.128100
     14 OAE         1.2960   -3.0420   -3.0250 oh        1 WMJ     -0.594800
     15 CAZ         2.8220   -1.5580   -4.0510 c3        1 WMJ      0.105100
     16 CAM         3.2610   -1.6690   -5.5200 c3        1 WMJ      0.102800
     17 NAO         4.6530   -1.1620   -5.7040 n4        1 WMJ     -0.665800
     18 CAS         5.0180   -1.0370   -7.1910 c         1 WMJ      0.646100
     19 OAB         5.6720   -1.9950   -7.6100 o         1 WMJ     -0.475100
     20 NAP         4.5490    0.0640   -7.8560 n         1 WMJ     -0.418100
     21 CAU         4.9090    0.3680   -9.1990 ca        1 WMJ      0.042600
     22 CAI         4.8090    1.7160   -9.6150 ca        1 WMJ     -0.146500
     23 CAK         5.1040    2.0610  -10.9280 ca        1 WMJ     -0.040000
     24 CAH         5.3160   -0.6200  -10.1130 ca        1 WMJ     -0.146500
     25 CAJ         5.6150   -0.2700  -11.4280 ca        1 WMJ     -0.040000
     26 CAV         5.5070    1.0670  -11.8330 ca        1 WMJ     -0.164200
     27 NBB         5.8240    1.4410  -13.2440 no        1 WMJ      0.315200
     28 OAG         5.7230    2.5910  -13.5650 o         1 WMJ     -0.178500
     29 OAF         6.1660    0.5750  -13.9990 o         1 WMJ     -0.178500
     30 HAQ         3.4380    2.5110    0.7080 hn        1 WMJ      0.364500
     31 HAA1        3.7740   -2.0960    1.9150 hc        1 WMJ      0.062700
     32 HAA2        2.0310   -1.8430    2.3250 hc        1 WMJ      0.062700
     33 HAA3        2.4820   -2.8980    0.9120 hc        1 WMJ      0.062700
     34 HAL         1.9590   -1.7520   -1.1710 h4        1 WMJ      0.174000
     35 HBA         1.6970    1.3260   -3.2490 h2        1 WMJ      0.142700
     36 HAN1        0.0940   -0.9580   -2.3240 hc        1 WMJ      0.097200
     37 HAN2        0.0200   -0.1530   -3.9420 hc        1 WMJ      0.097200
     38 HAZ         3.4560   -2.2120   -3.3880 h1        1 WMJ      0.104700
     39 HAY         0.8350   -2.1520   -4.8560 h1        1 WMJ      0.064700
     40 HAE         0.3760   -3.3320   -2.9590 ho        1 WMJ      0.436000
     41 HAM1        2.5740   -1.0550   -6.1690 hx        1 WMJ      0.115700
     42 HAM2        3.2230   -2.7470   -5.8470 hx        1 WMJ      0.115700
     43 HAO         4.7490   -0.2660   -5.2070 hn        1 WMJ      0.476300
     44 HAP         4.0870    0.7970   -7.3560 hn        1 WMJ      0.352500
     45 HAI         4.4950    2.5100   -8.9170 ha        1 WMJ      0.167000
     46 HAH         5.4140   -1.6780   -9.8150 ha        1 WMJ      0.167000
     47 HAK         5.0240    3.1150  -11.2550 ha        1 WMJ      0.195000
     48 HAJ         5.9360   -1.0480  -12.1460 ha        1 WMJ      0.195000
     49 HAO2        5.3170   -1.8330   -5.2910 hn        1 WMJ      0.476300
@<TRIPOS>BOND
     1    1    2 2   
     2    2    3 1   
     3    2    9 1   
     4    3    4 1   
     5    3   30 1   
     6    4    5 2   
     7    4    6 1   
     8    6    7 1   
     9    6    8 2   
    10    7   31 1   
    11    7   32 1   
    12    7   33 1   
    13    8    9 1   
    14    8   34 1   
    15    9   10 1   
    16   10   11 1   
    17   10   12 1   
    18   10   35 1   
    19   11   15 1   
    20   12   13 1   
    21   12   36 1   
    22   12   37 1   
    23   13   14 1   
    24   13   15 1   
    25   13   39 1   
    26   14   40 1   
    27   15   16 1   
    28   15   38 1   
    29   16   17 1   
    30   16   41 1   
    31   16   42 1   
    32   17   18 1   
    33   17   43 1   
    34   17   49 1   
    35   18   19 2   
    36   18   20 1   
    37   20   21 1   
    38   20   44 1   
    39   21   22 ar  
    40   21   24 ar  
    41   22   23 ar  
    42   22   45 1   
    43   23   26 ar  
    44   23   47 1   
    45   24   25 ar  
    46   24   46 1   
    47   25   26 ar  
    48   25   48 1   
    49   26   27 1   
    50   27   28 1   
    51   27   29 1   
@<TRIPOS>SUBSTRUCTURE
     1 WMJ         1 TEMP              0 ****  ****    0 ROOT
