@<TRIPOS>MOLECULE
WMJ
   48    50     1     0     0
SMALL
bcc


@<TRIPOS>ATOM
      1 OAD         0.8910    2.2060   -1.0370 o         1 WMJ     -0.644500
      2 CAX         1.6310    1.3070   -0.5820 c         1 WMJ      0.810500
      3 NAQ         2.3370    1.5040    0.6120 n         1 WMJ     -0.584500
      4 CAW         3.1920    0.5380    1.1720 c         1 WMJ      0.715700
      5 OAC         3.7870    0.8120    2.2270 o         1 WMJ     -0.604500
      6 CAT         3.3070   -0.7350    0.4350 cc        1 WMJ     -0.247400
      7 CAA         4.1880   -1.7690    1.0110 c3        1 WMJ     -0.032900
      8 CAL         2.6140   -0.9120   -0.7220 cd        1 WMJ      0.028600
      9 NBC         1.7500    0.0480   -1.2360 n         1 WMJ     -0.388000
     10 CBA         1.1590   -0.1050   -2.5600 c3        1 WMJ      0.306500
     11 OAR         2.1730   -0.0610   -3.5790 os        1 WMJ     -0.430600
     12 CAN         0.3960   -1.4340   -2.7540 c3        1 WMJ     -0.150400
     13 CAY         1.3080   -2.3080   -3.6210 c3        1 WMJ      0.112100
     14 OAE         1.9200   -3.3370   -2.8600 oh        1 WMJ     -0.598800
     15 CAZ         2.4460   -1.3730   -4.0910 c3        1 WMJ      0.119100
     16 CAM         2.4860   -1.2890   -5.6240 c3        1 WMJ      0.088000
     17 NAO         3.5370   -0.4180   -6.0910 n         1 WMJ     -0.545900
     18 CAS         3.8160   -0.4290   -7.4710 c         1 WMJ      0.767100
     19 OAB         3.3510   -1.3330   -8.2010 o         1 WMJ     -0.617100
     20 NAP         4.6630    0.5870   -7.9670 n         1 WMJ     -0.469100
     21 CAU         5.1870    0.6400   -9.2620 ca        1 WMJ      0.127600
     22 CAI         6.2840    1.5110   -9.5020 ca        1 WMJ     -0.188000
     23 CAK         6.8200    1.6470  -10.7720 ca        1 WMJ     -0.037000
     24 CAH         4.6540   -0.0880  -10.3510 ca        1 WMJ     -0.188000
     25 CAJ         5.1950    0.0470  -11.6230 ca        1 WMJ     -0.037000
     26 CAV         6.2770    0.9140  -11.8390 ca        1 WMJ     -0.214200
     27 NBB         6.8500    1.0580  -13.1980 no        1 WMJ      0.319200
     28 OAG         7.7780    1.8040  -13.3640 o         1 WMJ     -0.214000
     29 OAF         6.3740    0.4250  -14.1030 o         1 WMJ     -0.214000
     30 HAQ         2.2260    2.3880    1.0630 hn        1 WMJ      0.353500
     31 HAA1        5.1970   -1.3340    1.2280 hc        1 WMJ      0.053033
     32 HAA2        4.3080   -2.6340    0.3140 hc        1 WMJ      0.053033
     33 HAA3        3.7620   -2.1400    1.9780 hc        1 WMJ      0.053033
     34 HAL         2.6870   -1.8460   -1.3190 h4        1 WMJ      0.184000
     35 HBA         0.5070    0.8000   -2.7570 h2        1 WMJ      0.134700
     36 HAN1       -0.5630   -1.2170   -3.2880 hc        1 WMJ      0.081700
     37 HAN2        0.1540   -1.9380   -1.7870 hc        1 WMJ      0.081700
     38 HAZ         3.4330   -1.7100   -3.6710 h1        1 WMJ      0.092700
     39 HAY         0.7500   -2.7490   -4.4890 h1        1 WMJ      0.065700
     40 HAE         1.2420   -4.0010   -2.6850 ho        1 WMJ      0.416000
     41 HAM1        2.6700   -2.3240   -6.0350 h1        1 WMJ      0.065700
     42 HAM2        1.4810   -0.9360   -5.9970 h1        1 WMJ      0.065700
     43 HAO         3.6360    0.4320   -5.5820 hn        1 WMJ      0.314500
     44 HAP         5.1100    1.1840   -7.3050 hn        1 WMJ      0.321500
     45 HAI         6.7260    2.0940   -8.6780 ha        1 WMJ      0.166500
     46 HAH         3.8050   -0.7780  -10.2070 ha        1 WMJ      0.166500
     47 HAK         7.6730    2.3280  -10.9430 ha        1 WMJ      0.172000
     48 HAJ         4.7690   -0.5290  -12.4630 ha        1 WMJ      0.172000
@<TRIPOS>BOND
     1    1    2 2   
     2    2    3 1   
     3    2    9 1   
     4    3    4 1   
     5    3   30 1   
     6    4    5 2   
     7    4    6 1   
     8    6    7 1   
     9    6    8 2   
    10    7   31 1   
    11    7   32 1   
    12    7   33 1   
    13    8    9 1   
    14    8   34 1   
    15    9   10 1   
    16   10   11 1   
    17   10   12 1   
    18   10   35 1   
    19   11   15 1   
    20   12   13 1   
    21   12   36 1   
    22   12   37 1   
    23   13   14 1   
    24   13   15 1   
    25   13   39 1   
    26   14   40 1   
    27   15   16 1   
    28   15   38 1   
    29   16   17 1   
    30   16   41 1   
    31   16   42 1   
    32   17   18 1   
    33   17   43 1   
    34   18   19 2   
    35   18   20 1   
    36   20   21 1   
    37   20   44 1   
    38   21   22 ar  
    39   21   24 ar  
    40   22   23 ar  
    41   22   45 1   
    42   23   26 ar  
    43   23   47 1   
    44   24   25 ar  
    45   24   46 1   
    46   25   26 ar  
    47   25   48 1   
    48   26   27 1   
    49   27   28 1   
    50   27   29 1   
@<TRIPOS>SUBSTRUCTURE
     1 WMJ         1 TEMP              0 ****  ****    0 ROOT
