@<TRIPOS>MOLECULE
WMR
   42    44     1     0     0
SMALL
bcc


@<TRIPOS>ATOM
      1 C8         -0.0020    0.0020   -0.0770 ca        1 WMR     -0.335200
      2 C7          1.3980    0.0600   -0.0690 ca        1 WMR      0.046700
      3 C6          2.0320   -0.0080    1.1780 ca        1 WMR     -0.225600
      4 C5          1.2460   -0.0690    2.3810 ca        1 WMR      0.464600
      5 C12        -0.7030   -0.0780    1.1880 ca        1 WMR      0.435800
      6 C9         -1.0850   -0.0080   -1.0770 cc        1 WMR      0.538800
      7 C15         2.0940    0.1670   -1.3820 c3        1 WMR     -0.045100
      8 C18         3.5060   -0.0110    1.3210 c3        1 WMR      0.037000
      9 C16         3.5570    0.5740   -1.3560 c3        1 WMR      0.033100
     10 C19         4.2210    0.2170   -2.6710 c3        1 WMR     -0.087100
     11 C20         3.7010    2.0570   -1.0870 c3        1 WMR     -0.087100
     12 C1          3.1220   -2.9530    5.9910 c3        1 WMR     -0.093100
     13 C4          1.9350   -0.0930    3.7230 c3        1 WMR     -0.137700
     14 C2          2.9010   -1.5420    5.5110 c3        1 WMR     -0.080400
     15 C3          2.1590   -1.5180    4.1910 c3        1 WMR     -0.078400
     16 N13        -0.0990   -0.1010    2.4070 nb        1 WMR     -0.674000
     17 N10        -2.2940   -0.0870   -0.4390 nd        1 WMR     -0.578100
     18 N11        -2.0800   -0.1980    0.8830 na        1 WMR     -0.097800
     19 N14        -0.9000    0.1200   -2.4550 nh        1 WMR     -0.846800
     20 S17         4.4250   -0.3930   -0.1310 ss        1 WMR     -0.295200
     21 H151        1.5490    0.9250   -2.0140 hc        1 WMR      0.073200
     22 H152        2.0050   -0.8330   -1.8950 hc        1 WMR      0.073200
     23 H181        3.8250   -0.7950    2.0600 h1        1 WMR      0.081200
     24 H182        3.8370    0.9870    1.7140 h1        1 WMR      0.081200
     25 H41C        1.3120    0.4490    4.4870 hc        1 WMR      0.060700
     26 H42C        2.9110    0.4560    3.6600 hc        1 WMR      0.060700
     27 H11        -2.8080    0.0840    1.5030 hn        1 WMR      0.319700
     28 H141       -0.1420   -0.4480   -2.7780 hn        1 WMR      0.392300
     29 H142       -1.7320   -0.0210   -2.9910 hn        1 WMR      0.392300
     30 H191        4.2020   -0.8880   -2.8360 hc        1 WMR      0.047867
     31 H192        3.6840    0.7130   -3.5170 hc        1 WMR      0.047867
     32 H193        5.2830    0.5620   -2.6740 hc        1 WMR      0.047867
     33 H201        3.2520    2.6460   -1.9240 hc        1 WMR      0.047867
     34 H202        3.1770    2.3350   -0.1400 hc        1 WMR      0.047867
     35 H203        4.7790    2.3330   -0.9970 hc        1 WMR      0.047867
     36 H11C        3.7230   -3.5330    5.2490 hc        1 WMR      0.034700
     37 H12C        2.1460   -3.4770    6.1360 hc        1 WMR      0.034700
     38 H13C        3.6690   -2.9500    6.9640 hc        1 WMR      0.034700
     39 H21C        3.8900   -1.0250    5.3940 hc        1 WMR      0.039200
     40 H22C        2.3170   -0.9700    6.2790 hc        1 WMR      0.039200
     41 H31C        2.7410   -2.0900    3.4210 hc        1 WMR      0.051200
     42 H32C        1.1680   -2.0320    4.3060 hc        1 WMR      0.051200
@<TRIPOS>BOND
     1    1    2 ar  
     2    1    5 ar  
     3    1    6 1   
     4    2    3 ar  
     5    2    7 1   
     6    3    4 ar  
     7    3    8 1   
     8    4   13 1   
     9    4   16 ar  
    10    5   16 ar  
    11    5   18 1   
    12    6   17 2   
    13    6   19 1   
    14    7    9 1   
    15    7   21 1   
    16    7   22 1   
    17    8   20 1   
    18    8   23 1   
    19    8   24 1   
    20    9   10 1   
    21    9   11 1   
    22    9   20 1   
    23   10   30 1   
    24   10   31 1   
    25   10   32 1   
    26   11   33 1   
    27   11   34 1   
    28   11   35 1   
    29   12   14 1   
    30   12   36 1   
    31   12   37 1   
    32   12   38 1   
    33   13   15 1   
    34   13   25 1   
    35   13   26 1   
    36   14   15 1   
    37   14   39 1   
    38   14   40 1   
    39   15   41 1   
    40   15   42 1   
    41   17   18 1   
    42   18   27 1   
    43   19   28 1   
    44   19   29 1   
@<TRIPOS>SUBSTRUCTURE
     1 WMR         1 TEMP              0 ****  ****    0 ROOT
