@<TRIPOS>MOLECULE
WMR
   42    44     1     0     0
SMALL
bcc


@<TRIPOS>ATOM
      1 C8         -0.0030    0.0040   -0.0760 ca        1 WMR     -0.335200
      2 C7          1.3980    0.0610   -0.0690 ca        1 WMR      0.046700
      3 C6          2.0320   -0.0090    1.1780 ca        1 WMR     -0.225600
      4 C5          1.2470   -0.0680    2.3810 ca        1 WMR      0.464600
      5 C12        -0.7040   -0.0740    1.1890 ca        1 WMR      0.435800
      6 C9         -1.0860   -0.0040   -1.0750 cc        1 WMR      0.538800
      7 C15         2.0930    0.1660   -1.3830 c3        1 WMR     -0.045100
      8 C18         3.5060   -0.0130    1.3200 c3        1 WMR      0.037000
      9 C16         3.5570    0.5710   -1.3570 c3        1 WMR      0.033100
     10 C19         4.2190    0.2120   -2.6730 c3        1 WMR     -0.087100
     11 C20         3.7030    2.0540   -1.0880 c3        1 WMR     -0.087100
     12 C1          3.1190   -2.9540    5.9910 c3        1 WMR     -0.093100
     13 C4          1.9360   -0.0920    3.7230 c3        1 WMR     -0.137700
     14 C2          2.9010   -1.5430    5.5100 c3        1 WMR     -0.080400
     15 C3          2.1580   -1.5180    4.1910 c3        1 WMR     -0.078400
     16 N13        -0.0980   -0.0970    2.4080 nb        1 WMR     -0.674000
     17 N10        -2.2950   -0.0810   -0.4370 nd        1 WMR     -0.578100
     18 N11        -2.0800   -0.1920    0.8840 na        1 WMR     -0.097800
     19 N14        -0.9010    0.1230   -2.4530 nv        1 WMR     -0.846800
     20 S17         4.4240   -0.3970   -0.1320 ss        1 WMR     -0.295200
     21 H151        1.5480    0.9250   -2.0140 hc        1 WMR      0.073200
     22 H152        2.0020   -0.8340   -1.8950 hc        1 WMR      0.073200
     23 H181        3.8240   -0.7980    2.0590 h1        1 WMR      0.081200
     24 H182        3.8380    0.9840    1.7120 h1        1 WMR      0.081200
     25 H41C        2.9130    0.4550    3.6600 hc        1 WMR      0.060700
     26 H42C        1.3140    0.4510    4.4870 hc        1 WMR      0.060700
     27 H11        -2.8080    0.0910    1.5050 hn        1 WMR      0.319700
     28 H141       -0.1450   -0.4450   -2.7770 hn        1 WMR      0.392300
     29 H142       -1.7340   -0.0170   -2.9890 hn        1 WMR      0.392300
     30 H191        3.6830    0.7090   -3.5180 hc        1 WMR      0.047867
     31 H192        5.2820    0.5560   -2.6760 hc        1 WMR      0.047867
     32 H193        4.1990   -0.8930   -2.8370 hc        1 WMR      0.047867
     33 H201        3.2540    2.6430   -1.9250 hc        1 WMR      0.047867
     34 H202        4.7820    2.3280   -0.9990 hc        1 WMR      0.047867
     35 H203        3.1800    2.3330   -0.1410 hc        1 WMR      0.047867
     36 H11C        3.6680   -2.9520    6.9640 hc        1 WMR      0.034700
     37 H12C        3.7190   -3.5350    5.2490 hc        1 WMR      0.034700
     38 H13C        2.1430   -3.4760    6.1370 hc        1 WMR      0.034700
     39 H21C        2.3180   -0.9690    6.2790 hc        1 WMR      0.039200
     40 H22C        3.8910   -1.0270    5.3930 hc        1 WMR      0.039200
     41 H31C        2.7390   -2.0910    3.4210 hc        1 WMR      0.051200
     42 H32C        1.1660   -2.0300    4.3070 hc        1 WMR      0.051200
@<TRIPOS>BOND
     1    1    2 ar  
     2    1    5 ar  
     3    1    6 1   
     4    2    3 ar  
     5    2    7 1   
     6    3    4 ar  
     7    3    8 1   
     8    4   13 1   
     9    4   16 ar  
    10    5   16 ar  
    11    5   18 1   
    12    6   17 2   
    13    6   19 1   
    14    7    9 1   
    15    7   21 1   
    16    7   22 1   
    17    8   20 1   
    18    8   23 1   
    19    8   24 1   
    20    9   10 1   
    21    9   11 1   
    22    9   20 1   
    23   10   30 1   
    24   10   31 1   
    25   10   32 1   
    26   11   33 1   
    27   11   34 1   
    28   11   35 1   
    29   12   14 1   
    30   12   36 1   
    31   12   37 1   
    32   12   38 1   
    33   13   15 1   
    34   13   25 1   
    35   13   26 1   
    36   14   15 1   
    37   14   39 1   
    38   14   40 1   
    39   15   41 1   
    40   15   42 1   
    41   17   18 1   
    42   18   27 1   
    43   19   28 1   
    44   19   29 1   
@<TRIPOS>SUBSTRUCTURE
     1 WMR         1 TEMP              0 ****  ****    0 ROOT
