@<TRIPOS>MOLECULE
WOC
   18    17     1     0     0
SMALL
bcc


@<TRIPOS>ATOM
      1 OAG         0.7920    0.9060   -0.5420 o         1 WOC     -0.891300
      2 CAJ         1.3210   -0.1940   -0.1820 c         1 WOC      0.897600
      3 CAK         2.0830   -0.2680    1.1430 c3        1 WOC     -0.147400
      4 CAL         3.5790    0.0130    1.0390 c3        1 WOC     -0.137000
      5 OAM         1.1830   -1.2450   -0.8860 o         1 WOC     -0.891300
      6 CAN         4.2780   -0.0790    2.4230 c         1 WOC      0.908600
      7 OAO         5.5300    0.1430    2.4790 o         1 WOC     -0.879800
      8 OAP         3.6130   -0.3670    3.4620 o         1 WOC     -0.879800
      9 CAQ         4.2290   -1.0060    0.1170 c3        1 WOC     -0.060100
     10 CAR         3.8010    1.4140    0.4920 c3        1 WOC     -0.060100
     11 HAK         1.6370    0.4710    1.8570 hc        1 WOC      0.026700
     12 HAKA        1.9480   -1.2900    1.5810 hc        1 WOC      0.026700
     13 HAQ         4.1360   -2.0280    0.5580 hc        1 WOC      0.014533
     14 HAQA        5.3130   -0.7720   -0.0110 hc        1 WOC      0.014533
     15 HAQB        3.7190   -1.0040   -0.8770 hc        1 WOC      0.014533
     16 HAR         3.2730    1.5320   -0.4850 hc        1 WOC      0.014533
     17 HARA        3.3920    2.1680    1.2070 hc        1 WOC      0.014533
     18 HARB        4.8930    1.6060    0.3600 hc        1 WOC      0.014533
@<TRIPOS>BOND
     1    1    2 1   
     2    2    3 1   
     3    2    5 1   
     4    3    4 1   
     5    3   11 1   
     6    3   12 1   
     7    4    6 1   
     8    4    9 1   
     9    4   10 1   
    10    6    7 1   
    11    6    8 1   
    12    9   13 1   
    13    9   14 1   
    14    9   15 1   
    15   10   16 1   
    16   10   17 1   
    17   10   18 1   
@<TRIPOS>SUBSTRUCTURE
     1 WOC         1 TEMP              0 ****  ****    0 ROOT
