@<TRIPOS>MOLECULE
WOC
   18    17     1     0     0
SMALL
bcc


@<TRIPOS>ATOM
      1 OAG         0.7450    1.1630   -0.4460 o         1 WOC     -0.888800
      2 CAJ         1.2860    0.0560   -0.1280 c         1 WOC      0.899600
      3 CAK         2.0820   -0.0370    1.1770 c3        1 WOC     -0.151400
      4 CAL         3.6020   -0.0060    1.0220 c3        1 WOC     -0.137000
      5 OAM         1.1250   -0.9790   -0.8500 o         1 WOC     -0.888800
      6 CAN         4.2610   -0.0400    2.4280 c         1 WOC      0.908600
      7 OAO         4.9420    0.9560    2.8250 o         1 WOC     -0.879800
      8 OAP         4.1260   -1.0750    3.1510 o         1 WOC     -0.879800
      9 CAQ         4.0640   -1.2300    0.2480 c3        1 WOC     -0.061600
     10 CAR         4.0140    1.2560    0.2850 c3        1 WOC     -0.061600
     11 HAK         1.7790    0.8190    1.8340 hc        1 WOC      0.025200
     12 HAKA        1.8060   -0.9910    1.6950 hc        1 WOC      0.025200
     13 HAQ         3.9370   -2.1390    0.8840 hc        1 WOC      0.015367
     14 HAQA        5.1420   -1.1370   -0.0280 hc        1 WOC      0.015367
     15 HAQB        3.4530   -1.3490   -0.6810 hc        1 WOC      0.015367
     16 HAR         3.4560    1.3400   -0.6790 hc        1 WOC      0.015367
     17 HARA        3.7870    2.1470    0.9170 hc        1 WOC      0.015367
     18 HARB        5.1120    1.2460    0.0810 hc        1 WOC      0.015367
@<TRIPOS>BOND
     1    1    2 1   
     2    2    3 1   
     3    2    5 1   
     4    3    4 1   
     5    3   11 1   
     6    3   12 1   
     7    4    6 1   
     8    4    9 1   
     9    4   10 1   
    10    6    7 1   
    11    6    8 1   
    12    9   13 1   
    13    9   14 1   
    14    9   15 1   
    15   10   16 1   
    16   10   17 1   
    17   10   18 1   
@<TRIPOS>SUBSTRUCTURE
     1 WOC         1 TEMP              0 ****  ****    0 ROOT
