@<TRIPOS>MOLECULE
WOE
   26    27     1     0     0
SMALL
bcc


@<TRIPOS>ATOM
      1 C1          0.1090   -1.1020    0.1750 c3        1 WOE      0.112700
      2 O2          1.5000   -0.8010    0.1530 os        1 WOE     -0.310900
      3 C3          2.0230   -0.2370    1.2970 ca        1 WOE      0.164100
      4 C4          1.3070   -0.0970    2.4950 ca        1 WOE     -0.211000
      5 C5          1.9350    0.4460    3.6130 ca        1 WOE     -0.081000
      6 C6          3.2690    0.8450    3.5510 ca        1 WOE     -0.170000
      7 C7          3.9820    0.7080    2.3620 ca        1 WOE     -0.077000
      8 C8          3.3720    0.1740    1.2230 cp        1 WOE     -0.189500
      9 C9          4.1530    0.0510   -0.0230 cp        1 WOE      0.558800
     10 C10         5.3220   -0.7470   -0.0010 ca        1 WOE     -0.408600
     11 C11         6.0540   -0.8230   -1.2000 ca        1 WOE      0.560300
     12 Cl1         7.4860   -1.7630   -1.2170 cl        1 WOE     -0.148000
     13 N13         5.6970   -0.1900   -2.3350 nb        1 WOE     -0.751000
     14 C14         4.5230    0.5540   -2.2660 ca        1 WOE      0.883900
     15 N15         4.0660    1.1390   -3.4470 nv        1 WOE     -0.929500
     16 N16         3.7440    0.7160   -1.1230 nb        1 WOE     -0.729000
     17 H11C       -0.0900   -1.4700   -0.8640 h1        1 WOE      0.046700
     18 H12C       -0.4930   -0.1870    0.3910 h1        1 WOE      0.046700
     19 H13C       -0.1080   -1.9030    0.9240 h1        1 WOE      0.046700
     20 H4          0.2560   -0.4110    2.5600 ha        1 WOE      0.141000
     21 H5          1.3700    0.5580    4.5510 ha        1 WOE      0.134000
     22 H6          3.7600    1.2700    4.4380 ha        1 WOE      0.137000
     23 H7          5.0350    1.0240    2.3100 ha        1 WOE      0.141000
     24 H10         5.6300   -1.2790    0.9050 ha        1 WOE      0.168000
     25 H151        4.7180    1.2310   -4.1900 hn        1 WOE      0.432800
     26 H152        3.3770    1.8490   -3.3610 hn        1 WOE      0.432800
@<TRIPOS>BOND
     1    1    2 1   
     2    1   17 1   
     3    1   18 1   
     4    1   19 1   
     5    2    3 1   
     6    3    4 ar  
     7    3    8 ar  
     8    4    5 ar  
     9    4   20 1   
    10    5    6 ar  
    11    5   21 1   
    12    6    7 ar  
    13    6   22 1   
    14    7    8 ar  
    15    7   23 1   
    16    8    9 1   
    17    9   10 ar  
    18    9   16 ar  
    19   10   11 ar  
    20   10   24 1   
    21   11   12 1   
    22   11   13 ar  
    23   13   14 ar  
    24   14   15 1   
    25   14   16 ar  
    26   15   25 1   
    27   15   26 1   
@<TRIPOS>SUBSTRUCTURE
     1 WOE         1 TEMP              0 ****  ****    0 ROOT
