@<TRIPOS>MOLECULE
WOE
   26    21     1     0     0
SMALL
bcc


@<TRIPOS>ATOM
      1 C1         -3.0850   -0.6720   -0.7530 c3        1 WOE     -0.077000
      2 O2         -1.8910    0.1130   -0.6250 os        1 WOE     -0.210000
      3 C3         -1.2960    0.0400    0.6580 c2        1 WOE      0.104000
      4 C4         -2.1080    0.0070    1.8040 c2        1 WOE     -0.211000
      5 C5         -1.5310   -0.0310    3.0650 c1        1 WOE     -0.080000
      6 C6         -0.1430   -0.0350    3.1980 c1        1 WOE     -0.115000
      7 C7          0.6660   -0.0020    2.0620 c1        1 WOE     -0.115000
      8 C8          0.0820    0.0360    0.7860 c1        1 WOE     -0.080000
      9 C9          0.9040    0.0210   -0.3720 c1        1 WOE      0.117000
     10 C10         1.4290   -1.1890   -0.8410 c1        1 WOE     -0.252000
     11 C11         2.3000   -1.1910   -1.8980 c1        1 WOE      0.061000
     12 CL1         2.7750   -2.7140   -2.6360 cl        1 WOE      0.018000
     13 N13         2.6520   -0.0160   -2.4910 n1        1 WOE     -0.221000
     14 C14         2.1330    1.1740   -2.0280 c1        1 WOE      0.157000
     15 N15         2.6140    2.4040   -2.5550 n3        1 WOE     -0.321000
     16 N16         1.2540    1.1780   -0.9610 n1        1 WOE     -0.223000
     17 H11C       -3.7820   -0.3230   -0.1260 h1        1 WOE      0.086667
     18 H12C       -3.4090   -0.6170   -1.6540 h1        1 WOE      0.086667
     19 H13C       -2.8830   -1.6210   -0.5290 h1        1 WOE      0.086667
     20 H4         -3.0580    0.0110    1.7150 ha        1 WOE      0.140000
     21 H5         -2.0970   -0.0550    3.8600 ha        1 WOE      0.135000
     22 H6          0.2660   -0.0610    4.0910 ha        1 WOE      0.145000
     23 H7          1.6500   -0.0060    2.1550 ha        1 WOE      0.145000
     24 H10         1.0920   -2.0680   -0.4610 ha        1 WOE      0.177000
     25 H151        2.5000    3.1890   -2.0760 hn        1 WOE      0.222500
     26 H152        2.9670    2.4310   -3.3880 hn        1 WOE      0.222500
@<TRIPOS>BOND
     1    1    2 1   
     2    1   17 1   
     3    1   18 1   
     4    1   19 1   
     5    2    3 1   
     6    3    4 1   
     7    3    8 1   
     8    4    5 1   
     9    4   20 1   
    10    5   21 1   
    11    6    7 1   
    12    6   22 1   
    13    7   23 1   
    14    9   10 1   
    15   10   24 1   
    16   11   12 1   
    17   11   13 1   
    18   14   15 1   
    19   14   16 1   
    20   15   25 1   
    21   15   26 1   
@<TRIPOS>SUBSTRUCTURE
     1 WOE         1 TEMP              0 ****  ****    0 ROOT
