@<TRIPOS>MOLECULE
WOE
   26    27     1     0     0
SMALL
bcc


@<TRIPOS>ATOM
      1 C1          3.3250   -2.1740   -1.0010 c3        1 WOE      0.112700
      2 O2          2.1660   -1.3950   -0.7210 os        1 WOE     -0.313900
      3 C3          2.3850   -0.1400   -0.1930 ca        1 WOE      0.162100
      4 C4          3.6560    0.4380   -0.0590 ca        1 WOE     -0.210000
      5 C5          3.7750    1.7290    0.4490 ca        1 WOE     -0.082000
      6 C6          2.6410    2.4520    0.8170 ca        1 WOE     -0.169000
      7 C7          1.3780    1.8790    0.6840 ca        1 WOE     -0.076000
      8 C8          1.2330    0.5820    0.1850 cp        1 WOE     -0.187500
      9 C9         -0.1190    0.0030    0.0650 cp        1 WOE      0.557800
     10 C10        -1.0500    0.6500   -0.7840 ca        1 WOE     -0.406600
     11 C11        -2.3240    0.0630   -0.8850 ca        1 WOE      0.560300
     12 CL1        -3.4740    0.7950   -1.9210 cl        1 WOE     -0.148000
     13 N13        -2.6880   -1.0500   -0.2170 nb        1 WOE     -0.750000
     14 C14        -1.7190   -1.5960    0.6190 ca        1 WOE      0.879900
     15 N15        -2.0950   -2.6810    1.4140 nh        1 WOE     -0.926500
     16 N16        -0.4240   -1.1060    0.7690 nb        1 WOE     -0.727000
     17 H11C        3.9400   -2.3170   -0.0810 h1        1 WOE      0.046033
     18 H12C        2.9000   -3.1500   -1.3490 h1        1 WOE      0.046033
     19 H13C        3.9300   -1.6990   -1.8110 h1        1 WOE      0.046033
     20 H4          4.5590   -0.1180   -0.3480 ha        1 WOE      0.140000
     21 H5          4.7730    2.1790    0.5570 ha        1 WOE      0.135000
     22 H6          2.7410    3.4720    1.2140 ha        1 WOE      0.138000
     23 H7          0.4810    2.4470    0.9770 ha        1 WOE      0.142000
     24 H10        -0.7780    1.5530   -1.3400 ha        1 WOE      0.168000
     25 H151       -2.9130   -3.1740    1.1410 hn        1 WOE      0.430800
     26 H152       -1.3600   -3.2200    1.8080 hn        1 WOE      0.430800
@<TRIPOS>BOND
     1    1    2 1   
     2    1   17 1   
     3    1   18 1   
     4    1   19 1   
     5    2    3 1   
     6    3    4 ar  
     7    3    8 ar  
     8    4    5 ar  
     9    4   20 1   
    10    5    6 ar  
    11    5   21 1   
    12    6    7 ar  
    13    6   22 1   
    14    7    8 ar  
    15    7   23 1   
    16    8    9 1   
    17    9   10 ar  
    18    9   16 ar  
    19   10   11 ar  
    20   10   24 1   
    21   11   12 1   
    22   11   13 ar  
    23   13   14 ar  
    24   14   15 1   
    25   14   16 ar  
    26   15   25 1   
    27   15   26 1   
@<TRIPOS>SUBSTRUCTURE
     1 WOE         1 TEMP              0 ****  ****    0 ROOT
