@<TRIPOS>MOLECULE
WOE
   26    27     1     0     0
SMALL
bcc


@<TRIPOS>ATOM
      1 C1          0.0970    1.0040    0.1750 c3        1 WOE      0.112700
      2 O2          1.4910    0.7190    0.1510 os        1 WOE     -0.313900
      3 C3          2.0220    0.1640    1.2970 ca        1 WOE      0.162100
      4 C4          1.3040    0.0080    2.4920 ca        1 WOE     -0.210000
      5 C5          1.9380   -0.5260    3.6110 ca        1 WOE     -0.082000
      6 C6          3.2800   -0.8990    3.5530 ca        1 WOE     -0.169000
      7 C7          3.9950   -0.7450    2.3670 ca        1 WOE     -0.076000
      8 C8          3.3790   -0.2190    1.2270 cp        1 WOE     -0.187500
      9 C9          4.1630   -0.0770   -0.0150 cp        1 WOE      0.557800
     10 C10         5.3020    0.7640    0.0070 ca        1 WOE     -0.406600
     11 C11         6.0160    0.8870   -1.1980 ca        1 WOE      0.560300
     12 CL1         7.3860    1.9150   -1.2270 cl        1 WOE     -0.148000
     13 N13         5.6790    0.2460   -2.3350 nb        1 WOE     -0.750000
     14 C14         4.5660   -0.5850   -2.2510 ca        1 WOE      0.879900
     15 N15         4.2540   -1.3540   -3.3740 nh        1 WOE     -0.926500
     16 N16         3.7780   -0.7540   -1.1150 nb        1 WOE     -0.727000
     17 H11C       -0.4950    0.0810    0.3870 h1        1 WOE      0.046033
     18 H12C       -0.1070    1.3740   -0.8620 h1        1 WOE      0.046033
     19 H13C       -0.1280    1.7990    0.9270 h1        1 WOE      0.046033
     20 H4          0.2470    0.3010    2.5540 ha        1 WOE      0.140000
     21 H5          1.3730   -0.6520    4.5460 ha        1 WOE      0.135000
     22 H6          3.7760   -1.3180    4.4410 ha        1 WOE      0.138000
     23 H7          5.0540   -1.0420    2.3170 ha        1 WOE      0.142000
     24 H10         5.5950    1.2990    0.9170 ha        1 WOE      0.168000
     25 H151        3.3400   -1.7420   -3.4090 hn        1 WOE      0.430800
     26 H152        4.6480   -1.0640   -4.2390 hn        1 WOE      0.430800
@<TRIPOS>BOND
     1    1    2 1   
     2    1   17 1   
     3    1   18 1   
     4    1   19 1   
     5    2    3 1   
     6    3    4 ar  
     7    3    8 ar  
     8    4    5 ar  
     9    4   20 1   
    10    5    6 ar  
    11    5   21 1   
    12    6    7 ar  
    13    6   22 1   
    14    7    8 ar  
    15    7   23 1   
    16    8    9 1   
    17    9   10 ar  
    18    9   16 ar  
    19   10   11 ar  
    20   10   24 1   
    21   11   12 1   
    22   11   13 ar  
    23   13   14 ar  
    24   14   15 1   
    25   14   16 ar  
    26   15   25 1   
    27   15   26 1   
@<TRIPOS>SUBSTRUCTURE
     1 WOE         1 TEMP              0 ****  ****    0 ROOT
