@<TRIPOS>MOLECULE
WOE
   27    28     1     0     0
SMALL
bcc


@<TRIPOS>ATOM
      1 C1          0.0380   -0.9610    0.1880 c3        1 WOE      0.110700
      2 O2          1.4170   -0.5930    0.1140 os        1 WOE     -0.336900
      3 C3          1.9900   -0.1270    1.2750 ca        1 WOE      0.185100
      4 C4          1.2830    0.0540    2.4760 ca        1 WOE     -0.204000
      5 C5          1.9510    0.5030    3.6090 ca        1 WOE     -0.046000
      6 C6          3.3240    0.7670    3.5670 ca        1 WOE     -0.158000
      7 C7          4.0290    0.5870    2.3850 ca        1 WOE     -0.066000
      8 C8          3.3750    0.1450    1.2230 cp        1 WOE     -0.248500
      9 C9          4.1600   -0.0250   -0.0030 cp        1 WOE      0.584800
     10 C10         5.3510   -0.7950    0.0390 ca        1 WOE     -0.301600
     11 C11         6.0940   -0.9440   -1.1510 ca        1 WOE      0.535300
     12 CL1         7.5190   -1.8580   -1.1400 cl        1 WOE     -0.045000
     13 N13         5.7000   -0.3780   -2.3250 nb        1 WOE     -0.680000
     14 C14         4.5410    0.3460   -2.2460 ca        1 WOE      0.704900
     15 N15         4.0880    0.9780   -3.5230 n4        1 WOE     -0.815300
     16 N16         3.7460    0.5690   -1.1580 nb        1 WOE     -0.654000
     17 H11C       -0.1780   -1.3430   -0.8420 h1        1 WOE      0.057367
     18 H12C       -0.1150   -1.7650    0.9470 h1        1 WOE      0.057367
     19 H13C       -0.5910   -0.0680    0.4180 h1        1 WOE      0.057367
     20 H4          0.2040   -0.1540    2.5260 ha        1 WOE      0.158000
     21 H5          1.3930    0.6500    4.5490 ha        1 WOE      0.157000
     22 H6          3.8450    1.1190    4.4710 ha        1 WOE      0.158000
     23 H7          5.1090    0.8000    2.3510 ha        1 WOE      0.142000
     24 H10         5.6740   -1.2680    0.9800 ha        1 WOE      0.205000
     25 H151        3.2170    1.5030   -3.3620 hn        1 WOE      0.481133
     26 H152        3.9240    0.2420   -4.2200 hn        1 WOE      0.481133
     27 H153        4.8190    1.6140   -3.8620 hn        1 WOE      0.481133
@<TRIPOS>BOND
     1    1    2 1   
     2    1   17 1   
     3    1   18 1   
     4    1   19 1   
     5    2    3 1   
     6    3    4 ar  
     7    3    8 ar  
     8    4    5 ar  
     9    4   20 1   
    10    5    6 ar  
    11    5   21 1   
    12    6    7 ar  
    13    6   22 1   
    14    7    8 ar  
    15    7   23 1   
    16    8    9 1   
    17    9   10 ar  
    18    9   16 ar  
    19   10   11 ar  
    20   10   24 1   
    21   11   12 1   
    22   11   13 ar  
    23   13   14 ar  
    24   14   15 1   
    25   14   16 ar  
    26   15   25 1   
    27   15   26 1   
    28   15   27 1   
@<TRIPOS>SUBSTRUCTURE
     1 WOE         1 TEMP              0 ****  ****    0 ROOT
