@<TRIPOS>MOLECULE
WOO
   24    24     1     0     0
SMALL
bcc


@<TRIPOS>ATOM
      1 C1          0.1800    0.0530    0.0440 c3        1 WOO      0.313900
      2 O1         -0.2530   -0.0720   -1.2880 oh        1 WOO     -0.613800
      3 C2          1.7200   -0.0350    0.0650 c3        1 WOO      0.082100
      4 O2          2.2880    1.1670   -0.4250 oh        1 WOO     -0.606800
      5 C3          2.2150   -0.1980    1.5090 c3        1 WOO      0.112100
      6 O3          1.9530    0.9610    2.2840 oh        1 WOO     -0.613800
      7 C4          1.4740   -1.3630    2.1890 c3        1 WOO      0.121100
      8 O4          1.8600   -1.4820    3.5400 oh        1 WOO     -0.586800
      9 C5         -0.0490   -1.1720    2.0660 c3        1 WOO      0.118100
     10 O5         -0.4140   -1.0640    0.6870 os        1 WOO     -0.449600
     11 C6         -0.8020   -2.3860    2.6140 c3        1 WOO      0.130400
     12 O6         -2.0190   -1.9010    3.1590 oh        1 WOO     -0.599800
     13 H1         -0.1770    1.0210    0.4950 h2        1 WOO      0.063700
     14 H2         -1.0980   -0.5440   -1.2870 ho        1 WOO      0.439000
     15 H3          2.0570   -0.9060   -0.5610 h1        1 WOO      0.068700
     16 H4          1.9090    1.3130   -1.3020 ho        1 WOO      0.429000
     17 H5          3.3230   -0.3980    1.5060 h1        1 WOO      0.066700
     18 H6          2.3410    1.7090    1.8090 ho        1 WOO      0.433000
     19 H7          1.7850   -2.3330    1.7090 h1        1 WOO      0.087700
     20 H8          1.7080   -0.6250    3.9610 ho        1 WOO      0.424000
     21 H9         -0.3620   -0.2370    2.6110 h1        1 WOO      0.082700
     22 H10        -0.1880   -2.8660    3.4230 h1        1 WOO      0.048200
     23 H11        -1.0030   -3.1230    1.7920 h1        1 WOO      0.048200
     24 H12        -2.5510   -2.6750    3.3740 ho        1 WOO      0.404000
@<TRIPOS>BOND
     1    1    2 1   
     2    1    3 1   
     3    1   10 1   
     4    1   13 1   
     5    2   14 1   
     6    3    4 1   
     7    3    5 1   
     8    3   15 1   
     9    4   16 1   
    10    5    6 1   
    11    5    7 1   
    12    5   17 1   
    13    6   18 1   
    14    7    8 1   
    15    7    9 1   
    16    7   19 1   
    17    8   20 1   
    18    9   10 1   
    19    9   11 1   
    20    9   21 1   
    21   11   12 1   
    22   11   22 1   
    23   11   23 1   
    24   12   24 1   
@<TRIPOS>SUBSTRUCTURE
     1 WOO         1 TEMP              0 ****  ****    0 ROOT
