@<TRIPOS>MOLECULE
WOP
   59    62     1     0     0
SMALL
bcc


@<TRIPOS>ATOM
      1 C1         -6.5900    3.3440   -1.1400 ca        1 WOP     -0.134000
      2 C2         -3.8620   -5.6180    0.8110 ca        1 WOP     -0.125000
      3 C3         -6.6590    2.1210   -0.4710 ca        1 WOP     -0.138000
      4 C4         -5.3990    4.0680   -1.1440 ca        1 WOP     -0.138000
      5 C5         -3.7450   -5.1710   -0.5050 ca        1 WOP     -0.139500
      6 C6         -3.4360   -4.8060    1.8620 ca        1 WOP     -0.139500
      7 C7         -5.5410    1.6250    0.1960 ca        1 WOP     -0.115500
      8 C8         -4.2760    3.5730   -0.4800 ca        1 WOP     -0.115500
      9 C9         -3.1990   -3.9160   -0.7720 ca        1 WOP     -0.098000
     10 C10        -2.8900   -3.5500    1.5990 ca        1 WOP     -0.098000
     11 C11         2.0250    1.8250   -0.4550 ca        1 WOP     -0.130000
     12 C12         2.4250    3.0090    0.1830 ca        1 WOP     -0.151000
     13 C13         4.2210    0.7600   -0.1340 ca        1 WOP     -0.061600
     14 C14        -4.3450    2.3520    0.1950 ca        1 WOP     -0.108300
     15 C15        -2.7690   -3.1000    0.2810 ca        1 WOP     -0.098300
     16 C16         2.8890    0.7380   -0.6110 ca        1 WOP     -0.118300
     17 C17         3.7250    3.0350    0.6460 ca        1 WOP      0.042100
     18 C18         4.6050    1.9340    0.4900 ca        1 WOP      0.058100
     19 C20        -2.9000   -0.6190    0.7230 c         1 WOP      0.654100
     20 C21         0.1320   -1.0750   -0.6240 c         1 WOP      0.753100
     21 C22         5.7230    3.5980    1.5750 c3        1 WOP      0.319200
     22 C23         2.0760   -2.0560    0.5270 c3        1 WOP      0.031300
     23 C24        -3.1520    1.8220    0.9460 c3        1 WOP      0.138300
     24 C25         2.3910   -0.4770   -1.3450 c3        1 WOP      0.131300
     25 C26        -2.1550   -1.7590   -0.0300 c3        1 WOP      0.092000
     26 N27        -2.5450    0.6590    0.3650 n         1 WOP     -0.555900
     27 N28        -0.7430   -1.7260    0.2710 n         1 WOP     -0.566900
     28 N29         1.5050   -1.3480   -0.5890 n         1 WOP     -0.424800
     29 O30         5.7840   -0.5320   -1.3930 o         1 WOP     -0.813800
     30 O31         5.1790   -1.2910    0.6220 o         1 WOP     -0.813800
     31 O32        -3.7620   -0.8460    1.5970 o         1 WOP     -0.637100
     32 O33        -0.3690   -0.2800   -1.4690 o         1 WOP     -0.694100
     33 O34         4.3840    4.0710    1.3090 os        1 WOP     -0.356900
     34 O35         5.8410    2.2610    1.0570 os        1 WOP     -0.313900
     35 H1         -7.4730    3.7340   -1.6660 ha        1 WOP      0.122000
     36 H3         -7.5970    1.5470   -0.4700 ha        1 WOP      0.125500
     37 H4         -5.3410    5.0290   -1.6740 ha        1 WOP      0.125500
     38 H2         -4.2900   -6.6090    1.0200 ha        1 WOP      0.124000
     39 H5         -4.0820   -5.8080   -1.3350 ha        1 WOP      0.128000
     40 H6         -3.5320   -5.1530    2.9010 ha        1 WOP      0.128000
     41 H7         -5.5820    0.6580    0.7260 ha        1 WOP      0.145000
     42 H8         -3.3360    4.1450   -0.4900 ha        1 WOP      0.145000
     43 H9         -3.1050   -3.5700   -1.8120 ha        1 WOP      0.143500
     44 H10        -2.5820   -2.8910    2.4270 ha        1 WOP      0.143500
     45 H11         0.9970    1.7470   -0.8470 ha        1 WOP      0.138000
     46 H12         1.7460    3.8600    0.3030 ha        1 WOP      0.131000
     47 H241       -2.3640    2.6280    1.0080 h1        1 WOP      0.063200
     48 H242       -3.4860    1.5690    1.9960 h1        1 WOP      0.063200
     49 H26        -2.3000   -1.5460   -1.1390 h1        1 WOP      0.092700
     50 H251        1.8420   -0.1410   -2.2720 h1        1 WOP      0.088200
     51 H252        3.2750   -1.1100   -1.6590 h1        1 WOP      0.088200
     52 H27        -1.8930    0.7920   -0.3800 hn        1 WOP      0.349500
     53 H28        -0.4000   -2.4470    0.8610 hn        1 WOP      0.315500
     54 H221        6.4470    4.2590    1.0380 h2        1 WOP      0.051200
     55 H222        5.8770    3.5710    2.6820 h2        1 WOP      0.051200
     56 H231        1.7540   -3.1310    0.4860 h1        1 WOP      0.061367
     57 H232        3.2060   -2.0070    0.4740 h1        1 WOP      0.061367
     58 H233        1.7610   -1.6190    1.5120 h1        1 WOP      0.061367
     59 C19         5.1470   -0.4390   -0.3110 c         1 WOP      0.919200
@<TRIPOS>BOND
     1    1    3 ar  
     2    1    4 ar  
     3    1   35 1   
     4    2    5 ar  
     5    2    6 ar  
     6    2   38 1   
     7    3    7 ar  
     8    3   36 1   
     9    4    8 ar  
    10    4   37 1   
    11    5    9 ar  
    12    5   39 1   
    13    6   10 ar  
    14    6   40 1   
    15    7   14 ar  
    16    7   41 1   
    17    8   14 ar  
    18    8   42 1   
    19    9   15 ar  
    20    9   43 1   
    21   10   15 ar  
    22   10   44 1   
    23   11   12 ar  
    24   11   16 ar  
    25   11   45 1   
    26   12   17 ar  
    27   12   46 1   
    28   13   16 ar  
    29   13   18 ar  
    30   13   59 1   
    31   14   23 1   
    32   15   25 1   
    33   16   24 1   
    34   17   18 ar  
    35   17   33 1   
    36   18   34 1   
    37   19   25 1   
    38   19   26 1   
    39   19   31 2   
    40   20   27 1   
    41   20   28 1   
    42   20   32 2   
    43   21   33 1   
    44   21   34 1   
    45   21   54 1   
    46   21   55 1   
    47   22   28 1   
    48   22   56 1   
    49   22   57 1   
    50   22   58 1   
    51   23   26 1   
    52   23   47 1   
    53   23   48 1   
    54   24   28 1   
    55   24   50 1   
    56   24   51 1   
    57   25   27 1   
    58   25   49 1   
    59   26   52 1   
    60   27   53 1   
    61   29   59 1   
    62   30   59 1   
@<TRIPOS>SUBSTRUCTURE
     1 WOP         1 TEMP              0 ****  ****    0 ROOT
