@<TRIPOS>MOLECULE
WOP
   62    64     1     0     0
SMALL
bcc


@<TRIPOS>ATOM
      1 C1          0.0000    0.0000    0.0000 ca        1 WOP     -0.030000
      2 C2          5.6060    5.0600    2.7330 ca        1 WOP     -0.127000
      3 C3          1.3820    0.0000    0.0000 ca        1 WOP     -0.074500
      4 C4         -0.6920   -0.0000    1.1970 ca        1 WOP     -0.074500
      5 C5          6.0000    3.8150    3.1910 ca        1 WOP      0.017500
      6 C6          4.3160    5.5080    2.9690 ca        1 WOP      0.017500
      7 C7          2.0730    0.0000    1.1980 ca        1 WOP     -0.070000
      8 C8         -0.0010   -0.0010    2.3940 ca        1 WOP     -0.070000
      9 C9          5.1060    3.0170    3.8850 ca        1 WOP     -0.177000
     10 C10         4.1160    5.1420    4.6530 ca        1 WOP     -0.177000
     11 C11         2.2650    4.6770   10.4260 c2        1 WOP     -0.275000
     12 C12         1.4260    4.0470   11.3340 c2        1 WOP     -0.028000
     13 C13         1.5590    6.8200   11.2570 c2        1 WOP     -0.092000
     14 C14         1.3810   -0.0000    2.3950 ca        1 WOP     -0.210000
     15 C15         4.1100    3.7550    4.6580 ca        1 WOP     -0.090000
     16 C16         2.3310    6.0650   10.3890 c1        1 WOP      0.157000
     17 C17         0.6440    4.8110   12.2130 c2        1 WOP      0.042000
     18 C18         0.7100    6.1830   12.1750 c2        1 WOP      0.085000
     19 C20         3.0430    1.6240    5.2720 c2        1 WOP      0.247000
     20 C21         3.5680    4.1440    7.8000 c2        1 WOP     -0.075000
     21 C22        -0.7810    5.5960   13.8020 c3        1 WOP      0.218000
     22 C23         4.6660    3.9010    9.8870 c3        1 WOP     -0.302000
     23 C24         2.1350   -0.0010    3.7000 c3        1 WOP     -0.179000
     24 C25         3.9150    6.0390    9.1810 c2        1 WOP     -0.293000
     25 C26         3.2940    3.0450    5.7070 c3        1 WOP     -0.561000
     26 N27         2.3800    1.3800    4.1240 ny        1 WOP      0.678000
     27 N28         4.0270    3.0440    6.9760 ny        1 WOP      0.761000
     28 N29         4.4750    4.7730    8.7400 nx        1 WOP      0.685000
     29 O30         0.5680    9.0230   11.1960 o         1 WOP     -0.200000
     30 O31         2.1980    8.7160   12.6120 o         1 WOP     -0.200000
     31 O32         3.4350    0.7010    5.9540 o         1 WOP     -0.351000
     32 O33         2.4660    4.5600    7.6730 o         1 WOP     -0.017000
     33 O34        -0.2800    4.4440   13.2210 os        1 WOP     -0.178000
     34 O35        -0.1730    6.6900   13.1600 os        1 WOP     -0.171000
     35 H1         -0.5420    0.0130   -0.9380 ha        1 WOP      0.129000
     36 H3          1.9240    0.0000   -0.9380 ha        1 WOP      0.129500
     37 H4         -1.7750    0.0110    1.1960 ha        1 WOP      0.129500
     38 H2          6.3620    5.6010    2.1760 ha        1 WOP      0.138000
     39 H5          7.0060    3.4620    3.0000 ha        1 WOP      0.127000
     40 H6          4.2210    6.4940    2.5300 ha        1 WOP      0.127000
     41 H7          3.1560   -0.0140    1.1980 ha        1 WOP      0.107000
     42 H8         -0.5430   -0.0010    3.3320 ha        1 WOP      0.107000
     43 H9          5.4190    2.0490    4.2570 ha        1 WOP      0.121500
     44 H10         3.0870    5.4680    4.7400 ha        1 WOP      0.121500
     45 H11         2.8240    4.0890    9.7090 ha        1 WOP      0.068000
     46 H12         1.3630    2.9660   11.3530 ha        1 WOP      0.123000
     47 H241        1.5610   -0.5350    4.4480 hx        1 WOP      0.123500
     48 H242        3.0930   -0.4870    3.5640 hx        1 WOP      0.123500
     49 H26         2.8380    2.1170    5.3820 hx        1 WOP     -0.034000
     50 H251        3.6390    6.4450    8.2150 hx        1 WOP      0.111500
     51 H252        4.7070    6.6380    9.6120 hx        1 WOP      0.111500
     52 H27         1.4570    1.7640    4.1830 hn        1 WOP      0.075500
     53 H28         5.0060    3.1480    6.7960 hn        1 WOP      0.052500
     54 H221       -1.8600    5.5360   13.8760 h2        1 WOP      0.072000
     55 H222       -0.3420    5.7400   14.7810 h2        1 WOP      0.072000
     56 H231        4.1230    2.9770    9.7320 hx        1 WOP      0.134333
     57 H232        5.7210    3.6850   10.0040 hx        1 WOP      0.134333
     58 H233        4.2970    4.3920   10.7790 hx        1 WOP      0.134333
     59 H272        2.9360    1.6780    3.3470 hn        1 WOP      0.075500
     60 H282        3.7840    2.1760    7.4120 hn        1 WOP      0.052500
     61 H291        5.3590    4.9280    8.2970 hn        1 WOP      0.065000
     62 C19         1.4320    8.2700   11.7180 c2        1 WOP      0.379000
@<TRIPOS>BOND
     1    1    3 1   
     2    1    4 1   
     3    1   35 1   
     4    2    5 1   
     5    2    6 1   
     6    2   38 1   
     7    3    7 1   
     8    3   36 1   
     9    4    8 1   
    10    4   37 1   
    11    5    9 1   
    12    5   39 1   
    13    6   10 1   
    14    6   40 1   
    15    7   14 1   
    16    7   41 1   
    17    8   14 1   
    18    8   42 1   
    19    9   15 1   
    20    9   43 1   
    21   10   15 1   
    22   10   44 1   
    23   11   12 1   
    24   11   16 1   
    25   11   45 1   
    26   12   17 1   
    27   12   46 1   
    28   13   16 1   
    29   13   18 1   
    30   13   62 1   
    31   14   23 1   
    32   15   25 1   
    33   17   18 1   
    34   17   33 1   
    35   18   34 1   
    36   19   25 1   
    37   19   26 1   
    38   19   31 1   
    39   20   27 1   
    40   20   28 1   
    41   20   32 1   
    42   21   33 1   
    43   21   34 1   
    44   21   54 1   
    45   21   55 1   
    46   22   28 1   
    47   22   56 1   
    48   22   57 1   
    49   22   58 1   
    50   23   26 1   
    51   23   47 1   
    52   23   48 1   
    53   24   28 1   
    54   24   50 1   
    55   24   51 1   
    56   25   27 1   
    57   25   49 1   
    58   26   52 1   
    59   26   59 1   
    60   27   53 1   
    61   27   60 1   
    62   28   61 1   
    63   29   62 1   
    64   30   62 1   
@<TRIPOS>SUBSTRUCTURE
     1 WOP         1 TEMP              0 ****  ****    0 ROOT
