@<TRIPOS>MOLECULE
WOW
   49    46     1     0     0
SMALL
bcc


@<TRIPOS>ATOM
      1 C01        -2.4060    0.2980    3.6540 c3        1 WOW     -0.186000
      2 C02        -0.8940    0.0860    3.6400 c2        1 WOW     -0.065000
      3 C03        -0.2170   -0.1680    4.8270 c2        1 WOW     -0.125000
      4 C04         1.1600   -0.3840    4.8110 c1        1 WOW     -0.124000
      5 C05         1.8550   -0.3460    3.6090 c1        1 WOW     -0.129000
      6 C06         1.1770   -0.0920    2.4190 c1        1 WOW     -0.129000
      7 C07        -0.1960    0.1250    2.4330 c1        1 WOW     -0.110000
      8 C08        -0.9680    0.2860    1.0970 c3        1 WOW      0.008000
      9 N09        -0.0250    0.3950    0.0020 n3        1 WOW     -0.274000
     10 C10         0.2120   -0.7880   -0.9150 c3        1 WOW      0.020000
     11 C11         0.0050   -1.8450   -0.3050 c3        1 WOW     -0.201000
     12 C12        -0.5970   -2.8360   -1.3900 c3        1 WOW     -0.008000
     13 N13        -0.9410   -1.9700   -2.5910 n3        1 WOW     -0.860000
     14 C14        -0.8580   -0.7600   -2.1580 c3        1 WOW     -0.019000
     15 S15        -1.7400   -2.4630   -3.9500 s4        1 WOW      2.043800
     16 C16        -0.6020   -3.2230   -5.0960 c2        1 WOW     -0.938000
     17 O17        -2.8240   -3.3510   -3.6240 o         1 WOW     -0.541900
     18 O18        -2.4470   -1.3730   -4.5630 o         1 WOW     -0.541900
     19 C19         0.6510    1.6490   -0.2480 c2        1 WOW      0.116000
     20 C20         0.0190    2.8490    0.0450 c2        1 WOW     -0.167000
     21 C21         0.6740    4.0540   -0.1890 c1        1 WOW     -0.056000
     22 C22         1.9580    4.0560   -0.7140 c1        1 WOW     -0.043000
     23 C23         2.6700    5.3690   -0.9680 c1        1 WOW     -0.091000
     24 N24         3.2080    6.3630   -1.1610 n1        1 WOW     -0.030000
     25 C25         2.5910    2.8540   -1.0070 c1        1 WOW      0.002000
     26 CL26        4.1540    2.8600   -1.7920 cl        1 WOW      0.009000
     27 C27         1.9380    1.6510   -0.7740 c2        1 WOW     -0.204000
     28 H01        -2.6010    1.2600    3.7100 hc        1 WOW      0.088000
     29 H01A       -2.7960   -0.0680    2.8290 hc        1 WOW      0.088000
     30 H01B       -2.7930   -0.1590    4.4290 hc        1 WOW      0.088000
     31 H03        -0.7070   -0.1950    5.6750 ha        1 WOW      0.135000
     32 H04         1.6380   -0.5640    5.6490 ha        1 WOW      0.134000
     33 H05         2.8220   -0.4980    3.5980 ha        1 WOW      0.134500
     34 H06         1.6660   -0.0650    1.5750 ha        1 WOW      0.134500
     35 H08        -1.5190    1.0930    1.1340 h1        1 WOW      0.107000
     36 H08A       -1.5430   -0.4950    0.9560 h1        1 WOW      0.107000
     37 H10         1.1280   -0.7710   -1.2580 h1        1 WOW      0.112000
     38 H11         0.8430   -2.2000    0.0510 hc        1 WOW      0.107500
     39 H11A       -0.6370   -1.7010    0.4170 hc        1 WOW      0.107500
     40 H12        -1.4030   -3.2670   -1.0430 h1        1 WOW      0.093500
     41 H12A        0.0660   -3.5090   -1.6380 h1        1 WOW      0.093500
     42 H14        -1.7350   -0.4540   -1.8410 h1        1 WOW      0.099500
     43 H14A       -0.5320   -0.1710   -2.8670 h1        1 WOW      0.099500
     44 H16         0.0650   -3.7460   -4.5970 ha        1 WOW      0.153333
     45 H16A       -0.1490   -2.5260   -5.6180 ha        1 WOW      0.153333
     46 H16B       -1.0950   -3.8150   -5.7010 ha        1 WOW      0.153333
     47 H20        -0.8830    2.8470    0.4140 ha        1 WOW      0.150000
     48 H21         0.2290    4.9010    0.0180 ha        1 WOW      0.151000
     49 H27         2.3830    0.8050   -0.9810 ha        1 WOW      0.152000
@<TRIPOS>BOND
     1    1    2 1   
     2    1   28 1   
     3    1   29 1   
     4    1   30 1   
     5    2    3 1   
     6    2    7 1   
     7    3    4 1   
     8    3   31 1   
     9    4   32 1   
    10    5    6 1   
    11    5   33 1   
    12    6   34 1   
    13    7    8 1   
    14    8    9 1   
    15    8   35 1   
    16    8   36 1   
    17    9   10 1   
    18    9   19 1   
    19   10   11 1   
    20   10   14 1   
    21   10   37 1   
    22   11   12 1   
    23   11   38 1   
    24   11   39 1   
    25   12   13 1   
    26   12   40 1   
    27   12   41 1   
    28   13   14 1   
    29   13   15 1   
    30   14   42 1   
    31   14   43 1   
    32   15   17 1   
    33   15   18 1   
    34   16   44 1   
    35   16   45 1   
    36   16   46 1   
    37   19   20 1   
    38   19   27 1   
    39   20   21 1   
    40   20   47 1   
    41   21   48 1   
    42   22   23 1   
    43   22   25 1   
    44   23   24 1   
    45   25   27 1   
    46   27   49 1   
@<TRIPOS>SUBSTRUCTURE
     1 WOW         1 TEMP              0 ****  ****    0 ROOT
