@<TRIPOS>MOLECULE
WOW
   49    51     1     0     0
SMALL
bcc


@<TRIPOS>ATOM
      1 C01         0.0230    0.4180   -0.1780 c3        1 WOW     -0.058800
      2 C02         1.4760    0.1620   -0.0350 ca        1 WOW     -0.074300
      3 C03         2.0460    0.0980    1.2410 ca        1 WOW     -0.125000
      4 C04         3.4090   -0.1400    1.4000 ca        1 WOW     -0.122000
      5 C05         4.2170   -0.3170    0.2780 ca        1 WOW     -0.127000
      6 C06         3.6590   -0.2560   -0.9980 ca        1 WOW     -0.120000
      7 C07         2.2930   -0.0160   -1.1680 ca        1 WOW     -0.123300
      8 C08         1.6350    0.0430   -2.5190 c3        1 WOW      0.260100
      9 N09         2.4610   -0.0020   -3.7030 nh        1 WOW     -0.682000
     10 C10         2.9050   -1.3080   -4.1370 c3        1 WOW      0.229500
     11 C11         2.3170   -1.7770   -5.4920 c3        1 WOW     -0.103400
     12 C12         3.4970   -2.3230   -6.3070 c3        1 WOW      0.224800
     13 N13         4.6950   -2.2330   -5.5000 n3        1 WOW     -0.836500
     14 C14         4.4520   -1.4940   -4.2850 c3        1 WOW      0.201800
     15 S15         6.0760   -3.0190   -5.8270 s6        1 WOW      1.472900
     16 C16         6.9830   -1.8690   -6.6930 c3        1 WOW     -0.361300
     17 O17         6.7640   -3.3020   -4.6290 o         1 WOW     -0.652300
     18 O18         5.8190   -4.1060   -6.6870 o         1 WOW     -0.652300
     19 C19         3.0390    1.1760   -4.1840 ca        1 WOW      0.213600
     20 C20         3.5640    1.2560   -5.5000 ca        1 WOW     -0.203000
     21 C21         4.0600    2.4500   -5.9980 ca        1 WOW     -0.051000
     22 C22         4.0630    3.6150   -5.2190 ca        1 WOW     -0.061000
     23 C23         4.5680    4.8250   -5.7600 cg        1 WOW      0.241800
     24 N24         4.9840    5.8140   -6.2120 n1        1 WOW     -0.360800
     25 C25         3.5630    3.5470   -3.9080 ca        1 WOW      0.089400
     26 CL26        3.5610    4.9260   -2.9170 cl        1 WOW     -0.067400
     27 C27         3.0680    2.3520   -3.3920 ca        1 WOW     -0.204000
     28 H01        -0.1500    1.4010   -0.6850 hc        1 WOW      0.046700
     29 H01A       -0.4580   -0.3830   -0.7940 hc        1 WOW      0.046700
     30 H01B       -0.4830    0.4450    0.8180 hc        1 WOW      0.046700
     31 H03         1.4090    0.2370    2.1280 ha        1 WOW      0.135000
     32 H04         3.8460   -0.1880    2.4080 ha        1 WOW      0.136000
     33 H05         5.2940   -0.5060    0.3960 ha        1 WOW      0.138000
     34 H06         4.3130   -0.3990   -1.8720 ha        1 WOW      0.132000
     35 H08         0.9110   -0.8250   -2.5810 h1        1 WOW      0.066200
     36 H08A        1.0160    0.9900   -2.5690 h1        1 WOW      0.066200
     37 H10         2.5690   -2.0460   -3.3480 h1        1 WOW      0.073700
     38 H11         1.5620   -2.5810   -5.3130 hc        1 WOW      0.065700
     39 H11A        1.8090   -0.9510   -6.0460 hc        1 WOW      0.065700
     40 H12         3.3190   -3.3940   -6.6060 h1        1 WOW      0.052700
     41 H12A        3.6300   -1.7180   -7.2490 h1        1 WOW      0.052700
     42 H14         4.9830   -0.5010   -4.3260 h1        1 WOW      0.062700
     43 H14A        4.8490   -2.0680   -3.4010 h1        1 WOW      0.062700
     44 H16         7.1790   -0.9300   -6.1210 h1        1 WOW      0.115033
     45 H16A        7.9880   -2.2890   -6.9550 h1        1 WOW      0.115033
     46 H16B        6.5110   -1.5670   -7.6590 h1        1 WOW      0.115033
     47 H20         3.5780    0.3640   -6.1460 ha        1 WOW      0.147000
     48 H21         4.4540    2.4880   -7.0270 ha        1 WOW      0.147000
     49 H27         2.7150    2.3300   -2.3470 ha        1 WOW      0.163000
@<TRIPOS>BOND
     1    1    2 1   
     2    1   28 1   
     3    1   29 1   
     4    1   30 1   
     5    2    3 ar  
     6    2    7 ar  
     7    3    4 ar  
     8    3   31 1   
     9    4    5 ar  
    10    4   32 1   
    11    5    6 ar  
    12    5   33 1   
    13    6    7 ar  
    14    6   34 1   
    15    7    8 1   
    16    8    9 1   
    17    8   35 1   
    18    8   36 1   
    19    9   10 1   
    20    9   19 1   
    21   10   11 1   
    22   10   14 1   
    23   10   37 1   
    24   11   12 1   
    25   11   38 1   
    26   11   39 1   
    27   12   13 1   
    28   12   40 1   
    29   12   41 1   
    30   13   14 1   
    31   13   15 1   
    32   14   42 1   
    33   14   43 1   
    34   15   16 1   
    35   15   17 2   
    36   15   18 2   
    37   16   44 1   
    38   16   45 1   
    39   16   46 1   
    40   19   20 ar  
    41   19   27 ar  
    42   20   21 ar  
    43   20   47 1   
    44   21   22 ar  
    45   21   48 1   
    46   22   23 1   
    47   22   25 ar  
    48   23   24 3   
    49   25   26 1   
    50   25   27 ar  
    51   27   49 1   
@<TRIPOS>SUBSTRUCTURE
     1 WOW         1 TEMP              0 ****  ****    0 ROOT
