@<TRIPOS>MOLECULE
WOW
   49    51     1     0     0
SMALL
bcc


@<TRIPOS>ATOM
      1 C01         3.6920    3.3930   -1.5150 c3        1 WOW     -0.058800
      2 C02         2.9950    3.2570   -0.2140 ca        1 WOW     -0.074300
      3 C03         3.4440    3.9860    0.8920 ca        1 WOW     -0.125000
      4 C04         2.8050    3.8730    2.1250 ca        1 WOW     -0.122000
      5 C05         1.7070    3.0260    2.2610 ca        1 WOW     -0.127000
      6 C06         1.2510    2.2950    1.1640 ca        1 WOW     -0.120000
      7 C07         1.8860    2.3990   -0.0750 ca        1 WOW     -0.123300
      8 C08         1.4280    1.6490   -1.2950 c3        1 WOW      0.260100
      9 N09         0.3850    0.6590   -1.1570 nh        1 WOW     -0.682000
     10 C10        -0.9760    1.1470   -1.1260 c3        1 WOW      0.229500
     11 C11        -1.8410    0.7380   -2.3450 c3        1 WOW     -0.103400
     12 C12        -3.1760    0.2380   -1.7770 c3        1 WOW      0.224800
     13 N13        -3.1430    0.3720   -0.3360 n3        1 WOW     -0.836500
     14 C14        -1.8250    0.7380    0.1230 c3        1 WOW      0.201800
     15 S15        -4.4540    0.3060    0.6170 s6        1 WOW      1.472900
     16 C16        -4.4950   -1.3230    1.1080 c3        1 WOW     -0.361300
     17 O17        -4.2560    1.1000    1.7640 o         1 WOW     -0.652300
     18 O18        -5.6140    0.5590   -0.1430 o         1 WOW     -0.652300
     19 C19         0.7170   -0.6390   -0.7600 ca        1 WOW      0.213600
     20 C20        -0.1890   -1.7180   -0.9340 ca        1 WOW     -0.203000
     21 C21         0.1780   -3.0150   -0.6150 ca        1 WOW     -0.051000
     22 C22         1.4530   -3.3040   -0.1080 ca        1 WOW     -0.061000
     23 C23         1.8030   -4.6440    0.2000 cg        1 WOW      0.241800
     24 N24         2.0830   -5.7450    0.4500 n1        1 WOW     -0.360800
     25 C25         2.3540   -2.2440    0.0860 ca        1 WOW      0.089400
     26 CL26        3.9030   -2.5380    0.7160 cl        1 WOW     -0.067400
     27 C27         1.9960   -0.9340   -0.2230 ca        1 WOW     -0.204000
     28 H01         4.1760    2.4250   -1.8000 hc        1 WOW      0.046700
     29 H01A        2.9690    3.6730   -2.3210 hc        1 WOW      0.046700
     30 H01B        4.4860    4.1790   -1.4690 hc        1 WOW      0.046700
     31 H03         4.3100    4.6570    0.7850 ha        1 WOW      0.135000
     32 H04         3.1670    4.4510    2.9880 ha        1 WOW      0.136000
     33 H05         1.1970    2.9320    3.2310 ha        1 WOW      0.138000
     34 H06         0.3820    1.6310    1.2920 ha        1 WOW      0.132000
     35 H08         1.0670    2.4150   -2.0470 h1        1 WOW      0.066200
     36 H08A        2.3270    1.1370   -1.7540 h1        1 WOW      0.066200
     37 H10        -0.9180    2.2780   -1.1150 h1        1 WOW      0.073700
     38 H11        -2.0060    1.6270   -3.0020 hc        1 WOW      0.065700
     39 H11A       -1.3580   -0.0570   -2.9640 hc        1 WOW      0.065700
     40 H12        -4.0380    0.8310   -2.1950 h1        1 WOW      0.052700
     41 H12A       -3.3340   -0.8430   -2.0520 h1        1 WOW      0.052700
     42 H14        -1.3560   -0.1260    0.6740 h1        1 WOW      0.062700
     43 H14A       -1.8950    1.6100    0.8340 h1        1 WOW      0.062700
     44 H16        -3.5790   -1.6480    1.6590 h1        1 WOW      0.115033
     45 H16A       -5.3540   -1.4930    1.8060 h1        1 WOW      0.115033
     46 H16B       -4.6350   -2.0390    0.2630 h1        1 WOW      0.115033
     47 H20        -1.1990   -1.5340   -1.3320 ha        1 WOW      0.147000
     48 H21        -0.5400   -3.8370   -0.7680 ha        1 WOW      0.147000
     49 H27         2.7180   -0.1250   -0.0250 ha        1 WOW      0.163000
@<TRIPOS>BOND
     1    1    2 1   
     2    1   28 1   
     3    1   29 1   
     4    1   30 1   
     5    2    3 ar  
     6    2    7 ar  
     7    3    4 ar  
     8    3   31 1   
     9    4    5 ar  
    10    4   32 1   
    11    5    6 ar  
    12    5   33 1   
    13    6    7 ar  
    14    6   34 1   
    15    7    8 1   
    16    8    9 1   
    17    8   35 1   
    18    8   36 1   
    19    9   10 1   
    20    9   19 1   
    21   10   11 1   
    22   10   14 1   
    23   10   37 1   
    24   11   12 1   
    25   11   38 1   
    26   11   39 1   
    27   12   13 1   
    28   12   40 1   
    29   12   41 1   
    30   13   14 1   
    31   13   15 1   
    32   14   42 1   
    33   14   43 1   
    34   15   16 1   
    35   15   17 2   
    36   15   18 2   
    37   16   44 1   
    38   16   45 1   
    39   16   46 1   
    40   19   20 ar  
    41   19   27 ar  
    42   20   21 ar  
    43   20   47 1   
    44   21   22 ar  
    45   21   48 1   
    46   22   23 1   
    47   22   25 ar  
    48   23   24 3   
    49   25   26 1   
    50   25   27 ar  
    51   27   49 1   
@<TRIPOS>SUBSTRUCTURE
     1 WOW         1 TEMP              0 ****  ****    0 ROOT
