@<TRIPOS>MOLECULE
WOW
   50    52     1     0     0
SMALL
bcc


@<TRIPOS>ATOM
      1 C01         0.8420    1.6730   -1.1290 c3        1 WOW     -0.073800
      2 C02         1.7910    0.9220   -0.2740 ca        1 WOW     -0.024300
      3 C03         2.0050    1.3480    1.0460 ca        1 WOW     -0.123000
      4 C04         2.8720    0.6580    1.8880 ca        1 WOW     -0.077000
      5 C05         3.5410   -0.4790    1.4270 ca        1 WOW     -0.120000
      6 C06         3.3360   -0.9150    0.1230 ca        1 WOW     -0.121000
      7 C07         2.4670   -0.2190   -0.7330 ca        1 WOW     -0.184300
      8 C08         2.2550   -0.7600   -2.1060 c3        1 WOW      0.183100
      9 N09         3.4810   -0.5550   -2.9750 n4        1 WOW     -0.560800
     10 C10         3.6980   -1.7360   -3.8870 c3        1 WOW      0.108500
     11 C11         2.5260   -2.1050   -4.8140 c3        1 WOW     -0.101400
     12 C12         3.1410   -2.2620   -6.2180 c3        1 WOW      0.218800
     13 N13         4.5780   -2.1590   -6.0940 n3        1 WOW     -0.818500
     14 C14         4.9370   -1.5820   -4.8280 c3        1 WOW      0.218800
     15 S15         5.6500   -2.9510   -7.0740 s6        1 WOW      1.469900
     16 C16         5.9020   -1.8520   -8.3300 c3        1 WOW     -0.374300
     17 O17         6.8430   -3.1070   -6.3460 o         1 WOW     -0.635800
     18 O18         5.0250   -4.0990   -7.5830 o         1 WOW     -0.635800
     19 C19         3.4950    0.7520   -3.6520 ca        1 WOW      0.000600
     20 C20         4.6470    1.5560   -3.5290 ca        1 WOW     -0.122000
     21 C21         4.6910    2.8010   -4.1470 ca        1 WOW     -0.065000
     22 C22         3.6020    3.2670   -4.8960 ca        1 WOW      0.054000
     23 C23         3.6730    4.5410   -5.5210 cg        1 WOW      0.190800
     24 N24         3.7360    5.5840   -6.0310 n1        1 WOW     -0.259800
     25 C25         2.4510    2.4660   -5.0140 ca        1 WOW      0.049400
     26 CL26        1.1160    2.9910   -5.9010 cl        1 WOW      0.000600
     27 C27         2.3960    1.2130   -4.3900 ca        1 WOW     -0.111000
     28 H01         0.5670    2.6520   -0.6610 hc        1 WOW      0.057367
     29 H01A       -0.1000    1.0830   -1.2690 hc        1 WOW      0.057367
     30 H01B        1.2850    1.8840   -2.1350 hc        1 WOW      0.057367
     31 H03         1.4730    2.2390    1.4190 ha        1 WOW      0.158000
     32 H04         3.0260    1.0040    2.9240 ha        1 WOW      0.161000
     33 H05         4.2190   -1.0320    2.0960 ha        1 WOW      0.159000
     34 H06         3.8420   -1.8270   -0.2300 ha        1 WOW      0.128000
     35 H08         1.3690   -0.2810   -2.6090 hx        1 WOW      0.105200
     36 H08A        2.0700   -1.8730   -2.0510 hx        1 WOW      0.105200
     37 H10         3.8930   -2.6020   -3.1830 hx        1 WOW      0.104700
     38 H11         1.7160   -1.3370   -4.8310 hc        1 WOW      0.078200
     39 H11A        2.0730   -3.0710   -4.4760 hc        1 WOW      0.078200
     40 H12         2.7540   -1.4490   -6.8950 h1        1 WOW      0.076700
     41 H12A        2.8610   -3.2590   -6.6640 h1        1 WOW      0.076700
     42 H14         5.8240   -2.1200   -4.3850 h1        1 WOW      0.077200
     43 H14A        5.2110   -0.4960   -4.9600 h1        1 WOW      0.077200
     44 H16         6.5400   -2.3160   -9.1310 h1        1 WOW      0.128700
     45 H16A        4.9680   -1.5210   -8.8490 h1        1 WOW      0.128700
     46 H16B        6.4390   -0.9230   -8.0180 h1        1 WOW      0.128700
     47 H20         5.5220    1.2240   -2.9440 ha        1 WOW      0.163000
     48 H21         5.5950    3.4290   -4.0460 ha        1 WOW      0.184000
     49 H27         1.4740    0.6170   -4.4990 ha        1 WOW      0.168000
     50 H091        4.2940   -0.5510   -2.3320 hn        1 WOW      0.454800
@<TRIPOS>BOND
     1    1    2 1   
     2    1   28 1   
     3    1   29 1   
     4    1   30 1   
     5    2    3 ar  
     6    2    7 ar  
     7    3    4 ar  
     8    3   31 1   
     9    4    5 ar  
    10    4   32 1   
    11    5    6 ar  
    12    5   33 1   
    13    6    7 ar  
    14    6   34 1   
    15    7    8 1   
    16    8    9 1   
    17    8   35 1   
    18    8   36 1   
    19    9   10 1   
    20    9   19 1   
    21    9   50 1   
    22   10   11 1   
    23   10   14 1   
    24   10   37 1   
    25   11   12 1   
    26   11   38 1   
    27   11   39 1   
    28   12   13 1   
    29   12   40 1   
    30   12   41 1   
    31   13   14 1   
    32   13   15 1   
    33   14   42 1   
    34   14   43 1   
    35   15   16 1   
    36   15   17 2   
    37   15   18 2   
    38   16   44 1   
    39   16   45 1   
    40   16   46 1   
    41   19   20 ar  
    42   19   27 ar  
    43   20   21 ar  
    44   20   47 1   
    45   21   22 ar  
    46   21   48 1   
    47   22   23 1   
    48   22   25 ar  
    49   23   24 3   
    50   25   26 1   
    51   25   27 ar  
    52   27   49 1   
@<TRIPOS>SUBSTRUCTURE
     1 WOW         1 TEMP              0 ****  ****    0 ROOT
