@<TRIPOS>MOLECULE
WOW
   49    51     1     0     0
SMALL
bcc


@<TRIPOS>ATOM
      1 C01        -0.0230    0.3160   -0.1790 c3        1 WOW     -0.058800
      2 C02         1.4300    0.0620   -0.0410 ca        1 WOW     -0.074300
      3 C03         2.0020   -0.0130    1.2340 ca        1 WOW     -0.125000
      4 C04         3.3660   -0.2490    1.3890 ca        1 WOW     -0.122000
      5 C05         4.1730   -0.4140    0.2640 ca        1 WOW     -0.127000
      6 C06         3.6130   -0.3420   -1.0100 ca        1 WOW     -0.120000
      7 C07         2.2470   -0.1030   -1.1770 ca        1 WOW     -0.123300
      8 C08         1.5870   -0.0330   -2.5260 c3        1 WOW      0.260100
      9 N09         2.4120   -0.0610   -3.7110 nh        1 WOW     -0.682000
     10 C10         2.8620   -1.3590   -4.1620 c3        1 WOW      0.229500
     11 C11         2.2740   -1.8160   -5.5210 c3        1 WOW     -0.103400
     12 C12         3.4560   -2.3450   -6.3440 c3        1 WOW      0.224800
     13 N13         4.6550   -2.2590   -5.5380 n3        1 WOW     -0.836500
     14 C14         4.4090   -1.5350   -4.3130 c3        1 WOW      0.201800
     15 S15         6.0390   -3.0330   -5.8760 s6        1 WOW      1.472900
     16 C16         6.9380   -1.8680   -6.7300 c3        1 WOW     -0.361300
     17 O17         6.7320   -3.3250   -4.6830 o         1 WOW     -0.652300
     18 O18         5.7870   -4.1110   -6.7480 o         1 WOW     -0.652300
     19 C19         2.9830    1.1260   -4.1790 ca        1 WOW      0.213600
     20 C20         3.5060    1.2240   -5.4950 ca        1 WOW     -0.203000
     21 C21         3.9940    2.4260   -5.9810 ca        1 WOW     -0.051000
     22 C22         3.9900    3.5830   -5.1880 ca        1 WOW     -0.061000
     23 C23         4.4880    4.8020   -5.7160 cg        1 WOW      0.241800
     24 N24         4.8970    5.7980   -6.1570 n1        1 WOW     -0.360800
     25 C25         3.4920    3.4970   -3.8780 ca        1 WOW      0.089400
     26 Cl26        3.4840    4.8640   -2.8710 cl        1 WOW     -0.067400
     27 C27         3.0050    2.2930   -3.3740 ca        1 WOW     -0.204000
     28 H01        -0.2000    1.3050   -0.6750 hc        1 WOW      0.046700
     29 H01A       -0.5030   -0.4780   -0.8040 hc        1 WOW      0.046700
     30 H01B       -0.5290    0.3300    0.8170 hc        1 WOW      0.046700
     31 H03         1.3660    0.1170    2.1230 ha        1 WOW      0.135000
     32 H04         3.8040   -0.3040    2.3960 ha        1 WOW      0.136000
     33 H05         5.2500   -0.6010    0.3790 ha        1 WOW      0.138000
     34 H06         4.2670   -0.4760   -1.8860 ha        1 WOW      0.132000
     35 H08         0.8680   -0.9060   -2.5960 h1        1 WOW      0.066200
     36 H08A        0.9610    0.9090   -2.5660 h1        1 WOW      0.066200
     37 H10         2.5310   -2.1090   -3.3800 h1        1 WOW      0.073700
     38 H11         1.5240   -2.6260   -5.3500 hc        1 WOW      0.065700
     39 H11A        1.7610   -0.9850   -6.0640 hc        1 WOW      0.065700
     40 H12         3.2830   -3.4140   -6.6550 h1        1 WOW      0.052700
     41 H12A        3.5840   -1.7290   -7.2790 h1        1 WOW      0.052700
     42 H14         4.9360   -0.5390   -4.3430 h1        1 WOW      0.062700
     43 H14A        4.8100   -2.1180   -3.4370 h1        1 WOW      0.062700
     44 H16         7.1310   -0.9350   -6.1470 h1        1 WOW      0.115033
     45 H16A        7.9450   -2.2790   -7.0000 h1        1 WOW      0.115033
     46 H16B        6.4630   -1.5560   -7.6910 h1        1 WOW      0.115033
     47 H20         3.5240    0.3390   -6.1510 ha        1 WOW      0.147000
     48 H21         4.3860    2.4780   -7.0090 ha        1 WOW      0.147000
     49 H27         2.6530    2.2570   -2.3290 ha        1 WOW      0.163000
@<TRIPOS>BOND
     1    1    2 1   
     2    1   28 1   
     3    1   29 1   
     4    1   30 1   
     5    2    3 ar  
     6    2    7 ar  
     7    3    4 ar  
     8    3   31 1   
     9    4    5 ar  
    10    4   32 1   
    11    5    6 ar  
    12    5   33 1   
    13    6    7 ar  
    14    6   34 1   
    15    7    8 1   
    16    8    9 1   
    17    8   35 1   
    18    8   36 1   
    19    9   10 1   
    20    9   19 1   
    21   10   11 1   
    22   10   14 1   
    23   10   37 1   
    24   11   12 1   
    25   11   38 1   
    26   11   39 1   
    27   12   13 1   
    28   12   40 1   
    29   12   41 1   
    30   13   14 1   
    31   13   15 1   
    32   14   42 1   
    33   14   43 1   
    34   15   16 1   
    35   15   17 2   
    36   15   18 2   
    37   16   44 1   
    38   16   45 1   
    39   16   46 1   
    40   19   20 ar  
    41   19   27 ar  
    42   20   21 ar  
    43   20   47 1   
    44   21   22 ar  
    45   21   48 1   
    46   22   23 1   
    47   22   25 ar  
    48   23   24 3   
    49   25   26 1   
    50   25   27 ar  
    51   27   49 1   
@<TRIPOS>SUBSTRUCTURE
     1 WOW         1 TEMP              0 ****  ****    0 ROOT
