@<TRIPOS>MOLECULE
WP5
   40    42     1     0     0
SMALL
bcc


@<TRIPOS>ATOM
      1 CAP        -0.3400    0.4070    0.9150 c3        1 WP5      0.125700
      2 OAO         1.0800    0.5450    0.8500 os        1 WP5     -0.436900
      3 C           1.8200   -0.3550    1.5640 c         1 WP5      0.600100
      4 O           1.2320   -1.2330    2.1930 o         1 WP5     -0.533000
      5 CA          3.3130   -0.1270    1.3800 c3        1 WP5      0.189800
      6 N           4.1110   -0.1960    2.5630 nh        1 WP5     -0.783600
      7 CAU         4.5720   -1.4190    3.0860 c2        1 WP5      0.667200
      8 CAW         4.0800   -2.6930    2.4320 c3        1 WP5     -0.153400
      9 NAT         5.4390   -1.5270    4.0730 ne        1 WP5     -0.645100
     10 CAS         5.9440   -0.3590    4.6660 ca        1 WP5      0.176400
     11 CAR         6.9730   -0.4470    5.6300 ca        1 WP5     -0.114000
     12 CAQ         7.4900    0.7050    6.2070 ca        1 WP5     -0.093000
     13 CAH         7.0020    1.9660    5.8440 ca        1 WP5     -0.042900
     14 BrA         7.7170    3.5100    6.6250 br        1 WP5     -0.091100
     15 CAI         5.9810    2.0710    4.8990 ca        1 WP5     -0.074000
     16 CAJ         5.4520    0.9210    4.3170 ca        1 WP5     -0.141300
     17 CAK         4.3350    1.0420    3.3040 c3        1 WP5      0.337100
     18 CAE         3.0980    1.5730    4.0000 ca        1 WP5     -0.127300
     19 CAF         2.6420    2.8620    3.7000 ca        1 WP5     -0.107000
     20 CAC         1.5290    3.3820    4.3590 ca        1 WP5     -0.130500
     21 CAB         0.8640    2.6180    5.3180 ca        1 WP5     -0.121000
     22 CAA         1.3140    1.3320    5.6170 ca        1 WP5     -0.130500
     23 CAD         2.4290    0.8100    4.9630 ca        1 WP5     -0.107000
     24 HAP1       -0.6440   -0.5870    0.5060 h1        1 WP5      0.053367
     25 HAP2       -0.6830    0.5070    1.9730 h1        1 WP5      0.053367
     26 HAP3       -0.7160    1.2460    0.2800 h1        1 WP5      0.053367
     27 HA1C        3.4510    0.8880    0.9030 h1        1 WP5      0.086700
     28 HA2C        3.6540   -0.9140    0.6440 h1        1 WP5      0.086700
     29 HAK         4.6580    1.8170    2.5350 h1        1 WP5      0.059700
     30 HAW1        4.5270   -2.7850    1.4120 hc        1 WP5      0.073033
     31 HAW2        4.3860   -3.5860    3.0330 hc        1 WP5      0.073033
     32 HAW3        2.9640   -2.6820    2.3570 hc        1 WP5      0.073033
     33 HAR         7.3680   -1.4330    5.9210 ha        1 WP5      0.154000
     34 HAQ         8.2930    0.6180    6.9560 ha        1 WP5      0.147000
     35 HAI         5.5790    3.0560    4.6120 ha        1 WP5      0.147000
     36 HAF         3.1620    3.4700    2.9450 ha        1 WP5      0.137000
     37 HAD         2.7840   -0.2030    5.2040 ha        1 WP5      0.137000
     38 HAC         1.1780    4.3960    4.1220 ha        1 WP5      0.135000
     39 HAB        -0.0140    3.0300    5.8380 ha        1 WP5      0.133000
     40 HAA         0.7910    0.7270    6.3720 ha        1 WP5      0.135000
@<TRIPOS>BOND
     1    1    2 1   
     2    1   24 1   
     3    1   25 1   
     4    1   26 1   
     5    2    3 1   
     6    3    4 2   
     7    3    5 1   
     8    5    6 1   
     9    5   27 1   
    10    5   28 1   
    11    6    7 1   
    12    6   17 1   
    13    7    8 1   
    14    7    9 2   
    15    8   30 1   
    16    8   31 1   
    17    8   32 1   
    18    9   10 1   
    19   10   11 ar  
    20   10   16 ar  
    21   11   12 ar  
    22   11   33 1   
    23   12   13 ar  
    24   12   34 1   
    25   13   14 1   
    26   13   15 ar  
    27   15   16 ar  
    28   15   35 1   
    29   16   17 1   
    30   17   18 1   
    31   17   29 1   
    32   18   19 ar  
    33   18   23 ar  
    34   19   20 ar  
    35   19   36 1   
    36   20   21 ar  
    37   20   38 1   
    38   21   22 ar  
    39   21   39 1   
    40   22   23 ar  
    41   22   40 1   
    42   23   37 1   
@<TRIPOS>SUBSTRUCTURE
     1 WP5         1 TEMP              0 ****  ****    0 ROOT
