@<TRIPOS>MOLECULE
WP5
   40    42     1     0     0
SMALL
bcc


@<TRIPOS>ATOM
      1 CAP        -0.3420    0.4020    0.9180 c3        1 WP5      0.125700
      2 OAO         1.0780    0.5480    0.8520 os        1 WP5     -0.436900
      3 C           1.8240   -0.3520    1.5590 c         1 WP5      0.600100
      4 O           1.2410   -1.2380    2.1840 o         1 WP5     -0.533000
      5 CA          3.3150   -0.1150    1.3760 c3        1 WP5      0.189800
      6 N           4.1140   -0.1860    2.5580 nh        1 WP5     -0.783600
      7 CAU         4.5830   -1.4100    3.0730 c2        1 WP5      0.667200
      8 CAW         4.0980   -2.6830    2.4120 c3        1 WP5     -0.153400
      9 NAT         5.4520   -1.5180    4.0580 ne        1 WP5     -0.645100
     10 CAS         5.9500   -0.3510    4.6580 ca        1 WP5      0.176400
     11 CAR         6.9810   -0.4390    5.6200 ca        1 WP5     -0.114000
     12 CAQ         7.4920    0.7130    6.2030 ca        1 WP5     -0.093000
     13 CAH         6.9960    1.9730    5.8480 ca        1 WP5     -0.042900
     14 BRA         7.7030    3.5160    6.6380 br        1 WP5     -0.091100
     15 CAI         5.9730    2.0780    4.9060 ca        1 WP5     -0.074000
     16 CAJ         5.4500    0.9280    4.3170 ca        1 WP5     -0.141300
     17 CAK         4.3320    1.0490    3.3060 c3        1 WP5      0.337100
     18 CAE         3.0920    1.5690    4.0070 ca        1 WP5     -0.127300
     19 CAF         2.6290    2.8560    3.7150 ca        1 WP5     -0.107000
     20 CAC         1.5130    3.3650    4.3790 ca        1 WP5     -0.130500
     21 CAB         0.8530    2.5920    5.3330 ca        1 WP5     -0.121000
     22 CAA         1.3110    1.3070    5.6240 ca        1 WP5     -0.130500
     23 CAD         2.4290    0.7960    4.9650 ca        1 WP5     -0.107000
     24 HAP1       -0.6400   -0.5910    0.5030 h1        1 WP5      0.053367
     25 HAP2       -0.6840    0.4930    1.9770 h1        1 WP5      0.053367
     26 HAP3       -0.7230    1.2420    0.2880 h1        1 WP5      0.053367
     27 HA1C        3.6590   -0.8950    0.6350 h1        1 WP5      0.086700
     28 HA2C        3.4460    0.9040    0.9050 h1        1 WP5      0.086700
     29 HAK         4.6490    1.8310    2.5420 h1        1 WP5      0.059700
     30 HAW1        4.5450   -2.7660    1.3910 hc        1 WP5      0.073033
     31 HAW2        2.9810   -2.6770    2.3370 hc        1 WP5      0.073033
     32 HAW3        4.4090   -3.5770    3.0070 hc        1 WP5      0.073033
     33 HAR         7.3820   -1.4240    5.9050 ha        1 WP5      0.154000
     34 HAQ         8.2960    0.6260    6.9510 ha        1 WP5      0.147000
     35 HAI         5.5650    3.0620    4.6250 ha        1 WP5      0.147000
     36 HAF         3.1440    3.4720    2.9630 ha        1 WP5      0.137000
     37 HAD         2.7900   -0.2170    5.2000 ha        1 WP5      0.137000
     38 HAC         1.1550    4.3790    4.1480 ha        1 WP5      0.135000
     39 HAB        -0.0260    2.9950    5.8560 ha        1 WP5      0.133000
     40 HAA         0.7930    0.6940    6.3760 ha        1 WP5      0.135000
@<TRIPOS>BOND
     1    1    2 1   
     2    1   24 1   
     3    1   25 1   
     4    1   26 1   
     5    2    3 1   
     6    3    4 2   
     7    3    5 1   
     8    5    6 1   
     9    5   27 1   
    10    5   28 1   
    11    6    7 1   
    12    6   17 1   
    13    7    8 1   
    14    7    9 2   
    15    8   30 1   
    16    8   31 1   
    17    8   32 1   
    18    9   10 1   
    19   10   11 ar  
    20   10   16 ar  
    21   11   12 ar  
    22   11   33 1   
    23   12   13 ar  
    24   12   34 1   
    25   13   14 1   
    26   13   15 ar  
    27   15   16 ar  
    28   15   35 1   
    29   16   17 1   
    30   17   18 1   
    31   17   29 1   
    32   18   19 ar  
    33   18   23 ar  
    34   19   20 ar  
    35   19   36 1   
    36   20   21 ar  
    37   20   38 1   
    38   21   22 ar  
    39   21   39 1   
    40   22   23 ar  
    41   22   40 1   
    42   23   37 1   
@<TRIPOS>SUBSTRUCTURE
     1 WP5         1 TEMP              0 ****  ****    0 ROOT
