@<TRIPOS>MOLECULE
WP5
   40    42     1     0     0
SMALL
bcc


@<TRIPOS>ATOM
      1 CAP         5.7480    0.8520    1.1440 c3        1 WP5      0.125700
      2 OAO         4.5820    0.1160    1.5180 os        1 WP5     -0.436900
      3 C           3.9800   -0.6220    0.5390 c         1 WP5      0.600100
      4 O           4.4810   -0.6300   -0.5860 o         1 WP5     -0.533000
      5 CA          2.7780   -1.3880    1.0710 c3        1 WP5      0.189800
      6 N           1.6080   -1.3730    0.2510 nh        1 WP5     -0.783600
      7 CAU         1.4360   -2.2620   -0.8270 c2        1 WP5      0.667200
      8 CAW         2.6000   -3.1600   -1.1900 c3        1 WP5     -0.153400
      9 NAT         0.3150   -2.3980   -1.5070 ne        1 WP5     -0.645100
     10 CAS        -0.7920   -1.6080   -1.1610 ca        1 WP5      0.176400
     11 CAR        -2.0400   -1.8330   -1.7840 ca        1 WP5     -0.114000
     12 CAQ        -3.1440   -1.0680   -1.4330 ca        1 WP5     -0.093000
     13 CAH        -3.0380   -0.0670   -0.4600 ca        1 WP5     -0.042900
     14 BRA        -4.5390    0.9490    0.0080 br        1 WP5     -0.091100
     15 CAI        -1.8120    0.1740    0.1600 ca        1 WP5     -0.074000
     16 CAJ        -0.6960   -0.5860   -0.1880 ca        1 WP5     -0.141300
     17 CAK         0.6320   -0.3100    0.4800 c3        1 WP5      0.337100
     18 CAE         1.1140    1.0650    0.0620 ca        1 WP5     -0.127300
     19 CAF         1.1540    2.0950    1.0090 ca        1 WP5     -0.107000
     20 CAC         1.5570    3.3750    0.6340 ca        1 WP5     -0.130500
     21 CAB         1.9240    3.6350   -0.6870 ca        1 WP5     -0.121000
     22 CAA         1.8880    2.6100   -1.6330 ca        1 WP5     -0.130500
     23 CAD         1.4820    1.3290   -1.2610 ca        1 WP5     -0.107000
     24 HAP1        6.0430    1.3760    2.0860 h1        1 WP5      0.053367
     25 HAP2        6.5450    0.1510    0.7970 h1        1 WP5      0.053367
     26 HAP3        5.4960    1.5770    0.3330 h1        1 WP5      0.053367
     27 HA1C        3.1310   -2.4520    1.2110 h1        1 WP5      0.086700
     28 HA2C        2.5200   -0.9630    2.0860 h1        1 WP5      0.086700
     29 HAK         0.4490   -0.2840    1.6030 h1        1 WP5      0.059700
     30 HAW1        2.7470   -3.9220   -0.3850 hc        1 WP5      0.073033
     31 HAW2        2.3970   -3.6960   -2.1500 hc        1 WP5      0.073033
     32 HAW3        3.5320   -2.5530   -1.3120 hc        1 WP5      0.073033
     33 HAR        -2.1370   -2.6200   -2.5490 ha        1 WP5      0.154000
     34 HAQ        -4.1090   -1.2580   -1.9290 ha        1 WP5      0.147000
     35 HAI        -1.7110    0.9660    0.9200 ha        1 WP5      0.147000
     36 HAF         0.8660    1.8970    2.0520 ha        1 WP5      0.137000
     37 HAD         1.4500    0.5230   -2.0110 ha        1 WP5      0.137000
     38 HAC         1.5830    4.1810    1.3810 ha        1 WP5      0.135000
     39 HAB         2.2410    4.6460   -0.9820 ha        1 WP5      0.133000
     40 HAA         2.1770    2.8110   -2.6750 ha        1 WP5      0.135000
@<TRIPOS>BOND
     1    1    2 1   
     2    1   24 1   
     3    1   25 1   
     4    1   26 1   
     5    2    3 1   
     6    3    4 2   
     7    3    5 1   
     8    5    6 1   
     9    5   27 1   
    10    5   28 1   
    11    6    7 1   
    12    6   17 1   
    13    7    8 1   
    14    7    9 2   
    15    8   30 1   
    16    8   31 1   
    17    8   32 1   
    18    9   10 1   
    19   10   11 ar  
    20   10   16 ar  
    21   11   12 ar  
    22   11   33 1   
    23   12   13 ar  
    24   12   34 1   
    25   13   14 1   
    26   13   15 ar  
    27   15   16 ar  
    28   15   35 1   
    29   16   17 1   
    30   17   18 1   
    31   17   29 1   
    32   18   19 ar  
    33   18   23 ar  
    34   19   20 ar  
    35   19   36 1   
    36   20   21 ar  
    37   20   38 1   
    38   21   22 ar  
    39   21   39 1   
    40   22   23 ar  
    41   22   40 1   
    42   23   37 1   
@<TRIPOS>SUBSTRUCTURE
     1 WP5         1 TEMP              0 ****  ****    0 ROOT
