@<TRIPOS>MOLECULE
WP5
   40    42     1     0     0
SMALL
bcc


@<TRIPOS>ATOM
      1 CAP        -0.3470    0.4140    0.9250 c3        1 WP5      0.125700
      2 OAO         1.0730    0.5590    0.8570 os        1 WP5     -0.436900
      3 C           1.8190   -0.3440    1.5590 c         1 WP5      0.600100
      4 O           1.2370   -1.2320    2.1810 o         1 WP5     -0.533000
      5 CA          3.3110   -0.1070    1.3730 c3        1 WP5      0.189800
      6 N           4.1120   -0.1830    2.5540 nh        1 WP5     -0.783600
      7 CAU         4.5810   -1.4080    3.0640 c2        1 WP5      0.667200
      8 CAW         4.0940   -2.6790    2.4010 c3        1 WP5     -0.153400
      9 NAT         5.4520   -1.5200    4.0480 ne        1 WP5     -0.645100
     10 CAS         5.9520   -0.3550    4.6500 ca        1 WP5      0.176400
     11 CAR         6.9850   -0.4460    5.6090 ca        1 WP5     -0.114000
     12 CAQ         7.4980    0.7040    6.1950 ca        1 WP5     -0.093000
     13 CAH         7.0020    1.9650    5.8450 ca        1 WP5     -0.042900
     14 BRA         7.7110    3.5050    6.6380 br        1 WP5     -0.091100
     15 CAI         5.9770    2.0730    4.9050 ca        1 WP5     -0.074000
     16 CAJ         5.4520    0.9250    4.3140 ca        1 WP5     -0.141300
     17 CAK         4.3310    1.0500    3.3060 c3        1 WP5      0.337100
     18 CAE         3.0930    1.5670    4.0110 ca        1 WP5     -0.127300
     19 CAF         2.6290    2.8550    3.7250 ca        1 WP5     -0.107000
     20 CAC         1.5150    3.3620    4.3930 ca        1 WP5     -0.130500
     21 CAB         0.8570    2.5850    5.3460 ca        1 WP5     -0.121000
     22 CAA         1.3160    1.3000    5.6320 ca        1 WP5     -0.130500
     23 CAD         2.4320    0.7910    4.9680 ca        1 WP5     -0.107000
     24 HAP1       -0.6870    0.5010    1.9850 h1        1 WP5      0.053367
     25 HAP2       -0.7290    1.2570    0.2990 h1        1 WP5      0.053367
     26 HAP3       -0.6470   -0.5770    0.5060 h1        1 WP5      0.053367
     27 HA1C        3.4420    0.9130    0.9060 h1        1 WP5      0.086700
     28 HA2C        3.6530   -0.8860    0.6290 h1        1 WP5      0.086700
     29 HAK         4.6460    1.8340    2.5430 h1        1 WP5      0.059700
     30 HAW1        2.9770   -2.6720    2.3280 hc        1 WP5      0.073033
     31 HAW2        4.5390   -2.7590    1.3780 hc        1 WP5      0.073033
     32 HAW3        4.4050   -3.5760    2.9920 hc        1 WP5      0.073033
     33 HAR         7.3870   -1.4320    5.8900 ha        1 WP5      0.154000
     34 HAQ         8.3040    0.6140    6.9400 ha        1 WP5      0.147000
     35 HAI         5.5680    3.0580    4.6280 ha        1 WP5      0.147000
     36 HAF         3.1420    3.4740    2.9740 ha        1 WP5      0.137000
     37 HAD         2.7940   -0.2230    5.1990 ha        1 WP5      0.137000
     38 HAC         1.1560    4.3770    4.1660 ha        1 WP5      0.135000
     39 HAB        -0.0210    2.9870    5.8730 ha        1 WP5      0.133000
     40 HAA         0.8000    0.6840    6.3830 ha        1 WP5      0.135000
@<TRIPOS>BOND
     1    1    2 1   
     2    1   24 1   
     3    1   25 1   
     4    1   26 1   
     5    2    3 1   
     6    3    4 2   
     7    3    5 1   
     8    5    6 1   
     9    5   27 1   
    10    5   28 1   
    11    6    7 1   
    12    6   17 1   
    13    7    8 1   
    14    7    9 2   
    15    8   30 1   
    16    8   31 1   
    17    8   32 1   
    18    9   10 1   
    19   10   11 ar  
    20   10   16 ar  
    21   11   12 ar  
    22   11   33 1   
    23   12   13 ar  
    24   12   34 1   
    25   13   14 1   
    26   13   15 ar  
    27   15   16 ar  
    28   15   35 1   
    29   16   17 1   
    30   17   18 1   
    31   17   29 1   
    32   18   19 ar  
    33   18   23 ar  
    34   19   20 ar  
    35   19   36 1   
    36   20   21 ar  
    37   20   38 1   
    38   21   22 ar  
    39   21   39 1   
    40   22   23 ar  
    41   22   40 1   
    42   23   37 1   
@<TRIPOS>SUBSTRUCTURE
     1 WP5         1 TEMP              0 ****  ****    0 ROOT
