@<TRIPOS>MOLECULE
WP6
   44    47     1     0     0
SMALL
bcc


@<TRIPOS>ATOM
      1 CAD        -0.8050    0.4510   -0.1330 ca        1 WP6     -0.113500
      2 CAA         0.4960    0.6180   -0.6060 ca        1 WP6     -0.132000
      3 CAB         1.5830    0.3090    0.2120 ca        1 WP6     -0.124000
      4 CAC         1.3660   -0.1680    1.5050 ca        1 WP6     -0.132000
      5 CAF         0.0660   -0.3400    1.9790 ca        1 WP6     -0.113500
      6 CAE        -1.0260   -0.0340    1.1600 ca        1 WP6     -0.103300
      7 CAM        -2.4480   -0.2250    1.6540 c3        1 WP6      0.325100
      8 CAL        -2.6870   -1.6810    1.9700 ca        1 WP6     -0.134300
      9 CAK        -2.6180   -2.6270    0.9480 ca        1 WP6     -0.095000
     10 CAJ        -2.8410   -3.9730    1.2420 ca        1 WP6      0.000400
     11 CL         -2.7530   -5.1320   -0.0010 cl        1 WP6     -0.099400
     12 CAR        -3.1350   -4.3780    2.5490 ca        1 WP6     -0.114000
     13 CAS        -3.2150   -3.4390    3.5680 ca        1 WP6     -0.108000
     14 CAT        -2.9980   -2.0690    3.2950 ca        1 WP6      0.165400
     15 NAU        -3.1030   -1.1280    4.3300 ne        1 WP6     -0.654100
     16 CAV        -3.0190    0.1570    4.0360 c2        1 WP6      0.657200
     17 CAW        -3.1750    1.1400    5.1800 c3        1 WP6     -0.137400
     18 NAN        -2.7470    0.6780    2.7640 nh        1 WP6     -0.776600
     19 CAO        -3.0570    2.0370    2.3950 c3        1 WP6      0.264100
     20 CAP        -4.3810    2.2340    1.7060 ca        1 WP6     -0.121300
     21 CAX        -5.5590    2.3580    2.4480 ca        1 WP6     -0.116000
     22 CAY        -6.7770    2.5700    1.8020 ca        1 WP6     -0.129000
     23 CAQ        -6.8240    2.6590    0.4100 ca        1 WP6     -0.120000
     24 CAH        -5.6520    2.5350   -0.3340 ca        1 WP6     -0.129000
     25 CAG        -4.4340    2.3220    0.3100 ca        1 WP6     -0.116000
     26 HAD        -1.6580    0.6980   -0.7830 ha        1 WP6      0.135000
     27 HAA         0.6640    0.9940   -1.6260 ha        1 WP6      0.133000
     28 HAB         2.6080    0.4410   -0.1620 ha        1 WP6      0.132000
     29 HAC         2.2210   -0.4130    2.1520 ha        1 WP6      0.133000
     30 HAF        -0.1060   -0.7220    2.9970 ha        1 WP6      0.135000
     31 HAM        -3.1480    0.0500    0.7980 h1        1 WP6      0.061700
     32 HAK        -2.3790   -2.3090   -0.0790 ha        1 WP6      0.148000
     33 HAR        -3.3060   -5.4420    2.7720 ha        1 WP6      0.146000
     34 HAS        -3.4520   -3.7610    4.5940 ha        1 WP6      0.152000
     35 HAW1       -2.2890    1.8210    5.2210 hc        1 WP6      0.062700
     36 HAW2       -4.1040    1.7430    5.0370 hc        1 WP6      0.062700
     37 HAW3       -3.2510    0.6000    6.1560 hc        1 WP6      0.062700
     38 HAO1       -3.0260    2.6920    3.3110 h1        1 WP6      0.063200
     39 HAO2       -2.2350    2.3850    1.7000 h1        1 WP6      0.063200
     40 HAX        -5.5290    2.2880    3.5450 ha        1 WP6      0.131000
     41 HAG        -3.5100    2.2240   -0.2810 ha        1 WP6      0.131000
     42 HAY        -7.7000    2.6660    2.3910 ha        1 WP6      0.134500
     43 HAQ        -7.7850    2.8260   -0.0980 ha        1 WP6      0.134000
     44 HAH        -5.6860    2.6040   -1.4310 ha        1 WP6      0.134500
@<TRIPOS>BOND
     1    1    2 ar  
     2    1    6 ar  
     3    1   26 1   
     4    2    3 ar  
     5    2   27 1   
     6    3    4 ar  
     7    3   28 1   
     8    4    5 ar  
     9    4   29 1   
    10    5    6 ar  
    11    5   30 1   
    12    6    7 1   
    13    7    8 1   
    14    7   18 1   
    15    7   31 1   
    16    8    9 ar  
    17    8   14 ar  
    18    9   10 ar  
    19    9   32 1   
    20   10   11 1   
    21   10   12 ar  
    22   12   13 ar  
    23   12   33 1   
    24   13   14 ar  
    25   13   34 1   
    26   14   15 1   
    27   15   16 2   
    28   16   17 1   
    29   16   18 1   
    30   17   35 1   
    31   17   36 1   
    32   17   37 1   
    33   18   19 1   
    34   19   20 1   
    35   19   38 1   
    36   19   39 1   
    37   20   21 ar  
    38   20   25 ar  
    39   21   22 ar  
    40   21   40 1   
    41   22   23 ar  
    42   22   42 1   
    43   23   24 ar  
    44   23   43 1   
    45   24   25 ar  
    46   24   44 1   
    47   25   41 1   
@<TRIPOS>SUBSTRUCTURE
     1 WP6         1 TEMP              0 ****  ****    0 ROOT
