@<TRIPOS>MOLECULE
WP6
   44    47     1     0     0
SMALL
bcc


@<TRIPOS>ATOM
      1 CAD        -0.8070    0.4560   -0.1350 ca        1 WP6     -0.113500
      2 CAA         0.4930    0.6250   -0.6090 ca        1 WP6     -0.132000
      3 CAB         1.5810    0.3150    0.2070 ca        1 WP6     -0.124000
      4 CAC         1.3650   -0.1660    1.4990 ca        1 WP6     -0.132000
      5 CAF         0.0660   -0.3380    1.9750 ca        1 WP6     -0.113500
      6 CAE        -1.0260   -0.0320    1.1570 ca        1 WP6     -0.103300
      7 CAM        -2.4480   -0.2240    1.6530 c3        1 WP6      0.325100
      8 CAL        -2.6860   -1.6810    1.9660 ca        1 WP6     -0.134300
      9 CAK        -2.6180   -2.6250    0.9430 ca        1 WP6     -0.095000
     10 CAJ        -2.8400   -3.9710    1.2340 ca        1 WP6      0.000400
     11 Cl         -2.7530   -5.1280   -0.0100 cl        1 WP6     -0.099400
     12 CAR        -3.1320   -4.3790    2.5410 ca        1 WP6     -0.114000
     13 CAS        -3.2110   -3.4420    3.5620 ca        1 WP6     -0.108000
     14 CAT        -2.9950   -2.0710    3.2910 ca        1 WP6      0.165400
     15 NAU        -3.0990   -1.1320    4.3280 ne        1 WP6     -0.654100
     16 CAV        -3.0160    0.1530    4.0360 c2        1 WP6      0.657200
     17 CAW        -3.1710    1.1340    5.1820 c3        1 WP6     -0.137400
     18 NAN        -2.7460    0.6770    2.7650 nh        1 WP6     -0.776600
     19 CAO        -3.0580    2.0360    2.3980 c3        1 WP6      0.264100
     20 CAP        -4.3830    2.2330    1.7110 ca        1 WP6     -0.121300
     21 CAX        -5.5600    2.3550    2.4550 ca        1 WP6     -0.116000
     22 CAY        -6.7790    2.5670    1.8110 ca        1 WP6     -0.129000
     23 CAQ        -6.8280    2.6580    0.4200 ca        1 WP6     -0.120000
     24 CAH        -5.6560    2.5370   -0.3260 ca        1 WP6     -0.129000
     25 CAG        -4.4380    2.3230    0.3160 ca        1 WP6     -0.116000
     26 HAD        -1.6610    0.7050   -0.7830 ha        1 WP6      0.135000
     27 HAA         0.6600    1.0030   -1.6280 ha        1 WP6      0.133000
     28 HAB         2.6060    0.4480   -0.1670 ha        1 WP6      0.132000
     29 HAC         2.2210   -0.4120    2.1450 ha        1 WP6      0.133000
     30 HAF        -0.1040   -0.7230    2.9920 ha        1 WP6      0.135000
     31 HAM        -3.1490    0.0520    0.7980 h1        1 WP6      0.061700
     32 HAK        -2.3810   -2.3050   -0.0840 ha        1 WP6      0.148000
     33 HAR        -3.3020   -5.4440    2.7620 ha        1 WP6      0.146000
     34 HAS        -3.4460   -3.7660    4.5880 ha        1 WP6      0.152000
     35 HAW1       -4.1010    1.7360    5.0420 hc        1 WP6      0.062700
     36 HAW2       -3.2450    0.5920    6.1570 hc        1 WP6      0.062700
     37 HAW3       -2.2860    1.8150    5.2230 hc        1 WP6      0.062700
     38 HAO1       -3.0260    2.6900    3.3160 h1        1 WP6      0.063200
     39 HAO2       -2.2360    2.3860    1.7030 h1        1 WP6      0.063200
     40 HAX        -5.5280    2.2820    3.5530 ha        1 WP6      0.131000
     41 HAG        -3.5140    2.2280   -0.2760 ha        1 WP6      0.131000
     42 HAY        -7.7020    2.6600    2.4020 ha        1 WP6      0.134500
     43 HAQ        -7.7900    2.8250   -0.0870 ha        1 WP6      0.134000
     44 HAH        -5.6930    2.6080   -1.4230 ha        1 WP6      0.134500
@<TRIPOS>BOND
     1    1    2 ar  
     2    1    6 ar  
     3    1   26 1   
     4    2    3 ar  
     5    2   27 1   
     6    3    4 ar  
     7    3   28 1   
     8    4    5 ar  
     9    4   29 1   
    10    5    6 ar  
    11    5   30 1   
    12    6    7 1   
    13    7    8 1   
    14    7   18 1   
    15    7   31 1   
    16    8    9 ar  
    17    8   14 ar  
    18    9   10 ar  
    19    9   32 1   
    20   10   11 1   
    21   10   12 ar  
    22   12   13 ar  
    23   12   33 1   
    24   13   14 ar  
    25   13   34 1   
    26   14   15 1   
    27   15   16 2   
    28   16   17 1   
    29   16   18 1   
    30   17   35 1   
    31   17   36 1   
    32   17   37 1   
    33   18   19 1   
    34   19   20 1   
    35   19   38 1   
    36   19   39 1   
    37   20   21 ar  
    38   20   25 ar  
    39   21   22 ar  
    40   21   40 1   
    41   22   23 ar  
    42   22   42 1   
    43   23   24 ar  
    44   23   43 1   
    45   24   25 ar  
    46   24   44 1   
    47   25   41 1   
@<TRIPOS>SUBSTRUCTURE
     1 WP6         1 TEMP              0 ****  ****    0 ROOT
