@<TRIPOS>MOLECULE
WP6
   44    47     1     0     0
SMALL
bcc


@<TRIPOS>ATOM
      1 CAD        -1.5020   -1.2210   -2.0270 ca        1 WP6     -0.113500
      2 CAA        -2.4620   -2.0400   -2.6210 ca        1 WP6     -0.132500
      3 CAB        -3.1880   -2.9430   -1.8450 ca        1 WP6     -0.124000
      4 CAC        -2.9550   -3.0230   -0.4720 ca        1 WP6     -0.132500
      5 CAF        -1.9990   -2.2030    0.1260 ca        1 WP6     -0.113500
      6 CAE        -1.2690   -1.2970   -0.6500 ca        1 WP6     -0.104300
      7 CAM        -0.2350   -0.3830   -0.0200 c3        1 WP6      0.327100
      8 CAL        -0.9270    0.6340    0.8570 ca        1 WP6     -0.134300
      9 CAK        -1.8580    1.5050    0.2920 ca        1 WP6     -0.095000
     10 CAJ        -2.4940    2.4480    1.0990 ca        1 WP6      0.000400
     11 CL         -3.6330    3.5110    0.4150 cl        1 WP6     -0.099400
     12 CAR        -2.2070    2.5260    2.4670 ca        1 WP6     -0.114000
     13 CAS        -1.2750    1.6670    3.0330 ca        1 WP6     -0.108000
     14 CAT        -0.6110    0.7070    2.2340 ca        1 WP6      0.164400
     15 NAU         0.3480   -0.1360    2.8150 ne        1 WP6     -0.654100
     16 CAV         1.0210   -0.9660    2.0410 c2        1 WP6      0.652200
     17 CAW         2.0770   -1.8320    2.7000 c3        1 WP6     -0.140400
     18 NAN         0.8050   -1.1470    0.6670 nh        1 WP6     -0.775600
     19 CAO         1.7750   -1.7840   -0.1860 c3        1 WP6      0.261100
     20 CAP         2.8490   -0.9050   -0.7670 ca        1 WP6     -0.121300
     21 CAX         3.4610    0.1100   -0.0240 ca        1 WP6     -0.122000
     22 CAY         4.4830    0.8730   -0.5870 ca        1 WP6     -0.127000
     23 CAQ         4.9050    0.6260   -1.8930 ca        1 WP6     -0.126000
     24 CAH         4.2990   -0.3860   -2.6380 ca        1 WP6     -0.127000
     25 CAG         3.2740   -1.1470   -2.0790 ca        1 WP6     -0.122000
     26 HAD        -0.9330   -0.5110   -2.6450 ha        1 WP6      0.137000
     27 HAA        -2.6450   -1.9730   -3.7040 ha        1 WP6      0.133000
     28 HAB        -3.9450   -3.5880   -2.3140 ha        1 WP6      0.132000
     29 HAC        -3.5290   -3.7320    0.1430 ha        1 WP6      0.133000
     30 HAF        -1.8220   -2.2640    1.2100 ha        1 WP6      0.137000
     31 HAM         0.2710    0.1950   -0.8610 h1        1 WP6      0.059700
     32 HAK        -2.0900    1.4350   -0.7820 ha        1 WP6      0.149000
     33 HAR        -2.7180    3.2700    3.0970 ha        1 WP6      0.146000
     34 HAS        -1.0480    1.7340    4.1080 ha        1 WP6      0.152000
     35 HAW1        2.1290   -1.6270    3.7980 hc        1 WP6      0.064700
     36 HAW2        1.8250   -2.9110    2.5540 hc        1 WP6      0.064700
     37 HAW3        3.0780   -1.6170    2.2510 hc        1 WP6      0.064700
     38 HAO1        2.2790   -2.6180    0.3840 h1        1 WP6      0.066200
     39 HAO2        1.1990   -2.2600   -1.0360 h1        1 WP6      0.066200
     40 HAX         3.1360    0.3150    1.0080 ha        1 WP6      0.135000
     41 HAG         2.7980   -1.9420   -2.6720 ha        1 WP6      0.135000
     42 HAY         4.9560    1.6730    0.0030 ha        1 WP6      0.134000
     43 HAQ         5.7110    1.2290   -2.3360 ha        1 WP6      0.134000
     44 HAH         4.6290   -0.5840   -3.6680 ha        1 WP6      0.134000
@<TRIPOS>BOND
     1    1    2 ar  
     2    1    6 ar  
     3    1   26 1   
     4    2    3 ar  
     5    2   27 1   
     6    3    4 ar  
     7    3   28 1   
     8    4    5 ar  
     9    4   29 1   
    10    5    6 ar  
    11    5   30 1   
    12    6    7 1   
    13    7    8 1   
    14    7   18 1   
    15    7   31 1   
    16    8    9 ar  
    17    8   14 ar  
    18    9   10 ar  
    19    9   32 1   
    20   10   11 1   
    21   10   12 ar  
    22   12   13 ar  
    23   12   33 1   
    24   13   14 ar  
    25   13   34 1   
    26   14   15 1   
    27   15   16 2   
    28   16   17 1   
    29   16   18 1   
    30   17   35 1   
    31   17   36 1   
    32   17   37 1   
    33   18   19 1   
    34   19   20 1   
    35   19   38 1   
    36   19   39 1   
    37   20   21 ar  
    38   20   25 ar  
    39   21   22 ar  
    40   21   40 1   
    41   22   23 ar  
    42   22   42 1   
    43   23   24 ar  
    44   23   43 1   
    45   24   25 ar  
    46   24   44 1   
    47   25   41 1   
@<TRIPOS>SUBSTRUCTURE
     1 WP6         1 TEMP              0 ****  ****    0 ROOT
