@<TRIPOS>MOLECULE
WP6
   44    47     1     0     0
SMALL
bcc


@<TRIPOS>ATOM
      1 CAD        -0.8120    0.4230   -0.1450 ca        1 WP6     -0.113500
      2 CAA         0.4880    0.5750   -0.6240 ca        1 WP6     -0.132000
      3 CAB         1.5760    0.2590    0.1910 ca        1 WP6     -0.124000
      4 CAC         1.3600   -0.2100    1.4860 ca        1 WP6     -0.132000
      5 CAF         0.0610   -0.3670    1.9670 ca        1 WP6     -0.113500
      6 CAE        -1.0310   -0.0540    1.1520 ca        1 WP6     -0.103300
      7 CAM        -2.4530   -0.2290    1.6530 c3        1 WP6      0.325100
      8 CAL        -2.7070   -1.6820    1.9700 ca        1 WP6     -0.134300
      9 CAK        -2.6520   -2.6300    0.9480 ca        1 WP6     -0.095000
     10 CAJ        -2.8890   -3.9720    1.2430 ca        1 WP6      0.000400
     11 CL         -2.8190   -5.1330    0.0010 cl        1 WP6     -0.099400
     12 CAR        -3.1820   -4.3740    2.5520 ca        1 WP6     -0.114000
     13 CAS        -3.2480   -3.4340    3.5710 ca        1 WP6     -0.108000
     14 CAT        -3.0160   -2.0660    3.2970 ca        1 WP6      0.165400
     15 NAU        -3.1070   -1.1240    4.3320 ne        1 WP6     -0.654100
     16 CAV        -3.0100    0.1590    4.0370 c2        1 WP6      0.657200
     17 CAW        -3.1490    1.1450    5.1820 c3        1 WP6     -0.137400
     18 NAN        -2.7370    0.6770    2.7640 nh        1 WP6     -0.776600
     19 CAO        -3.0330    2.0400    2.3960 c3        1 WP6      0.264100
     20 CAP        -4.3580    2.2520    1.7130 ca        1 WP6     -0.121300
     21 CAX        -5.5310    2.3910    2.4600 ca        1 WP6     -0.116000
     22 CAY        -6.7490    2.6170    1.8190 ca        1 WP6     -0.129000
     23 CAQ        -6.8020    2.7050    0.4280 ca        1 WP6     -0.120000
     24 CAH        -5.6340    2.5660   -0.3220 ca        1 WP6     -0.129000
     25 CAG        -4.4160    2.3380    0.3180 ca        1 WP6     -0.116000
     26 HAD        -1.6660    0.6760   -0.7910 ha        1 WP6      0.135000
     27 HAA         0.6560    0.9450   -1.6460 ha        1 WP6      0.133000
     28 HAB         2.6010    0.3800   -0.1890 ha        1 WP6      0.132000
     29 HAC         2.2160   -0.4610    2.1300 ha        1 WP6      0.133000
     30 HAF        -0.1100   -0.7430    2.9870 ha        1 WP6      0.135000
     31 HAM        -3.1550    0.0540    0.8000 h1        1 WP6      0.061700
     32 HAK        -2.4140   -2.3140   -0.0800 ha        1 WP6      0.148000
     33 HAR        -3.3640   -5.4360    2.7750 ha        1 WP6      0.146000
     34 HAS        -3.4830   -3.7530    4.5980 ha        1 WP6      0.152000
     35 HAW1       -3.2270    0.6060    6.1590 hc        1 WP6      0.062700
     36 HAW2       -2.2560    1.8150    5.2190 hc        1 WP6      0.062700
     37 HAW3       -4.0730    1.7580    5.0430 hc        1 WP6      0.062700
     38 HAO1       -2.9900    2.6950    3.3120 h1        1 WP6      0.063200
     39 HAO2       -2.2100    2.3780    1.6980 h1        1 WP6      0.063200
     40 HAX        -5.4960    2.3220    3.5580 ha        1 WP6      0.131000
     41 HAG        -3.4960    2.2290   -0.2770 ha        1 WP6      0.131000
     42 HAY        -7.6680    2.7240    2.4130 ha        1 WP6      0.134500
     43 HAQ        -7.7630    2.8820   -0.0760 ha        1 WP6      0.134000
     44 HAH        -5.6730    2.6340   -1.4190 ha        1 WP6      0.134500
@<TRIPOS>BOND
     1    1    2 ar  
     2    1    6 ar  
     3    1   26 1   
     4    2    3 ar  
     5    2   27 1   
     6    3    4 ar  
     7    3   28 1   
     8    4    5 ar  
     9    4   29 1   
    10    5    6 ar  
    11    5   30 1   
    12    6    7 1   
    13    7    8 1   
    14    7   18 1   
    15    7   31 1   
    16    8    9 ar  
    17    8   14 ar  
    18    9   10 ar  
    19    9   32 1   
    20   10   11 1   
    21   10   12 ar  
    22   12   13 ar  
    23   12   33 1   
    24   13   14 ar  
    25   13   34 1   
    26   14   15 1   
    27   15   16 2   
    28   16   17 1   
    29   16   18 1   
    30   17   35 1   
    31   17   36 1   
    32   17   37 1   
    33   18   19 1   
    34   19   20 1   
    35   19   38 1   
    36   19   39 1   
    37   20   21 ar  
    38   20   25 ar  
    39   21   22 ar  
    40   21   40 1   
    41   22   23 ar  
    42   22   42 1   
    43   23   24 ar  
    44   23   43 1   
    45   24   25 ar  
    46   24   44 1   
    47   25   41 1   
@<TRIPOS>SUBSTRUCTURE
     1 WP6         1 TEMP              0 ****  ****    0 ROOT
