@<TRIPOS>MOLECULE
WP7
   60    64     1     0     0
SMALL
bcc


@<TRIPOS>ATOM
      1 CAD         2.6580   -1.3780    2.1160 ca        1 WP7     -0.113000
      2 CAA         3.1670   -2.4090    2.9040 ca        1 WP7     -0.131500
      3 CAB         4.0910   -3.3070    2.3710 ca        1 WP7     -0.123000
      4 CAC         4.5080   -3.1710    1.0470 ca        1 WP7     -0.131500
      5 CAF         4.0030   -2.1390    0.2560 ca        1 WP7     -0.113000
      6 CAE         3.0780   -1.2360    0.7890 ca        1 WP7     -0.109300
      7 CAN         2.5260   -0.0990   -0.0510 c3        1 WP7      0.334100
      8 CAM         3.6400    0.8570   -0.4070 ca        1 WP7     -0.139300
      9 CAL         4.3370    1.5060    0.6120 ca        1 WP7     -0.095000
     10 CAK         5.3630    2.3930    0.2860 ca        1 WP7     -0.000600
     11 CLA         6.2170    3.1850    1.5260 cl        1 WP7     -0.098400
     12 CAX         5.6970    2.6340   -1.0520 ca        1 WP7     -0.112000
     13 CAY         5.0020    1.9970   -2.0700 ca        1 WP7     -0.109000
     14 CAZ         3.9530    1.0990   -1.7660 ca        1 WP7      0.167400
     15 NBA         3.2420    0.4840   -2.8060 ne        1 WP7     -0.657100
     16 CBB         2.2090   -0.2820   -2.5070 c2        1 WP7      0.658200
     17 CBC         1.4380   -0.9010   -3.6560 c3        1 WP7     -0.139400
     18 NAO         1.7880   -0.5960   -1.2090 nh        1 WP7     -0.784600
     19 CAP         0.5040   -1.1880   -0.9430 c3        1 WP7      0.216800
     20 CAQ        -0.6580   -0.1640   -0.9060 c3        1 WP7      0.139800
     21 NAR        -1.9650   -0.8060   -0.8910 n3        1 WP7     -0.728600
     22 CAG        -3.0300    0.1500   -1.1630 c3        1 WP7      0.139800
     23 CAH        -4.4410   -0.4810   -1.1110 c3        1 WP7      0.082500
     24 CBD        -2.2030   -1.5780    0.3210 c3        1 WP7      0.139800
     25 CBE        -3.6130   -2.2030    0.3740 c3        1 WP7      0.082500
     26 NAS        -4.6790   -1.2680    0.0750 n         1 WP7     -0.446800
     27 CAT        -5.5370   -0.8650    1.0940 c         1 WP7      0.591600
     28 OAI        -5.4270   -1.3350    2.2470 o         1 WP7     -0.591100
     29 CAU        -6.6360    0.0770    0.8150 cc        1 WP7      0.183200
     30 CBF        -7.2820    0.9660    1.6570 cd        1 WP7     -0.183300
     31 CBG        -8.3360    1.5790    0.8820 cd        1 WP7     -0.274300
     32 CAW        -8.2760    1.0180   -0.3790 cc        1 WP7      0.259600
     33 OAV        -7.2390    0.0920   -0.4510 os        1 WP7     -0.351800
     34 HAD         1.9290   -0.6730    2.5430 ha        1 WP7      0.136000
     35 HAA         2.8380   -2.5130    3.9490 ha        1 WP7      0.134000
     36 HAB         4.4920   -4.1200    2.9940 ha        1 WP7      0.133000
     37 HAC         5.2390   -3.8760    0.6240 ha        1 WP7      0.134000
     38 HAF         4.3380   -2.0290   -0.7870 ha        1 WP7      0.136000
     39 HAN         1.7870    0.4770    0.5960 h1        1 WP7      0.050700
     40 HAL         4.0800    1.3060    1.6640 ha        1 WP7      0.149000
     41 HAX         6.5130    3.3310   -1.2990 ha        1 WP7      0.147000
     42 HAY         5.2660    2.1930   -3.1210 ha        1 WP7      0.152000
     43 HBC1        1.8560   -0.5680   -4.6380 hc        1 WP7      0.065367
     44 HBC2        1.5110   -2.0150   -3.5990 hc        1 WP7      0.065367
     45 HBC3        0.3640   -0.5960   -3.6030 hc        1 WP7      0.065367
     46 HAP1        0.2880   -1.9730   -1.7220 h1        1 WP7      0.065700
     47 HAP2        0.5670   -1.7060    0.0580 h1        1 WP7      0.065700
     48 HAQ1       -0.5130    0.5130   -0.0130 h1        1 WP7      0.039200
     49 HAQ2       -0.6080    0.4800   -1.8300 h1        1 WP7      0.039200
     50 HAG1       -2.9980    1.0250   -0.4500 h1        1 WP7      0.041950
     51 HAG2       -2.8780    0.5480   -2.2050 h1        1 WP7      0.041950
     52 HBD1       -1.4610   -2.4250    0.3390 h1        1 WP7      0.041950
     53 HBD2       -2.0440   -0.9580    1.2510 h1        1 WP7      0.041950
     54 HAH1       -5.1870    0.3550   -1.2000 h1        1 WP7      0.071200
     55 HAH2       -4.5670   -1.1650   -2.0000 h1        1 WP7      0.071200
     56 HBE1       -3.6770   -3.0300   -0.3900 h1        1 WP7      0.071200
     57 HBE2       -3.7620   -2.6450    1.3990 h1        1 WP7      0.071200
     58 HBF        -7.0510    1.1620    2.7020 ha        1 WP7      0.177000
     59 HBG        -9.0340    2.3290    1.2430 ha        1 WP7      0.168000
     60 HAW        -8.8420    1.1270   -1.3000 h4        1 WP7      0.058100
@<TRIPOS>BOND
     1    1    2 ar  
     2    1    6 ar  
     3    1   34 1   
     4    2    3 ar  
     5    2   35 1   
     6    3    4 ar  
     7    3   36 1   
     8    4    5 ar  
     9    4   37 1   
    10    5    6 ar  
    11    5   38 1   
    12    6    7 1   
    13    7    8 1   
    14    7   18 1   
    15    7   39 1   
    16    8    9 ar  
    17    8   14 ar  
    18    9   10 ar  
    19    9   40 1   
    20   10   11 1   
    21   10   12 ar  
    22   12   13 ar  
    23   12   41 1   
    24   13   14 ar  
    25   13   42 1   
    26   14   15 1   
    27   15   16 2   
    28   16   17 1   
    29   16   18 1   
    30   17   43 1   
    31   17   44 1   
    32   17   45 1   
    33   18   19 1   
    34   19   20 1   
    35   19   46 1   
    36   19   47 1   
    37   20   21 1   
    38   20   48 1   
    39   20   49 1   
    40   21   22 1   
    41   21   24 1   
    42   22   23 1   
    43   22   50 1   
    44   22   51 1   
    45   23   26 1   
    46   23   54 1   
    47   23   55 1   
    48   24   25 1   
    49   24   52 1   
    50   24   53 1   
    51   25   26 1   
    52   25   56 1   
    53   25   57 1   
    54   26   27 1   
    55   27   28 2   
    56   27   29 1   
    57   29   30 2   
    58   29   33 1   
    59   30   31 1   
    60   30   58 1   
    61   31   32 2   
    62   31   59 1   
    63   32   33 1   
    64   32   60 1   
@<TRIPOS>SUBSTRUCTURE
     1 WP7         1 TEMP              0 ****  ****    0 ROOT
