@<TRIPOS>MOLECULE
WP7
   60    64     1     0     0
SMALL
bcc


@<TRIPOS>ATOM
      1 CAD        -0.9040    0.4840   -0.3120 ca        1 WP7     -0.113000
      2 CAA         0.3800    0.8030   -0.7530 ca        1 WP7     -0.131500
      3 CAB         1.4640    0.7010    0.1180 ca        1 WP7     -0.123000
      4 CAC         1.2630    0.2770    1.4320 ca        1 WP7     -0.131500
      5 CAF        -0.0190   -0.0460    1.8750 ca        1 WP7     -0.113000
      6 CAE        -1.1080    0.0550    1.0040 ca        1 WP7     -0.109300
      7 CAN        -2.5090   -0.3050    1.4630 c3        1 WP7      0.334100
      8 CAM        -2.5760   -1.7780    1.7870 ca        1 WP7     -0.139300
      9 CAL        -2.3060   -2.7120    0.7870 ca        1 WP7     -0.095000
     10 CAK        -2.3710   -4.0740    1.0830 ca        1 WP7     -0.000600
     11 CLA        -2.0410   -5.2170   -0.1320 cl        1 WP7     -0.098400
     12 CAX        -2.7040   -4.5070    2.3730 ca        1 WP7     -0.112000
     13 CAY        -2.9820   -3.5820    3.3690 ca        1 WP7     -0.109000
     14 CAZ        -2.9290   -2.1960    3.0920 ca        1 WP7      0.167400
     15 NBA        -3.2390   -1.2740    4.1030 ne        1 WP7     -0.657100
     16 CBB        -3.2710    0.0120    3.8050 c2        1 WP7      0.658200
     17 CBC        -3.6460    0.9790    4.9100 c3        1 WP7     -0.139400
     18 NAO        -2.9530    0.5570    2.5550 nh        1 WP7     -0.784600
     19 CAP        -3.2800    1.9140    2.2070 c3        1 WP7      0.216800
     20 CAQ        -4.7470    2.1020    1.7420 c3        1 WP7      0.139800
     21 NAR        -5.1220    3.5050    1.6420 n3        1 WP7     -0.728600
     22 CAG        -6.5650    3.6600    1.5070 c3        1 WP7      0.139800
     23 CAH        -7.0050    5.1340    1.3510 c3        1 WP7      0.082500
     24 CBD        -4.3840    4.2170    0.6080 c3        1 WP7      0.139800
     25 CBE        -4.8290    5.6860    0.4490 c3        1 WP7      0.082500
     26 NAS        -6.2650    5.8550    0.3440 n         1 WP7     -0.446800
     27 CAT        -6.8170    6.2460   -0.8720 c         1 WP7      0.591600
     28 OAI        -6.0880    6.4960   -1.8550 o         1 WP7     -0.591100
     29 CAU        -8.2730    6.4360   -1.0030 cc        1 WP7      0.183200
     30 CBF        -9.0860    6.3410   -2.1200 cd        1 WP7     -0.183300
     31 CBG       -10.4170    6.7070   -1.6950 cd        1 WP7     -0.274300
     32 CAW       -10.3320    7.0130   -0.3510 cc        1 WP7      0.259600
     33 OAV        -9.0250    6.8540    0.1030 os        1 WP7     -0.351800
     34 HAD        -1.7550    0.5670   -1.0040 ha        1 WP7      0.136000
     35 HAA         0.5350    1.1360   -1.7900 ha        1 WP7      0.134000
     36 HAB         2.4760    0.9540   -0.2310 ha        1 WP7      0.133000
     37 HAC         2.1170    0.1940    2.1200 ha        1 WP7      0.134000
     38 HAF        -0.1750   -0.3860    2.9100 ha        1 WP7      0.136000
     39 HAN        -3.2120   -0.1240    0.5860 h1        1 WP7      0.050700
     40 HAL        -2.0330   -2.3690   -0.2230 ha        1 WP7      0.149000
     41 HAX        -2.7480   -5.5840    2.5980 ha        1 WP7      0.147000
     42 HAY        -3.2470   -3.9270    4.3810 ha        1 WP7      0.152000
     43 HBC1       -3.8920    0.4290    5.8520 hc        1 WP7      0.065367
     44 HBC2       -4.5390    1.5790    4.6050 hc        1 WP7      0.065367
     45 HBC3       -2.7890    1.6670    5.1140 hc        1 WP7      0.065367
     46 HAP1       -3.0760    2.5840    3.0900 h1        1 WP7      0.065700
     47 HAP2       -2.5890    2.2280    1.3710 h1        1 WP7      0.065700
     48 HAQ1       -5.4330    1.6210    2.4960 h1        1 WP7      0.039200
     49 HAQ2       -4.8860    1.5580    0.7620 h1        1 WP7      0.039200
     50 HAG1       -7.0430    3.2640    2.4460 h1        1 WP7      0.041950
     51 HAG2       -6.9690    3.0660    0.6350 h1        1 WP7      0.041950
     52 HBD1       -4.4640    3.7020   -0.3940 h1        1 WP7      0.041950
     53 HBD2       -3.2990    4.2270    0.9060 h1        1 WP7      0.041950
     54 HAH1       -6.8480    5.6680    2.3320 h1        1 WP7      0.071200
     55 HAH2       -8.1060    5.1340    1.1220 h1        1 WP7      0.071200
     56 HBE1       -4.3220    6.1090   -0.4630 h1        1 WP7      0.071200
     57 HBE2       -4.4940    6.2710    1.3530 h1        1 WP7      0.071200
     58 HBF        -8.7840    6.0560   -3.1260 ha        1 WP7      0.177000
     59 HBG       -11.2990    6.7360   -2.3280 ha        1 WP7      0.168000
     60 HAW       -11.0320    7.3480    0.4100 h4        1 WP7      0.058100
@<TRIPOS>BOND
     1    1    2 ar  
     2    1    6 ar  
     3    1   34 1   
     4    2    3 ar  
     5    2   35 1   
     6    3    4 ar  
     7    3   36 1   
     8    4    5 ar  
     9    4   37 1   
    10    5    6 ar  
    11    5   38 1   
    12    6    7 1   
    13    7    8 1   
    14    7   18 1   
    15    7   39 1   
    16    8    9 ar  
    17    8   14 ar  
    18    9   10 ar  
    19    9   40 1   
    20   10   11 1   
    21   10   12 ar  
    22   12   13 ar  
    23   12   41 1   
    24   13   14 ar  
    25   13   42 1   
    26   14   15 1   
    27   15   16 2   
    28   16   17 1   
    29   16   18 1   
    30   17   43 1   
    31   17   44 1   
    32   17   45 1   
    33   18   19 1   
    34   19   20 1   
    35   19   46 1   
    36   19   47 1   
    37   20   21 1   
    38   20   48 1   
    39   20   49 1   
    40   21   22 1   
    41   21   24 1   
    42   22   23 1   
    43   22   50 1   
    44   22   51 1   
    45   23   26 1   
    46   23   54 1   
    47   23   55 1   
    48   24   25 1   
    49   24   52 1   
    50   24   53 1   
    51   25   26 1   
    52   25   56 1   
    53   25   57 1   
    54   26   27 1   
    55   27   28 2   
    56   27   29 1   
    57   29   30 2   
    58   29   33 1   
    59   30   31 1   
    60   30   58 1   
    61   31   32 2   
    62   31   59 1   
    63   32   33 1   
    64   32   60 1   
@<TRIPOS>SUBSTRUCTURE
     1 WP7         1 TEMP              0 ****  ****    0 ROOT
