@<TRIPOS>MOLECULE
WP7
   60    64     1     0     0
SMALL
bcc


@<TRIPOS>ATOM
      1 CAD        -0.9030    0.4800   -0.3120 ca        1 WP7     -0.113000
      2 CAA         0.3820    0.7960   -0.7500 ca        1 WP7     -0.131500
      3 CAB         1.4650    0.6880    0.1220 ca        1 WP7     -0.123000
      4 CAC         1.2610    0.2610    1.4340 ca        1 WP7     -0.131500
      5 CAF        -0.0230   -0.0590    1.8750 ca        1 WP7     -0.113000
      6 CAE        -1.1110    0.0470    1.0020 ca        1 WP7     -0.109300
      7 CAN        -2.5130   -0.3090    1.4590 c3        1 WP7      0.334100
      8 CAM        -2.5860   -1.7830    1.7800 ca        1 WP7     -0.139300
      9 CAL        -2.3180   -2.7160    0.7780 ca        1 WP7     -0.095000
     10 CAK        -2.3870   -4.0770    1.0710 ca        1 WP7     -0.000600
     11 ClA        -2.0600   -5.2190   -0.1470 cl        1 WP7     -0.098400
     12 CAX        -2.7230   -4.5130    2.3590 ca        1 WP7     -0.112000
     13 CAY        -2.9980   -3.5890    3.3570 ca        1 WP7     -0.109000
     14 CAZ        -2.9410   -2.2030    3.0830 ca        1 WP7      0.167400
     15 NBA        -3.2480   -1.2820    4.0960 ne        1 WP7     -0.657100
     16 CBB        -3.2760    0.0050    3.8000 c2        1 WP7      0.658200
     17 CBC        -3.6500    0.9710    4.9070 c3        1 WP7     -0.139400
     18 NAO        -2.9570    0.5510    2.5510 nh        1 WP7     -0.784600
     19 CAP        -3.2800    1.9100    2.2060 c3        1 WP7      0.216800
     20 CAQ        -4.7460    2.1030    1.7410 c3        1 WP7      0.139800
     21 NAR        -5.1180    3.5070    1.6430 n3        1 WP7     -0.728600
     22 CAG        -6.5600    3.6670    1.5100 c3        1 WP7      0.139800
     23 CAH        -6.9960    5.1420    1.3560 c3        1 WP7      0.082500
     24 CBD        -4.3790    4.2180    0.6080 c3        1 WP7      0.139800
     25 CBE        -4.8200    5.6880    0.4510 c3        1 WP7      0.082500
     26 NAS        -6.2550    5.8620    0.3480 n         1 WP7     -0.446800
     27 CAT        -6.8080    6.2560   -0.8660 c         1 WP7      0.591600
     28 OAI        -6.0800    6.5040   -1.8500 o         1 WP7     -0.591100
     29 CAU        -8.2630    6.4500   -0.9940 cc        1 WP7      0.183200
     30 CBF        -9.0790    6.3590   -2.1100 cd        1 WP7     -0.183300
     31 CBG       -10.4080    6.7290   -1.6820 cd        1 WP7     -0.274300
     32 CAW       -10.3190    7.0340   -0.3380 cc        1 WP7      0.259600
     33 OAV        -9.0120    6.8700    0.1140 os        1 WP7     -0.351800
     34 HAD        -1.7530    0.5680   -1.0050 ha        1 WP7      0.136000
     35 HAA         0.5400    1.1320   -1.7850 ha        1 WP7      0.134000
     36 HAB         2.4780    0.9380   -0.2240 ha        1 WP7      0.133000
     37 HAC         2.1130    0.1720    2.1240 ha        1 WP7      0.134000
     38 HAF        -0.1820   -0.4030    2.9080 ha        1 WP7      0.136000
     39 HAN        -3.2150   -0.1250    0.5810 h1        1 WP7      0.050700
     40 HAL        -2.0430   -2.3710   -0.2320 ha        1 WP7      0.149000
     41 HAX        -2.7700   -5.5900    2.5820 ha        1 WP7      0.147000
     42 HAY        -3.2640   -3.9360    4.3680 ha        1 WP7      0.152000
     43 HBC1       -3.8970    0.4190    5.8480 hc        1 WP7      0.065367
     44 HBC2       -2.7910    1.6560    5.1130 hc        1 WP7      0.065367
     45 HBC3       -4.5410    1.5730    4.6030 hc        1 WP7      0.065367
     46 HAP1       -2.5880    2.2240    1.3710 h1        1 WP7      0.065700
     47 HAP2       -3.0750    2.5780    3.0910 h1        1 WP7      0.065700
     48 HAQ1       -4.8860    1.5610    0.7600 h1        1 WP7      0.039200
     49 HAQ2       -5.4340    1.6220    2.4940 h1        1 WP7      0.039200
     50 HAG1       -7.0380    3.2710    2.4490 h1        1 WP7      0.041950
     51 HAG2       -6.9670    3.0750    0.6380 h1        1 WP7      0.041950
     52 HBD1       -3.2930    4.2230    0.9040 h1        1 WP7      0.041950
     53 HBD2       -4.4630    3.7030   -0.3940 h1        1 WP7      0.041950
     54 HAH1       -6.8350    5.6740    2.3370 h1        1 WP7      0.071200
     55 HAH2       -8.0970    5.1460    1.1290 h1        1 WP7      0.071200
     56 HBE1       -4.3120    6.1100   -0.4620 h1        1 WP7      0.071200
     57 HBE2       -4.4800    6.2710    1.3550 h1        1 WP7      0.071200
     58 HBF        -8.7800    6.0740   -3.1160 ha        1 WP7      0.177000
     59 HBG       -11.2910    6.7620   -2.3130 ha        1 WP7      0.168000
     60 HAW       -11.0160    7.3700    0.4250 h4        1 WP7      0.058100
@<TRIPOS>BOND
     1    1    2 ar  
     2    1    6 ar  
     3    1   34 1   
     4    2    3 ar  
     5    2   35 1   
     6    3    4 ar  
     7    3   36 1   
     8    4    5 ar  
     9    4   37 1   
    10    5    6 ar  
    11    5   38 1   
    12    6    7 1   
    13    7    8 1   
    14    7   18 1   
    15    7   39 1   
    16    8    9 ar  
    17    8   14 ar  
    18    9   10 ar  
    19    9   40 1   
    20   10   11 1   
    21   10   12 ar  
    22   12   13 ar  
    23   12   41 1   
    24   13   14 ar  
    25   13   42 1   
    26   14   15 1   
    27   15   16 2   
    28   16   17 1   
    29   16   18 1   
    30   17   43 1   
    31   17   44 1   
    32   17   45 1   
    33   18   19 1   
    34   19   20 1   
    35   19   46 1   
    36   19   47 1   
    37   20   21 1   
    38   20   48 1   
    39   20   49 1   
    40   21   22 1   
    41   21   24 1   
    42   22   23 1   
    43   22   50 1   
    44   22   51 1   
    45   23   26 1   
    46   23   54 1   
    47   23   55 1   
    48   24   25 1   
    49   24   52 1   
    50   24   53 1   
    51   25   26 1   
    52   25   56 1   
    53   25   57 1   
    54   26   27 1   
    55   27   28 2   
    56   27   29 1   
    57   29   30 2   
    58   29   33 1   
    59   30   31 1   
    60   30   58 1   
    61   31   32 2   
    62   31   59 1   
    63   32   33 1   
    64   32   60 1   
@<TRIPOS>SUBSTRUCTURE
     1 WP7         1 TEMP              0 ****  ****    0 ROOT
