@<TRIPOS>MOLECULE
WPA
   26    23     1     0     0
SMALL
bcc


@<TRIPOS>ATOM
      1 N          -2.0120   -0.5570    1.8470 n3        1 WPA     -0.890800
      2 CA         -0.6970   -0.8330    1.4280 c3        1 WPA      0.002500
      3 C           0.1690   -1.1080    2.6390 c         1 WPA      0.886600
      4 CB         -0.1550    0.3620    0.6770 c3        1 WPA      0.143200
      5 OB         -1.1960    1.2870    0.4590 os        1 WPA     -0.446600
      6 CB1        -0.8870    2.6040    0.8500 c3        1 WPA      0.108700
      7 CG          0.4140   -0.0930   -0.6690 c1        1 WPA     -0.009100
      8 CD1         1.7590   -0.2180   -0.8280 c1        1 WPA     -0.069500
      9 CE1         2.2870   -0.5610   -2.0750 c1        1 WPA     -0.079500
     10 CZ          1.4400   -0.7740   -3.1520 c1        1 WPA     -0.079500
     11 CE2         0.0820   -0.6480   -2.9930 c1        1 WPA     -0.079500
     12 CD2        -0.4420   -0.3080   -1.7570 c1        1 WPA     -0.079500
     13 O           0.7640   -2.1910    2.7410 o         1 WPA     -0.839800
     14 OXT         0.2440   -0.2650    3.5590 o         1 WPA     -0.839800
     15 H1         -2.6060   -1.0470    1.3410 hn        1 WPA      0.338800
     16 H2         -2.1080   -0.7890    2.7580 hn        1 WPA      0.338800
     17 H4         -0.6950   -1.6400    0.8230 h1        1 WPA      0.054700
     18 H5          0.5860    0.8060    1.2280 h1        1 WPA      0.082700
     19 H6         -0.7420    3.1500    0.0590 h1        1 WPA      0.038700
     20 H7         -0.0940    2.6010    1.3850 h1        1 WPA      0.038700
     21 H8         -1.6300    2.9730    1.3690 h1        1 WPA      0.038700
     22 H9          2.3670   -0.0640   -0.0550 ha        1 WPA      0.088500
     23 H10         3.2840   -0.6530   -2.1930 ha        1 WPA      0.062750
     24 H11         1.8090   -1.0130   -4.0230 ha        1 WPA      0.062750
     25 H12        -0.5300   -0.8030   -3.7750 ha        1 WPA      0.062750
     26 H13        -1.4100   -0.2180   -1.6430 ha        1 WPA      0.062750
@<TRIPOS>BOND
     1    1    2 1   
     2    1   15 1   
     3    1   16 1   
     4    2    3 1   
     5    2    4 1   
     6    2   17 1   
     7    3   13 1   
     8    3   14 1   
     9    4    5 1   
    10    4    7 1   
    11    4   18 1   
    12    5    6 1   
    13    6   19 1   
    14    6   20 1   
    15    6   21 1   
    16    7    8 3   
    17    8   22 1   
    18    9   10 3   
    19    9   23 1   
    20   10   24 1   
    21   11   12 3   
    22   11   25 1   
    23   12   26 1   
@<TRIPOS>SUBSTRUCTURE
     1 WPA         1 TEMP              0 ****  ****    0 ROOT
