@<TRIPOS>MOLECULE
WPA
   26    26     1     0     0
SMALL
bcc


@<TRIPOS>ATOM
      1 N           1.1280   -0.8870    1.4050 n3        1 WPA     -0.890800
      2 CA          0.9730   -0.5830   -0.0070 c3        1 WPA      0.002500
      3 C           2.3090   -0.2990   -0.7760 c         1 WPA      0.886600
      4 CB         -0.0070    0.5770   -0.3040 c3        1 WPA      0.177400
      5 OB          0.1380    1.6720    0.6140 os        1 WPA     -0.446600
      6 CB1         1.3120    2.4350    0.3860 c3        1 WPA      0.108700
      7 CG         -1.4350    0.1190   -0.2290 ca        1 WPA     -0.043300
      8 CD1        -1.9510   -0.6420   -1.2880 ca        1 WPA     -0.116000
      9 CE1        -3.2710   -1.0850   -1.2560 ca        1 WPA     -0.144500
     10 CZ         -4.0900   -0.7740   -0.1700 ca        1 WPA     -0.154000
     11 CE2        -3.5800   -0.0200    0.8860 ca        1 WPA     -0.144500
     12 CD2        -2.2590    0.4240    0.8590 ca        1 WPA     -0.116000
     13 O           3.3850   -0.2560   -0.1150 o         1 WPA     -0.839800
     14 OXT         2.2250   -0.1260   -2.0230 o         1 WPA     -0.839800
     15 H1          2.0750   -1.2040    1.5460 hn        1 WPA      0.338800
     16 H2          1.0230   -0.0400    1.9370 hn        1 WPA      0.338800
     17 H4          0.5360   -1.5090   -0.4860 h1        1 WPA      0.054700
     18 H5          0.2130    0.9410   -1.3530 h1        1 WPA      0.082700
     19 H6          1.3130    3.1920    1.2100 h1        1 WPA      0.038700
     20 H7          2.2260    1.7900    0.4320 h1        1 WPA      0.038700
     21 H8          1.2550    2.9450   -0.6080 h1        1 WPA      0.038700
     22 H9         -1.2990   -0.8910   -2.1400 ha        1 WPA      0.146000
     23 H10        -3.6670   -1.6840   -2.0870 ha        1 WPA      0.113000
     24 H11        -5.1300   -1.1240   -0.1460 ha        1 WPA      0.109000
     25 H12        -4.2200    0.2230    1.7460 ha        1 WPA      0.113000
     26 H13        -1.8500    1.0140    1.6940 ha        1 WPA      0.146000
@<TRIPOS>BOND
     1    1    2 1   
     2    1   15 1   
     3    1   16 1   
     4    2    3 1   
     5    2    4 1   
     6    2   17 1   
     7    3   13 1   
     8    3   14 1   
     9    4    5 1   
    10    4    7 1   
    11    4   18 1   
    12    5    6 1   
    13    6   19 1   
    14    6   20 1   
    15    6   21 1   
    16    7    8 ar  
    17    7   12 ar  
    18    8    9 ar  
    19    8   22 1   
    20    9   10 ar  
    21    9   23 1   
    22   10   11 ar  
    23   10   24 1   
    24   11   12 ar  
    25   11   25 1   
    26   12   26 1   
@<TRIPOS>SUBSTRUCTURE
     1 WPA         1 TEMP              0 ****  ****    0 ROOT
