@<TRIPOS>MOLECULE
WPE
   49    52     1     0     0
SMALL
bcc


@<TRIPOS>ATOM
      1 CAD        -0.7150    0.1660   -0.3200 ca        1 WPE     -0.118500
      2 CAA         0.6320    0.2600   -0.6660 ca        1 WPE     -0.125500
      3 CAB         1.6170    0.1310    0.3140 ca        1 WPE     -0.110000
      4 CAC         1.2520   -0.0960    1.6410 ca        1 WPE     -0.125500
      5 CAF        -0.0950   -0.1940    1.9900 ca        1 WPE     -0.118500
      6 CAE        -1.0840   -0.0630    1.0110 ca        1 WPE     -0.141300
      7 CAK        -2.5510   -0.1870    1.3680 c3        1 WPE      0.339100
      8 CAJ        -2.8300   -1.5540    1.9470 ca        1 WPE     -0.123300
      9 CAI        -2.6530   -2.6830    1.1490 ca        1 WPE     -0.102000
     10 CAH        -2.9130   -3.9480    1.6810 ca        1 WPE      0.019400
     11 CL         -2.7030   -5.3240    0.7130 cl        1 WPE     -0.066400
     12 CAR        -3.3430   -4.0870    3.0070 ca        1 WPE     -0.111000
     13 CAS        -3.5220   -2.9640    3.8060 ca        1 WPE     -0.084000
     14 CAT        -3.2710   -1.6770    3.2850 ca        1 WPE      0.135400
     15 NAU        -3.4620   -0.5470    4.1010 ne        1 WPE     -0.593100
     16 CAV        -3.3200    0.6510    3.5880 c2        1 WPE      0.625200
     17 CAW        -3.5210    1.8450    4.4970 c3        1 WPE     -0.137400
     18 NAL        -3.0160    0.9030    2.2280 nh        1 WPE     -0.799600
     19 CAM        -2.8980    2.2230    1.7070 c3        1 WPE      0.223800
     20 CAN        -4.2440    2.7050    1.0850 c3        1 WPE      0.063800
     21 NAO        -4.1200    4.0590    0.4740 n4        1 WPE     -0.663800
     22 CAP        -5.4140    4.4700   -0.2040 c         1 WPE      0.496600
     23 OAQ        -5.4380    4.3180   -1.4200 o         1 WPE     -0.424100
     24 CAY        -6.4430    4.9920    0.6440 cc        1 WPE      0.076200
     25 CAX        -7.7240    5.4580    0.3470 cd        1 WPE     -0.048300
     26 CBA        -8.3090    5.8700    1.5930 cd        1 WPE     -0.275300
     27 CBB        -7.3620    5.6370    2.5800 cc        1 WPE      0.358600
     28 OAZ        -6.2050    5.0980    2.0330 os        1 WPE     -0.381800
     29 HAD        -1.4850    0.2490   -1.1010 ha        1 WPE      0.135000
     30 HAA         0.9180    0.4250   -1.7160 ha        1 WPE      0.144500
     31 HAB         2.6800    0.1990    0.0380 ha        1 WPE      0.147000
     32 HAC         2.0270   -0.2090    2.4150 ha        1 WPE      0.144500
     33 HAF        -0.3800   -0.3930    3.0350 ha        1 WPE      0.135000
     34 HAK        -3.1510   -0.1010    0.4050 h1        1 WPE      0.048700
     35 HAI        -2.3030   -2.5750    0.1100 ha        1 WPE      0.154000
     36 HAR        -3.5410   -5.0890    3.4210 ha        1 WPE      0.161000
     37 HAS        -3.8610   -3.0810    4.8480 ha        1 WPE      0.162000
     38 HAW1       -3.8850    1.5160    5.5030 hc        1 WPE      0.062700
     39 HAW2       -2.5480    2.3780    4.6360 hc        1 WPE      0.062700
     40 HAW3       -4.2760    2.5440    4.0620 hc        1 WPE      0.062700
     41 HAM1       -2.5940    2.9540    2.5100 h1        1 WPE      0.068700
     42 HAM2       -2.1050    2.2380    0.9000 h1        1 WPE      0.068700
     43 HAN1       -4.5720    1.9890    0.2780 hx        1 WPE      0.114700
     44 HAN2       -5.0440    2.7570    1.8770 hx        1 WPE      0.114700
     45 HAO        -3.3660    4.0500   -0.2260 hn        1 WPE      0.461300
     46 HAX        -8.1940    5.5020   -0.6390 ha        1 WPE      0.205000
     47 HBA        -9.3090    6.2850    1.7220 ha        1 WPE      0.206000
     48 HBB        -7.3240    5.7790    3.6620 h4        1 WPE      0.089100
     49 HAO2       -3.8890    4.7420    1.2050 hn        1 WPE      0.461300
@<TRIPOS>BOND
     1    1    2 ar  
     2    1    6 ar  
     3    1   29 1   
     4    2    3 ar  
     5    2   30 1   
     6    3    4 ar  
     7    3   31 1   
     8    4    5 ar  
     9    4   32 1   
    10    5    6 ar  
    11    5   33 1   
    12    6    7 1   
    13    7    8 1   
    14    7   18 1   
    15    7   34 1   
    16    8    9 ar  
    17    8   14 ar  
    18    9   10 ar  
    19    9   35 1   
    20   10   11 1   
    21   10   12 ar  
    22   12   13 ar  
    23   12   36 1   
    24   13   14 ar  
    25   13   37 1   
    26   14   15 1   
    27   15   16 2   
    28   16   17 1   
    29   16   18 1   
    30   17   38 1   
    31   17   39 1   
    32   17   40 1   
    33   18   19 1   
    34   19   20 1   
    35   19   41 1   
    36   19   42 1   
    37   20   21 1   
    38   20   43 1   
    39   20   44 1   
    40   21   22 1   
    41   21   45 1   
    42   21   49 1   
    43   22   23 2   
    44   22   24 1   
    45   24   25 2   
    46   24   28 1   
    47   25   26 1   
    48   25   46 1   
    49   26   27 2   
    50   26   47 1   
    51   27   28 1   
    52   27   48 1   
@<TRIPOS>SUBSTRUCTURE
     1 WPE         1 TEMP              0 ****  ****    0 ROOT
