@<TRIPOS>MOLECULE
WPE
   48    51     1     0     0
SMALL
bcc


@<TRIPOS>ATOM
      1 CAD         1.8800   -1.6860    2.1070 ca        1 WPE     -0.113500
      2 CAA         2.3050   -2.8990    2.6480 ca        1 WPE     -0.132000
      3 CAB         2.7100   -3.9360    1.8080 ca        1 WPE     -0.124000
      4 CAC         2.6910   -3.7570    0.4250 ca        1 WPE     -0.132000
      5 CAF         2.2690   -2.5440   -0.1190 ca        1 WPE     -0.113500
      6 CAE         1.8630   -1.5030    0.7200 ca        1 WPE     -0.107300
      7 CAK         1.4160   -0.1690    0.1520 c3        1 WPE      0.335100
      8 CAJ         2.6000    0.5470   -0.4520 ca        1 WPE     -0.141300
      9 CAI         3.6960    0.8560    0.3530 ca        1 WPE     -0.095000
     10 CAH         4.7890    1.5230   -0.2000 ca        1 WPE     -0.001600
     11 CL          6.1290    1.9010    0.7780 cl        1 WPE     -0.100400
     12 CAR         4.7930    1.8830   -1.5530 ca        1 WPE     -0.112000
     13 CAS         3.7030    1.5840   -2.3570 ca        1 WPE     -0.109000
     14 CAT         2.5790    0.9140   -1.8190 ca        1 WPE      0.171400
     15 NAU         1.4750    0.6420   -2.6390 ne        1 WPE     -0.657100
     16 CAV         0.4020    0.0890   -2.1040 c2        1 WPE      0.663200
     17 CAW        -0.7890   -0.1620   -3.0080 c3        1 WPE     -0.148400
     18 NAL         0.2930   -0.3210   -0.7670 nh        1 WPE     -0.782600
     19 CAM        -0.9770   -0.6470   -0.1780 c3        1 WPE      0.191800
     20 CAN        -1.8030    0.5960    0.2570 c3        1 WPE      0.063000
     21 NAO        -3.1520    0.2850    0.6300 n         1 WPE     -0.555900
     22 CAP        -4.1390    0.1170   -0.3230 c         1 WPE      0.593600
     23 OAQ        -3.9160    0.3210   -1.5360 o         1 WPE     -0.605100
     24 CAY        -5.4830   -0.2740    0.1290 cc        1 WPE      0.172200
     25 CAX        -6.6710   -0.4070   -0.5690 cd        1 WPE     -0.166300
     26 CBA        -7.6690   -0.8220    0.3890 cd        1 WPE     -0.277300
     27 CBB        -7.0310   -0.9180    1.6100 cc        1 WPE      0.270600
     28 OAZ        -5.6850   -0.5870    1.4840 os        1 WPE     -0.366800
     29 HAD         1.5650   -0.8710    2.7760 ha        1 WPE      0.136000
     30 HAA         2.3220   -3.0360    3.7390 ha        1 WPE      0.133500
     31 HAB         3.0450   -4.8920    2.2360 ha        1 WPE      0.133000
     32 HAC         3.0120   -4.5720   -0.2400 ha        1 WPE      0.133500
     33 HAF         2.2630   -2.4030   -1.2110 ha        1 WPE      0.136000
     34 HAK         1.0520    0.4680    1.0230 h1        1 WPE      0.046700
     35 HAI         3.6950    0.5620    1.4150 ha        1 WPE      0.147000
     36 HAR         5.6630    2.4050   -1.9820 ha        1 WPE      0.146000
     37 HAS         3.7090    1.8720   -3.4200 ha        1 WPE      0.153000
     38 HAW1       -0.6070    0.2630   -4.0260 hc        1 WPE      0.073033
     39 HAW2       -0.9540   -1.2630   -3.1060 hc        1 WPE      0.073033
     40 HAW3       -1.7110    0.3130   -2.5840 hc        1 WPE      0.073033
     41 HAM1       -1.5820   -1.2500   -0.9150 h1        1 WPE      0.064700
     42 HAM2       -0.7890   -1.2960    0.7250 h1        1 WPE      0.064700
     43 HAN1       -1.3000    1.0840    1.1380 h1        1 WPE      0.067200
     44 HAN2       -1.8320    1.3370   -0.5940 h1        1 WPE      0.067200
     45 HAO        -3.3280   -0.0140    1.5600 hn        1 WPE      0.322500
     46 HAX        -6.8240   -0.2330   -1.6320 ha        1 WPE      0.181000
     47 HBA        -8.7160   -1.0160    0.1700 ha        1 WPE      0.170000
     48 HBB        -7.3330   -1.1860    2.6190 h4        1 WPE      0.058100
@<TRIPOS>BOND
     1    1    2 ar  
     2    1    6 ar  
     3    1   29 1   
     4    2    3 ar  
     5    2   30 1   
     6    3    4 ar  
     7    3   31 1   
     8    4    5 ar  
     9    4   32 1   
    10    5    6 ar  
    11    5   33 1   
    12    6    7 1   
    13    7    8 1   
    14    7   18 1   
    15    7   34 1   
    16    8    9 ar  
    17    8   14 ar  
    18    9   10 ar  
    19    9   35 1   
    20   10   11 1   
    21   10   12 ar  
    22   12   13 ar  
    23   12   36 1   
    24   13   14 ar  
    25   13   37 1   
    26   14   15 1   
    27   15   16 2   
    28   16   17 1   
    29   16   18 1   
    30   17   38 1   
    31   17   39 1   
    32   17   40 1   
    33   18   19 1   
    34   19   20 1   
    35   19   41 1   
    36   19   42 1   
    37   20   21 1   
    38   20   43 1   
    39   20   44 1   
    40   21   22 1   
    41   21   45 1   
    42   22   23 2   
    43   22   24 1   
    44   24   25 2   
    45   24   28 1   
    46   25   26 1   
    47   25   46 1   
    48   26   27 2   
    49   26   47 1   
    50   27   28 1   
    51   27   48 1   
@<TRIPOS>SUBSTRUCTURE
     1 WPE         1 TEMP              0 ****  ****    0 ROOT
