@<TRIPOS>MOLECULE
WPE
   49    52     1     0     0
SMALL
bcc


@<TRIPOS>ATOM
      1 CAD        -0.7150    0.1780   -0.3260 ca        1 WPE     -0.118500
      2 CAA         0.6310    0.2770   -0.6740 ca        1 WPE     -0.125500
      3 CAB         1.6180    0.1490    0.3040 ca        1 WPE     -0.110000
      4 CAC         1.2560   -0.0810    1.6310 ca        1 WPE     -0.125500
      5 CAF        -0.0890   -0.1840    1.9830 ca        1 WPE     -0.118500
      6 CAE        -1.0810   -0.0540    1.0050 ca        1 WPE     -0.141300
      7 CAK        -2.5460   -0.1840    1.3650 c3        1 WPE      0.339100
      8 CAJ        -2.8200   -1.5520    1.9420 ca        1 WPE     -0.123300
      9 CAI        -2.6410   -2.6790    1.1430 ca        1 WPE     -0.102000
     10 CAH        -2.8950   -3.9460    1.6740 ca        1 WPE      0.019400
     11 Cl         -2.6820   -5.3200    0.7040 cl        1 WPE     -0.066400
     12 CAR        -3.3230   -4.0880    3.0000 ca        1 WPE     -0.111000
     13 CAS        -3.5040   -2.9670    3.8010 ca        1 WPE     -0.084000
     14 CAT        -3.2580   -1.6780    3.2810 ca        1 WPE      0.135400
     15 NAU        -3.4510   -0.5500    4.0990 ne        1 WPE     -0.593100
     16 CAV        -3.3150    0.6490    3.5870 c2        1 WPE      0.625200
     17 CAW        -3.5170    1.8410    4.4980 c3        1 WPE     -0.137400
     18 NAL        -3.0130    0.9030    2.2270 nh        1 WPE     -0.799600
     19 CAM        -2.9010    2.2240    1.7080 c3        1 WPE      0.223800
     20 CAN        -4.2500    2.7030    1.0880 c3        1 WPE      0.063800
     21 NAO        -4.1310    4.0590    0.4800 ny        1 WPE     -0.663800
     22 CAP        -5.4290    4.4650   -0.1960 c         1 WPE      0.496600
     23 OAQ        -5.4530    4.3170   -1.4110 o         1 WPE     -0.424100
     24 CAY        -6.4590    4.9810    0.6550 cc        1 WPE      0.076200
     25 CAX        -7.7420    5.4420    0.3600 cd        1 WPE     -0.048300
     26 CBA        -8.3270    5.8490    1.6080 cd        1 WPE     -0.275300
     27 CBB        -7.3780    5.6170    2.5930 cc        1 WPE      0.358600
     28 OAZ        -6.2200    5.0840    2.0440 os        1 WPE     -0.381800
     29 HAD        -1.4870    0.2600   -1.1060 ha        1 WPE      0.135000
     30 HAA         0.9150    0.4450   -1.7240 ha        1 WPE      0.144500
     31 HAB         2.6810    0.2220    0.0260 ha        1 WPE      0.147000
     32 HAC         2.0340   -0.1930    2.4030 ha        1 WPE      0.144500
     33 HAF        -0.3720   -0.3860    3.0280 ha        1 WPE      0.135000
     34 HAK        -3.1490   -0.0990    0.4030 h1        1 WPE      0.048700
     35 HAI        -2.2930   -2.5690    0.1040 ha        1 WPE      0.154000
     36 HAR        -3.5160   -5.0920    3.4130 ha        1 WPE      0.161000
     37 HAS        -3.8410   -3.0860    4.8440 ha        1 WPE      0.162000
     38 HAW1       -2.5460    2.3770    4.6370 hc        1 WPE      0.062700
     39 HAW2       -4.2750    2.5380    4.0660 hc        1 WPE      0.062700
     40 HAW3       -3.8790    1.5100    5.5040 hc        1 WPE      0.062700
     41 HAM1       -2.1100    2.2440    0.8990 h1        1 WPE      0.068700
     42 HAM2       -2.5980    2.9550    2.5110 h1        1 WPE      0.068700
     43 HAN1       -4.5770    1.9870    0.2810 hx        1 WPE      0.114700
     44 HAN2       -5.0490    2.7500    1.8820 hx        1 WPE      0.114700
     45 HAO        -3.3790    4.0530   -0.2200 hn        1 WPE      0.461300
     46 HAX        -8.2130    5.4870   -0.6250 ha        1 WPE      0.205000
     47 HBA        -9.3290    6.2600    1.7400 ha        1 WPE      0.206000
     48 HBB        -7.3400    5.7570    3.6760 h4        1 WPE      0.089100
     49 HAO2       -3.9030    4.7410    1.2120 hn        1 WPE      0.461300
@<TRIPOS>BOND
     1    1    2 ar  
     2    1    6 ar  
     3    1   29 1   
     4    2    3 ar  
     5    2   30 1   
     6    3    4 ar  
     7    3   31 1   
     8    4    5 ar  
     9    4   32 1   
    10    5    6 ar  
    11    5   33 1   
    12    6    7 1   
    13    7    8 1   
    14    7   18 1   
    15    7   34 1   
    16    8    9 ar  
    17    8   14 ar  
    18    9   10 ar  
    19    9   35 1   
    20   10   11 1   
    21   10   12 ar  
    22   12   13 ar  
    23   12   36 1   
    24   13   14 ar  
    25   13   37 1   
    26   14   15 1   
    27   15   16 2   
    28   16   17 1   
    29   16   18 1   
    30   17   38 1   
    31   17   39 1   
    32   17   40 1   
    33   18   19 1   
    34   19   20 1   
    35   19   41 1   
    36   19   42 1   
    37   20   21 1   
    38   20   43 1   
    39   20   44 1   
    40   21   22 1   
    41   21   45 1   
    42   21   49 1   
    43   22   23 2   
    44   22   24 1   
    45   24   25 2   
    46   24   28 1   
    47   25   26 1   
    48   25   46 1   
    49   26   27 2   
    50   26   47 1   
    51   27   28 1   
    52   27   48 1   
@<TRIPOS>SUBSTRUCTURE
     1 WPE         1 TEMP              0 ****  ****    0 ROOT
