@<TRIPOS>MOLECULE
WPF
   51    53     1     0     0
SMALL
bcc


@<TRIPOS>ATOM
      1 CAR         6.3320    1.6460    1.4590 c3        1 WPF      0.155600
      2 NAQ         5.3560    0.6880    0.9890 n3        1 WPF     -0.737600
      3 CAY         5.2700   -0.4840    1.8300 c3        1 WPF      0.155600
      4 CAP         4.0660    1.3100    0.7220 c3        1 WPF      0.172800
      5 CAO         3.0620    0.3870    0.0350 c3        1 WPF     -0.112400
      6 CAN         1.8780    1.2260   -0.4560 c3        1 WPF      0.217800
      7 NAM         0.8030    0.4780   -1.0560 nh        1 WPF     -0.781600
      8 CAW         0.8560    0.0320   -2.3820 c2        1 WPF      0.660200
      9 CAX         1.8960    0.6630   -3.2870 c3        1 WPF     -0.138400
     10 NAV         0.0500   -0.8680   -2.9140 ne        1 WPF     -0.658100
     11 CAU        -0.8960   -1.4990   -2.0940 ca        1 WPF      0.169400
     12 CAT        -1.7060   -2.5300   -2.6240 ca        1 WPF     -0.110000
     13 CAS        -2.6280   -3.1830   -1.8180 ca        1 WPF     -0.112000
     14 CAI        -2.7630   -2.8240   -0.4710 ca        1 WPF     -0.001600
     15 CL1        -3.8910   -3.6350    0.5090 cl        1 WPF     -0.100400
     16 CAJ        -1.9810   -1.8050    0.0730 ca        1 WPF     -0.094000
     17 CAK        -1.0580   -1.1410   -0.7350 ca        1 WPF     -0.139300
     18 CAL        -0.2090   -0.0420   -0.1410 c3        1 WPF      0.334100
     19 CAF        -1.1020    1.0660    0.3870 ca        1 WPF     -0.112300
     20 CAG        -1.1390    1.3270    1.7600 ca        1 WPF     -0.109000
     21 CAD        -1.9650    2.3300    2.2620 ca        1 WPF     -0.133500
     22 CAC        -2.7620    3.0910    1.3990 ca        1 WPF     -0.069300
     23 CAA        -3.6300    4.1670    1.9290 c3        1 WPF     -0.055800
     24 CAB        -2.7200    2.8280    0.0240 ca        1 WPF     -0.133500
     25 CAE        -1.8960    1.8240   -0.4790 ca        1 WPF     -0.109000
     26 HAR1        7.3230    1.1310    1.5630 h1        1 WPF      0.032367
     27 HAR2        6.4330    2.4670    0.7020 h1        1 WPF      0.032367
     28 HAR3        6.0630    2.1060    2.4500 h1        1 WPF      0.032367
     29 HAY1        4.8050   -0.2790    2.8330 h1        1 WPF      0.032367
     30 HAY2        4.6560   -1.2620    1.3040 h1        1 WPF      0.032367
     31 HAY3        6.3010   -0.8950    1.9930 h1        1 WPF      0.032367
     32 HAP1        3.5930    1.7060    1.6690 h1        1 WPF      0.029200
     33 HAP2        4.2590    2.1940    0.0480 h1        1 WPF      0.029200
     34 HAO1        3.5440   -0.1440   -0.8270 hc        1 WPF      0.056200
     35 HAO2        2.7050   -0.3950    0.7550 hc        1 WPF      0.056200
     36 HAN1        1.4490    1.7930    0.4220 h1        1 WPF      0.057200
     37 HAN2        2.2520    1.9870   -1.1980 h1        1 WPF      0.057200
     38 HAL         0.3400   -0.4910    0.7490 h1        1 WPF      0.050700
     39 HAX1        2.9190    0.4790   -2.8770 hc        1 WPF      0.064700
     40 HAX2        1.8420    0.2280   -4.3150 hc        1 WPF      0.064700
     41 HAX3        1.7140    1.7640   -3.3570 hc        1 WPF      0.064700
     42 HAT        -1.6000   -2.8180   -3.6820 ha        1 WPF      0.152000
     43 HAS        -3.2530   -3.9850   -2.2400 ha        1 WPF      0.146000
     44 HAJ        -2.0930   -1.5140    1.1290 ha        1 WPF      0.148000
     45 HAG        -0.5180    0.7370    2.4510 ha        1 WPF      0.136000
     46 HAE        -1.8750    1.6210   -1.5600 ha        1 WPF      0.136000
     47 HAD        -1.9920    2.5240    3.3450 ha        1 WPF      0.133000
     48 HAA1       -3.0870    5.1460    1.8940 hc        1 WPF      0.045367
     49 HAA2       -4.5630    4.2630    1.3210 hc        1 WPF      0.045367
     50 HAA3       -3.9180    3.9650    2.9900 hc        1 WPF      0.045367
     51 HAB        -3.3460    3.4170   -0.6630 ha        1 WPF      0.133000
@<TRIPOS>BOND
     1    1    2 1   
     2    1   26 1   
     3    1   27 1   
     4    1   28 1   
     5    2    3 1   
     6    2    4 1   
     7    3   29 1   
     8    3   30 1   
     9    3   31 1   
    10    4    5 1   
    11    4   32 1   
    12    4   33 1   
    13    5    6 1   
    14    5   34 1   
    15    5   35 1   
    16    6    7 1   
    17    6   36 1   
    18    6   37 1   
    19    7    8 1   
    20    7   18 1   
    21    8    9 1   
    22    8   10 2   
    23    9   39 1   
    24    9   40 1   
    25    9   41 1   
    26   10   11 1   
    27   11   12 ar  
    28   11   17 ar  
    29   12   13 ar  
    30   12   42 1   
    31   13   14 ar  
    32   13   43 1   
    33   14   15 1   
    34   14   16 ar  
    35   16   17 ar  
    36   16   44 1   
    37   17   18 1   
    38   18   19 1   
    39   18   38 1   
    40   19   20 ar  
    41   19   25 ar  
    42   20   21 ar  
    43   20   45 1   
    44   21   22 ar  
    45   21   47 1   
    46   22   23 1   
    47   22   24 ar  
    48   23   48 1   
    49   23   49 1   
    50   23   50 1   
    51   24   25 ar  
    52   24   51 1   
    53   25   46 1   
@<TRIPOS>SUBSTRUCTURE
     1 WPF         1 TEMP              0 ****  ****    0 ROOT
