@<TRIPOS>MOLECULE
WPF
   52    54     1     0     0
SMALL
bcc


@<TRIPOS>ATOM
      1 CAR        -0.1730   -1.2420   -0.3400 c3        1 WPF      0.081600
      2 NAQ         1.2250   -0.8480   -0.0260 nx        1 WPF     -0.680400
      3 CAY         1.5120   -1.0450    1.4190 c3        1 WPF      0.081600
      4 CAP         2.1970   -1.6070   -0.8880 c3        1 WPF      0.108800
      5 CAO         3.5680   -0.9560   -0.9560 c3        1 WPF     -0.147400
      6 CAN         4.4480   -1.7710   -1.9300 c3        1 WPF      0.243800
      7 NAM         5.7940   -1.3010   -2.0040 nh        1 WPF     -0.802600
      8 CAW         6.2080   -0.3180   -2.9260 c2        1 WPF      0.637200
      9 CAX         5.1990    0.1470   -3.9550 c3        1 WPF     -0.135400
     10 NAV         7.4040    0.2230   -2.9480 ne        1 WPF     -0.612100
     11 CAU         8.3650   -0.1920   -2.0090 ca        1 WPF      0.144400
     12 CAT         9.6210    0.4510   -1.9650 ca        1 WPF     -0.091000
     13 CAS        10.5750    0.0560   -1.0360 ca        1 WPF     -0.110000
     14 CAI        10.2970   -0.9830   -0.1380 ca        1 WPF      0.013400
     15 Cl1        11.4670   -1.4540    0.9970 cl        1 WPF     -0.074400
     16 CAJ         9.0640   -1.6360   -0.1690 ca        1 WPF     -0.102000
     17 CAK         8.1030   -1.2440   -1.1010 ca        1 WPF     -0.129300
     18 CAL         6.7690   -1.9500   -1.1290 c3        1 WPF      0.345100
     19 CAF         6.9620   -3.4140   -1.4650 ca        1 WPF     -0.138300
     20 CAG         6.6400   -4.3890   -0.5150 ca        1 WPF     -0.112500
     21 CAD         6.8340   -5.7390   -0.8010 ca        1 WPF     -0.131000
     22 CAC         7.3480   -6.1350   -2.0410 ca        1 WPF     -0.055300
     23 CAA         7.5760   -7.5670   -2.3390 c3        1 WPF     -0.062800
     24 CAB         7.6660   -5.1550   -2.9910 ca        1 WPF     -0.131000
     25 CAE         7.4760   -3.8050   -2.7050 ca        1 WPF     -0.112500
     26 HAR1       -0.4010   -0.9950   -1.4120 hx        1 WPF      0.106533
     27 HAR2       -0.8780   -0.6810    0.3320 hx        1 WPF      0.106533
     28 HAR3       -0.2970   -2.3460   -0.1750 hx        1 WPF      0.106533
     29 HAY1        2.5710   -0.7380    1.6340 hx        1 WPF      0.106533
     30 HAY2        1.3740   -2.1270    1.6860 hx        1 WPF      0.106533
     31 HAY3        0.8070   -0.4170    2.0270 hx        1 WPF      0.106533
     32 HAP1        2.2780   -2.6520   -0.4750 hx        1 WPF      0.103700
     33 HAP2        1.7550   -1.6650   -1.9250 hx        1 WPF      0.103700
     34 HAO1        4.0520   -0.9380    0.0560 hc        1 WPF      0.072200
     35 HAO2        3.4910    0.1030   -1.3200 hc        1 WPF      0.072200
     36 HAN1        3.9640   -1.7450   -2.9480 h1        1 WPF      0.062700
     37 HAN2        4.4570   -2.8460   -1.5800 h1        1 WPF      0.062700
     38 HAL         6.3380   -1.8920   -0.0760 h1        1 WPF      0.039700
     39 HAX1        4.9480   -0.6980   -4.6430 hc        1 WPF      0.061700
     40 HAX2        5.6180    0.9850   -4.5670 hc        1 WPF      0.061700
     41 HAX3        4.2710    0.5100   -3.4520 hc        1 WPF      0.061700
     42 HAT         9.8460    1.2680   -2.6690 ha        1 WPF      0.160000
     43 HAS        11.5540    0.5620   -1.0080 ha        1 WPF      0.158000
     44 HAJ         8.8500   -2.4630    0.5260 ha        1 WPF      0.151000
     45 HAG         6.2510   -4.0940    0.4700 ha        1 WPF      0.132500
     46 HAE         7.7450   -3.0430   -3.4520 ha        1 WPF      0.132500
     47 HAD         6.5900   -6.5000   -0.0440 ha        1 WPF      0.141500
     48 HAA1        8.6310   -7.8430   -2.0840 hc        1 WPF      0.053367
     49 HAA2        7.4120   -7.7810   -3.4240 hc        1 WPF      0.053367
     50 HAA3        6.8900   -8.2170   -1.7410 hc        1 WPF      0.053367
     51 HAB         8.0770   -5.4550   -3.9670 ha        1 WPF      0.141500
     52 HAQ1        1.3350    0.1550   -0.2380 hn        1 WPF      0.452800
@<TRIPOS>BOND
     1    1    2 1   
     2    1   26 1   
     3    1   27 1   
     4    1   28 1   
     5    2    3 1   
     6    2    4 1   
     7    2   52 1   
     8    3   29 1   
     9    3   30 1   
    10    3   31 1   
    11    4    5 1   
    12    4   32 1   
    13    4   33 1   
    14    5    6 1   
    15    5   34 1   
    16    5   35 1   
    17    6    7 1   
    18    6   36 1   
    19    6   37 1   
    20    7    8 1   
    21    7   18 1   
    22    8    9 1   
    23    8   10 2   
    24    9   39 1   
    25    9   40 1   
    26    9   41 1   
    27   10   11 1   
    28   11   12 ar  
    29   11   17 ar  
    30   12   13 ar  
    31   12   42 1   
    32   13   14 ar  
    33   13   43 1   
    34   14   15 1   
    35   14   16 ar  
    36   16   17 ar  
    37   16   44 1   
    38   17   18 1   
    39   18   19 1   
    40   18   38 1   
    41   19   20 ar  
    42   19   25 ar  
    43   20   21 ar  
    44   20   45 1   
    45   21   22 ar  
    46   21   47 1   
    47   22   23 1   
    48   22   24 ar  
    49   23   48 1   
    50   23   49 1   
    51   23   50 1   
    52   24   25 ar  
    53   24   51 1   
    54   25   46 1   
@<TRIPOS>SUBSTRUCTURE
     1 WPF         1 TEMP              0 ****  ****    0 ROOT
