@<TRIPOS>MOLECULE
WPF
   52    54     1     0     0
SMALL
bcc


@<TRIPOS>ATOM
      1 CAR        -0.1730   -1.2600   -0.3200 c3        1 WPF      0.081600
      2 NAQ         1.2260   -0.8600   -0.0120 n4        1 WPF     -0.680400
      3 CAY         1.5190   -1.0530    1.4320 c3        1 WPF      0.081600
      4 CAP         2.1960   -1.6170   -0.8760 c3        1 WPF      0.108800
      5 CAO         3.5660   -0.9620   -0.9510 c3        1 WPF     -0.147400
      6 CAN         4.4440   -1.7750   -1.9270 c3        1 WPF      0.243800
      7 NAM         5.7890   -1.3020   -2.0070 nh        1 WPF     -0.802600
      8 CAW         6.1950   -0.3190   -2.9320 c2        1 WPF      0.637200
      9 CAX         5.1810    0.1420   -3.9580 c3        1 WPF     -0.135400
     10 NAV         7.3900    0.2260   -2.9590 ne        1 WPF     -0.612100
     11 CAU         8.3550   -0.1850   -2.0240 ca        1 WPF      0.144400
     12 CAT         9.6100    0.4620   -1.9850 ca        1 WPF     -0.091000
     13 CAS        10.5690    0.0710   -1.0590 ca        1 WPF     -0.110000
     14 CAI        10.2980   -0.9660   -0.1590 ca        1 WPF      0.013400
     15 CL1        11.4740   -1.4320    0.9720 cl        1 WPF     -0.074400
     16 CAJ         9.0660   -1.6230   -0.1850 ca        1 WPF     -0.102000
     17 CAK         8.1010   -1.2360   -1.1130 ca        1 WPF     -0.129300
     18 CAL         6.7680   -1.9460   -1.1340 c3        1 WPF      0.345100
     19 CAF         6.9650   -3.4100   -1.4680 ca        1 WPF     -0.138300
     20 CAG         6.6520   -4.3840   -0.5150 ca        1 WPF     -0.112500
     21 CAD         6.8480   -5.7340   -0.7980 ca        1 WPF     -0.131000
     22 CAC         7.3570   -6.1300   -2.0410 ca        1 WPF     -0.055300
     23 CAA         7.5880   -7.5630   -2.3360 c3        1 WPF     -0.062800
     24 CAB         7.6660   -5.1520   -2.9940 ca        1 WPF     -0.131000
     25 CAE         7.4730   -3.8020   -2.7100 ca        1 WPF     -0.112500
     26 HAR1       -0.8760   -0.7000    0.3540 hx        1 WPF      0.106533
     27 HAR2       -0.2920   -2.3640   -0.1520 hx        1 WPF      0.106533
     28 HAR3       -0.4050   -1.0160   -1.3910 hx        1 WPF      0.106533
     29 HAY1        2.5770   -0.7410    1.6420 hx        1 WPF      0.106533
     30 HAY2        0.8140   -0.4260    2.0420 hx        1 WPF      0.106533
     31 HAY3        1.3860   -2.1340    1.7020 hx        1 WPF      0.106533
     32 HAP1        1.7510   -1.6790   -1.9120 hx        1 WPF      0.103700
     33 HAP2        2.2830   -2.6620   -0.4620 hx        1 WPF      0.103700
     34 HAO1        3.4830    0.0960   -1.3170 hc        1 WPF      0.072200
     35 HAO2        4.0540   -0.9400    0.0590 hc        1 WPF      0.072200
     36 HAN1        3.9560   -1.7530   -2.9430 h1        1 WPF      0.062700
     37 HAN2        4.4570   -2.8500   -1.5750 h1        1 WPF      0.062700
     38 HAL         6.3420   -1.8870   -0.0800 h1        1 WPF      0.039700
     39 HAX1        5.5960    0.9800   -4.5730 hc        1 WPF      0.061700
     40 HAX2        4.2530    0.5030   -3.4510 hc        1 WPF      0.061700
     41 HAX3        4.9300   -0.7050   -4.6440 hc        1 WPF      0.061700
     42 HAT         9.8300    1.2790   -2.6920 ha        1 WPF      0.160000
     43 HAS        11.5460    0.5810   -1.0360 ha        1 WPF      0.158000
     44 HAJ         8.8580   -2.4500    0.5130 ha        1 WPF      0.151000
     45 HAG         6.2660   -4.0880    0.4720 ha        1 WPF      0.132500
     46 HAE         7.7360   -3.0410   -3.4610 ha        1 WPF      0.132500
     47 HAD         6.6110   -6.4940   -0.0380 ha        1 WPF      0.141500
     48 HAA1        7.4190   -7.7800   -3.4200 hc        1 WPF      0.053367
     49 HAA2        8.6450   -7.8350   -2.0860 hc        1 WPF      0.053367
     50 HAA3        6.9080   -8.2140   -1.7330 hc        1 WPF      0.053367
     51 HAB         8.0730   -5.4530   -3.9720 ha        1 WPF      0.141500
     52 HAQ1        1.3310    0.1420   -0.2270 hn        1 WPF      0.452800
@<TRIPOS>BOND
     1    1    2 1   
     2    1   26 1   
     3    1   27 1   
     4    1   28 1   
     5    2    3 1   
     6    2    4 1   
     7    2   52 1   
     8    3   29 1   
     9    3   30 1   
    10    3   31 1   
    11    4    5 1   
    12    4   32 1   
    13    4   33 1   
    14    5    6 1   
    15    5   34 1   
    16    5   35 1   
    17    6    7 1   
    18    6   36 1   
    19    6   37 1   
    20    7    8 1   
    21    7   18 1   
    22    8    9 1   
    23    8   10 2   
    24    9   39 1   
    25    9   40 1   
    26    9   41 1   
    27   10   11 1   
    28   11   12 ar  
    29   11   17 ar  
    30   12   13 ar  
    31   12   42 1   
    32   13   14 ar  
    33   13   43 1   
    34   14   15 1   
    35   14   16 ar  
    36   16   17 ar  
    37   16   44 1   
    38   17   18 1   
    39   18   19 1   
    40   18   38 1   
    41   19   20 ar  
    42   19   25 ar  
    43   20   21 ar  
    44   20   45 1   
    45   21   22 ar  
    46   21   47 1   
    47   22   23 1   
    48   22   24 ar  
    49   23   48 1   
    50   23   49 1   
    51   23   50 1   
    52   24   25 ar  
    53   24   51 1   
    54   25   46 1   
@<TRIPOS>SUBSTRUCTURE
     1 WPF         1 TEMP              0 ****  ****    0 ROOT
