@<TRIPOS>MOLECULE
WPF
   52    54     1     0     0
SMALL
bcc


@<TRIPOS>ATOM
      1 CAR        -0.1750   -1.2700   -0.3250 c3        1 WPF      0.081600
      2 NAQ         1.2220   -0.8660   -0.0160 n4        1 WPF     -0.680400
      3 CAY         1.5140   -1.0560    1.4290 c3        1 WPF      0.081600
      4 CAP         2.1960   -1.6220   -0.8780 c3        1 WPF      0.108800
      5 CAO         3.5640   -0.9640   -0.9510 c3        1 WPF     -0.147400
      6 CAN         4.4450   -1.7760   -1.9270 c3        1 WPF      0.243800
      7 NAM         5.7890   -1.3000   -2.0040 nh        1 WPF     -0.802600
      8 CAW         6.1950   -0.3170   -2.9290 c2        1 WPF      0.637200
      9 CAX         5.1810    0.1420   -3.9560 c3        1 WPF     -0.135400
     10 NAV         7.3900    0.2290   -2.9550 ne        1 WPF     -0.612100
     11 CAU         8.3540   -0.1810   -2.0190 ca        1 WPF      0.144400
     12 CAT         9.6090    0.4680   -1.9790 ca        1 WPF     -0.091000
     13 CAS        10.5670    0.0780   -1.0520 ca        1 WPF     -0.110000
     14 CAI        10.2960   -0.9610   -0.1520 ca        1 WPF      0.013400
     15 CL1        11.4720   -1.4260    0.9790 cl        1 WPF     -0.074400
     16 CAJ         9.0650   -1.6200   -0.1800 ca        1 WPF     -0.102000
     17 CAK         8.1000   -1.2330   -1.1090 ca        1 WPF     -0.129300
     18 CAL         6.7690   -1.9440   -1.1320 c3        1 WPF      0.345100
     19 CAF         6.9670   -3.4080   -1.4670 ca        1 WPF     -0.138300
     20 CAG         6.6510   -4.3840   -0.5170 ca        1 WPF     -0.112500
     21 CAD         6.8490   -5.7330   -0.8020 ca        1 WPF     -0.131000
     22 CAC         7.3630   -6.1270   -2.0440 ca        1 WPF     -0.055300
     23 CAA         7.5960   -7.5590   -2.3410 c3        1 WPF     -0.062800
     24 CAB         7.6750   -5.1470   -2.9940 ca        1 WPF     -0.131000
     25 CAE         7.4810   -3.7980   -2.7080 ca        1 WPF     -0.112500
     26 HAR1       -0.4060   -1.0280   -1.3970 hx        1 WPF      0.106533
     27 HAR2       -0.2910   -2.3740   -0.1550 hx        1 WPF      0.106533
     28 HAR3       -0.8810   -0.7110    0.3470 hx        1 WPF      0.106533
     29 HAY1        2.5710   -0.7410    1.6400 hx        1 WPF      0.106533
     30 HAY2        1.3840   -2.1370    1.7010 hx        1 WPF      0.106533
     31 HAY3        0.8070   -0.4300    2.0370 hx        1 WPF      0.106533
     32 HAP1        2.2840   -2.6660   -0.4620 hx        1 WPF      0.103700
     33 HAP2        1.7520   -1.6860   -1.9140 hx        1 WPF      0.103700
     34 HAO1        3.4800    0.0930   -1.3170 hc        1 WPF      0.072200
     35 HAO2        4.0510   -0.9420    0.0590 hc        1 WPF      0.072200
     36 HAN1        3.9580   -1.7540   -2.9430 h1        1 WPF      0.062700
     37 HAN2        4.4600   -2.8510   -1.5750 h1        1 WPF      0.062700
     38 HAL         6.3410   -1.8880   -0.0780 h1        1 WPF      0.039700
     39 HAX1        4.9330   -0.7040   -4.6420 hc        1 WPF      0.061700
     40 HAX2        5.5960    0.9820   -4.5700 hc        1 WPF      0.061700
     41 HAX3        4.2530    0.5020   -3.4500 hc        1 WPF      0.061700
     42 HAT         9.8280    1.2850   -2.6840 ha        1 WPF      0.160000
     43 HAS        11.5430    0.5880   -1.0280 ha        1 WPF      0.158000
     44 HAJ         8.8570   -2.4470    0.5170 ha        1 WPF      0.151000
     45 HAG         6.2620   -4.0900    0.4690 ha        1 WPF      0.132500
     46 HAE         7.7460   -3.0340   -3.4560 ha        1 WPF      0.132500
     47 HAD         6.6100   -6.4950   -0.0450 ha        1 WPF      0.141500
     48 HAA1        6.9130   -8.2110   -1.7430 hc        1 WPF      0.053367
     49 HAA2        8.6520   -7.8310   -2.0870 hc        1 WPF      0.053367
     50 HAA3        7.4320   -7.7740   -3.4260 hc        1 WPF      0.053367
     51 HAB         8.0860   -5.4450   -3.9710 ha        1 WPF      0.141500
     52 HAQ1        1.3250    0.1360   -0.2320 hn        1 WPF      0.452800
@<TRIPOS>BOND
     1    1    2 1   
     2    1   26 1   
     3    1   27 1   
     4    1   28 1   
     5    2    3 1   
     6    2    4 1   
     7    2   52 1   
     8    3   29 1   
     9    3   30 1   
    10    3   31 1   
    11    4    5 1   
    12    4   32 1   
    13    4   33 1   
    14    5    6 1   
    15    5   34 1   
    16    5   35 1   
    17    6    7 1   
    18    6   36 1   
    19    6   37 1   
    20    7    8 1   
    21    7   18 1   
    22    8    9 1   
    23    8   10 2   
    24    9   39 1   
    25    9   40 1   
    26    9   41 1   
    27   10   11 1   
    28   11   12 ar  
    29   11   17 ar  
    30   12   13 ar  
    31   12   42 1   
    32   13   14 ar  
    33   13   43 1   
    34   14   15 1   
    35   14   16 ar  
    36   16   17 ar  
    37   16   44 1   
    38   17   18 1   
    39   18   19 1   
    40   18   38 1   
    41   19   20 ar  
    42   19   25 ar  
    43   20   21 ar  
    44   20   45 1   
    45   21   22 ar  
    46   21   47 1   
    47   22   23 1   
    48   22   24 ar  
    49   23   48 1   
    50   23   49 1   
    51   23   50 1   
    52   24   25 ar  
    53   24   51 1   
    54   25   46 1   
@<TRIPOS>SUBSTRUCTURE
     1 WPF         1 TEMP              0 ****  ****    0 ROOT
