@<TRIPOS>MOLECULE
WPH
   73    77     1     0     0
SMALL
bcc


@<TRIPOS>ATOM
      1 C35         0.5580   -0.7050    0.7650 c3        1 WPH      0.082600
      2 N36         1.8710   -0.3360    0.1770 nx        1 WPH     -0.677400
      3 C39         2.9160   -0.2550    1.2290 c3        1 WPH      0.082600
      4 C37         2.2800   -1.2960   -0.9030 c3        1 WPH      0.099800
      5 C38         1.4990   -1.1030   -2.2080 c3        1 WPH      0.108400
      6 O34         1.6080    0.2800   -2.5430 os        1 WPH     -0.380900
      7 C9          1.4630    0.5670   -3.9010 ca        1 WPH      0.079100
      8 C10         2.1850    1.6730   -4.3700 ca        1 WPH     -0.152500
      9 C11         2.0290    2.0630   -5.6970 ca        1 WPH     -0.084500
     10 C8          0.6010   -0.1510   -4.7360 ca        1 WPH     -0.152500
     11 C7          0.4610    0.2460   -6.0620 ca        1 WPH     -0.084500
     12 C6          1.1710    1.3550   -6.5540 ca        1 WPH     -0.009800
     13 C2          1.0250    1.7640   -7.9270 cc        1 WPH      0.030900
     14 O3          0.1520    0.9610   -8.7130 os        1 WPH     -0.303400
     15 C1          1.5630    2.7980   -8.6690 cd        1 WPH     -0.088200
     16 C5          1.0320    2.6800  -10.0000 ca        1 WPH     -0.427400
     17 C4          0.1630    1.5320   -9.9860 ca        1 WPH      0.633600
     18 N12        -0.5410    1.0650  -11.0430 nb        1 WPH     -0.715000
     19 C13        -0.3340    1.8220  -12.1610 ca        1 WPH      0.699900
     20 N14         0.4430    2.9170  -12.3360 nb        1 WPH     -0.770000
     21 C15         1.1480    3.3820  -11.2420 ca        1 WPH      0.755200
     22 N40         1.9220    4.5140  -11.3210 nu        1 WPH     -0.854900
     23 C16         2.1790    5.1950  -12.5660 c3        1 WPH      0.211800
     24 C17         3.0360    6.4530  -12.3840 c3        1 WPH     -0.042100
     25 C18         3.3170    7.0690  -13.7080 ca        1 WPH     -0.119300
     26 C23         4.3530    6.5810  -14.5110 ca        1 WPH     -0.098000
     27 C22         4.6360    7.1510  -15.7460 ca        1 WPH     -0.158000
     28 C19         2.5570    8.1490  -14.1680 ca        1 WPH     -0.098000
     29 C20         2.8190    8.7280  -15.4030 ca        1 WPH     -0.158000
     30 C21         3.8690    8.2380  -16.2180 ca        1 WPH      0.076600
     31 N24         4.1480    8.8960  -17.4290 ns        1 WPH     -0.468100
     32 C25         4.6920    8.2440  -18.5620 c         1 WPH      0.770100
     33 O33         5.1360    7.0780  -18.4940 o         1 WPH     -0.606100
     34 N26         4.6960    8.9770  -19.7670 ns        1 WPH     -0.460100
     35 C27         5.4170    8.5670  -20.9100 ca        1 WPH      0.054600
     36 C28         5.5530    7.2110  -21.2700 ca        1 WPH     -0.154000
     37 C29         6.2150    6.8670  -22.4460 ca        1 WPH     -0.108500
     38 C30         6.7430    7.8490  -23.2820 ca        1 WPH     -0.145000
     39 C31         6.6110    9.1920  -22.9340 ca        1 WPH     -0.108500
     40 C32         5.9610    9.5590  -21.7610 ca        1 WPH     -0.154000
     41 H1          0.2640    0.0660    1.5280 hx        1 WPH      0.105367
     42 H2         -0.2160   -0.7380   -0.0490 hx        1 WPH      0.105367
     43 H3          0.6320   -1.7100    1.2580 hx        1 WPH      0.105367
     44 H5          3.0810   -1.2710    1.6750 hx        1 WPH      0.105367
     45 H6          2.5790    0.4570    2.0310 hx        1 WPH      0.105367
     46 H7          3.8740    0.1190    0.7770 hx        1 WPH      0.105367
     47 H8          3.3770   -1.1270   -1.1070 hx        1 WPH      0.110700
     48 H9          2.1280   -2.3470   -0.5300 hx        1 WPH      0.110700
     49 H10         1.9560   -1.7580   -2.9970 h1        1 WPH      0.082200
     50 H11         0.4140   -1.3620   -2.0840 h1        1 WPH      0.082200
     51 H12         2.8540    2.2250   -3.6960 ha        1 WPH      0.143000
     52 H13         2.5860    2.9340   -6.0760 ha        1 WPH      0.161000
     53 H14         0.0350   -1.0150   -4.3600 ha        1 WPH      0.143000
     54 H15        -0.2140   -0.3090   -6.7360 ha        1 WPH      0.161000
     55 H16         2.2550    3.5620   -8.3240 ha        1 WPH      0.160000
     56 H17        -0.8860    1.4850  -13.0670 h5        1 WPH      0.065100
     57 H18         2.5040    4.7190  -10.5430 hn        1 WPH      0.435800
     58 H19         1.1910    5.4850  -13.0300 h1        1 WPH      0.068200
     59 H20         2.7000    4.4970  -13.2840 h1        1 WPH      0.068200
     60 H21         2.5020    7.1860  -11.7230 hc        1 WPH      0.050700
     61 H22         4.0050    6.1900  -11.8820 hc        1 WPH      0.050700
     62 H23         4.9590    5.7310  -14.1610 ha        1 WPH      0.133500
     63 H24         5.4570    6.7390  -16.3570 ha        1 WPH      0.154000
     64 H25         1.7380    8.5460  -13.5500 ha        1 WPH      0.133500
     65 H26         2.2000    9.5740  -15.7370 ha        1 WPH      0.154000
     66 H27         3.6050    9.7180  -17.5850 hn        1 WPH      0.310500
     67 H28         4.5450    9.9620  -19.7120 hn        1 WPH      0.308500
     68 H29         5.1500    6.4170  -20.6200 ha        1 WPH      0.147500
     69 H30         6.3180    5.8040  -22.7130 ha        1 WPH      0.136000
     70 H31         7.2620    7.5660  -24.2100 ha        1 WPH      0.136000
     71 H32         7.0260    9.9730  -23.5890 ha        1 WPH      0.136000
     72 H33         5.8710   10.6260  -21.5090 ha        1 WPH      0.147500
     73 H361        1.7760    0.5940   -0.2670 hn        1 WPH      0.473800
@<TRIPOS>BOND
     1    1    2 1   
     2    1   41 1   
     3    1   42 1   
     4    1   43 1   
     5    2    3 1   
     6    2    4 1   
     7    2   73 1   
     8    3   44 1   
     9    3   45 1   
    10    3   46 1   
    11    4    5 1   
    12    4   47 1   
    13    4   48 1   
    14    5    6 1   
    15    5   49 1   
    16    5   50 1   
    17    6    7 1   
    18    7    8 ar  
    19    7   10 ar  
    20    8    9 ar  
    21    8   51 1   
    22    9   12 ar  
    23    9   52 1   
    24   10   11 ar  
    25   10   53 1   
    26   11   12 ar  
    27   11   54 1   
    28   12   13 1   
    29   13   14 1   
    30   13   15 2   
    31   14   17 1   
    32   15   16 1   
    33   15   55 1   
    34   16   17 ar  
    35   16   21 ar  
    36   17   18 ar  
    37   18   19 ar  
    38   19   20 ar  
    39   19   56 1   
    40   20   21 ar  
    41   21   22 1   
    42   22   23 1   
    43   22   57 1   
    44   23   24 1   
    45   23   58 1   
    46   23   59 1   
    47   24   25 1   
    48   24   60 1   
    49   24   61 1   
    50   25   26 ar  
    51   25   28 ar  
    52   26   27 ar  
    53   26   62 1   
    54   27   30 ar  
    55   27   63 1   
    56   28   29 ar  
    57   28   64 1   
    58   29   30 ar  
    59   29   65 1   
    60   30   31 1   
    61   31   32 1   
    62   31   66 1   
    63   32   33 2   
    64   32   34 1   
    65   34   35 1   
    66   34   67 1   
    67   35   36 ar  
    68   35   40 ar  
    69   36   37 ar  
    70   36   68 1   
    71   37   38 ar  
    72   37   69 1   
    73   38   39 ar  
    74   38   70 1   
    75   39   40 ar  
    76   39   71 1   
    77   40   72 1   
@<TRIPOS>SUBSTRUCTURE
     1 WPH         1 TEMP              0 ****  ****    0 ROOT
