@<TRIPOS>MOLECULE
WPH
   72    64     1     0     0
SMALL
bcc


@<TRIPOS>ATOM
      1 C35         1.0070   -2.0780   11.3440 c3        1 WPH     -0.117500
      2 N36         1.1510   -3.3740   10.7960 n3        1 WPH     -0.270000
      3 C39         1.3120   -4.3230   11.8430 c3        1 WPH     -0.117500
      4 C37        -0.0190   -3.7060   10.0120 c3        1 WPH     -0.072000
      5 C38         0.3600   -3.7170    8.5090 c3        1 WPH     -0.024000
      6 O34        -0.5910   -4.4670    7.7850 os        1 WPH     -0.215000
      7 C9         -0.6140   -4.1730    6.3790 c2        1 WPH      0.100000
      8 C10        -1.5450   -3.2930    5.8760 c2        1 WPH     -0.161000
      9 C11        -1.6110   -3.0550    4.5150 c1        1 WPH     -0.066000
     10 C8          0.2590   -4.8220    5.5250 c1        1 WPH     -0.210000
     11 C7          0.1980   -4.5860    4.1530 c1        1 WPH     -0.073000
     12 C6         -0.7320   -3.7080    3.6490 c1        1 WPH     -0.067000
     13 C2         -0.7640   -3.4000    2.1490 c2        1 WPH      0.035000
     14 O3         -1.4860   -4.2150    1.3440 os        1 WPH     -0.086000
     15 C1         -0.1850   -2.4080    1.3510 c1        1 WPH     -0.155000
     16 C5         -0.5710   -2.6350    0.0360 c1        1 WPH     -0.254000
     17 C4         -1.3670   -3.7390    0.0180 c1        1 WPH      0.116000
     18 N12        -1.9050   -4.1760   -1.1610 n1        1 WPH     -0.180000
     19 C13        -1.6460   -3.5090   -2.3190 c1        1 WPH      0.016000
     20 N14        -0.8460   -2.3990   -2.3050 n1        1 WPH     -0.246000
     21 C15        -0.3080   -1.9600   -1.1290 c1        1 WPH      0.210000
     22 N40         0.4180   -0.7140   -1.0980 n2        1 WPH     -0.297000
     23 C16         0.6940   -0.0190   -2.3150 c3        1 WPH     -0.027000
     24 C17         1.5760    1.1990   -2.0160 c3        1 WPH     -0.131000
     25 C18         1.3400    2.2620   -3.0620 c1        1 WPH     -0.100000
     26 C23         0.5610    3.3790   -2.7590 c1        1 WPH     -0.134000
     27 C22         0.4250    4.4030   -3.6900 c1        1 WPH     -0.134000
     28 C19         1.9730    2.1750   -4.2790 c1        1 WPH     -0.101000
     29 C20         1.8360    3.2070   -5.2190 c1        1 WPH     -0.132000
     30 C21         1.0670    4.3120   -4.9240 c1        1 WPH      0.074000
     31 N24         0.8600    5.3290   -5.9140 n         1 WPH     -0.319000
     32 C25         0.3350    4.9980   -7.1810 c2        1 WPH      0.395000
     33 O33         0.0560    3.8500   -7.4420 o         1 WPH     -0.366000
     34 N26        -0.0190    6.0570   -8.0990 n         1 WPH     -0.315000
     35 C27        -0.7120    5.7510   -9.3430 c2        1 WPH      0.065000
     36 C28        -0.0380    5.0960  -10.3770 c2        1 WPH     -0.133000
     37 C29        -0.6930    4.8340  -11.5740 c1        1 WPH     -0.109000
     38 C30        -2.0030    5.2210  -11.7380 c1        1 WPH     -0.134000
     39 C31        -2.6690    5.8710  -10.7080 c1        1 WPH     -0.134000
     40 C32        -2.0140    6.1340   -9.5110 c1        1 WPH     -0.178000
     41 H1          1.3550   -1.4050   10.6970 h1        1 WPH      0.072500
     42 H2          0.0240   -1.8930   11.5300 h1        1 WPH      0.072500
     43 H3          1.5150   -2.0200   12.1800 h1        1 WPH      0.072500
     44 H5          0.6120   -4.2130   12.4850 h1        1 WPH      0.072500
     45 H6          1.2740   -5.2070   11.4800 h1        1 WPH      0.072500
     46 H7          2.1930   -4.1840   12.2850 h1        1 WPH      0.072500
     47 H8         -0.7160   -3.0410   10.1690 h1        1 WPH      0.088500
     48 H9         -0.3510   -4.6000   10.2760 h1        1 WPH      0.088500
     49 H10         1.2380   -4.1170    8.4010 h1        1 WPH      0.087000
     50 H11         0.3760   -2.8200    8.1790 h1        1 WPH      0.087000
     51 H12        -2.1540   -2.8400    6.4750 ha        1 WPH      0.154000
     52 H13        -2.2630   -2.4400    4.1650 ha        1 WPH      0.156000
     53 H14         0.9030   -5.4310    5.8780 ha        1 WPH      0.143000
     54 H15         0.8050   -5.0380    3.5590 ha        1 WPH      0.133000
     55 H16         0.4040   -1.7020    1.6570 DU        1 WPH      0.160000
     56 H17        -2.0440   -3.8330   -3.1860 ha        1 WPH      0.193000
     57 H18         0.6610   -0.3610   -0.3200 hn        1 WPH      0.223000
     58 H19         1.1440   -0.5960   -2.9130 h1        1 WPH      0.100500
     59 H20        -0.1000    0.2640   -2.6970 h1        1 WPH      0.100500
     60 H21         1.3580    1.5430   -1.1630 hc        1 WPH      0.092500
     61 H22         2.5100    0.9330   -2.0290 hc        1 WPH      0.092500
     62 H23         0.1050    3.4420   -1.8820 ha        1 WPH      0.132000
     63 H24        -0.1260    5.1950   -3.4770 ha        1 WPH      0.132000
     64 H25         2.4910    1.4310   -4.4790 ha        1 WPH      0.139000
     65 H26         2.2740    3.1450   -6.0580 ha        1 WPH      0.172000
     66 H27         1.0180    6.2490   -5.6940 hn        1 WPH      0.221000
     67 H28         0.2470    6.9630   -7.9070 hn        1 WPH      0.220000
     68 H29         0.9020    4.8200  -10.2570 ha        1 WPH      0.169000
     69 H30        -0.2210    4.3730  -12.3050 ha        1 WPH      0.136000
     70 H31        -2.4670    5.0370  -12.5830 ha        1 WPH      0.132000
     71 H32        -3.5570    6.1340  -10.8200 ha        1 WPH      0.132000
     72 H33        -2.5010    6.6080   -8.7650 ha        1 WPH      0.128000
@<TRIPOS>BOND
     1    1    2 1   
     2    1   41 1   
     3    1   42 1   
     4    1   43 1   
     5    2    3 1   
     6    2    4 1   
     7    3   44 1   
     8    3   45 1   
     9    3   46 1   
    10    4    5 1   
    11    4   47 1   
    12    4   48 1   
    13    5    6 1   
    14    5   49 1   
    15    5   50 1   
    16    6    7 1   
    17    7    8 1   
    18    7   10 1   
    19    8    9 1   
    20    8   51 1   
    21    9   52 1   
    22   10   53 1   
    23   11   12 1   
    24   11   54 1   
    25   12   13 1   
    26   13   14 1   
    27   13   15 1   
    28   14   17 1   
    29   15   16 1   
    30   16   21 1   
    31   17   18 1   
    32   19   20 1   
    33   19   56 1   
    34   22   23 1   
    35   22   57 1   
    36   23   24 1   
    37   23   58 1   
    38   23   59 1   
    39   24   25 1   
    40   24   60 1   
    41   24   61 1   
    42   25   28 1   
    43   26   27 1   
    44   26   62 1   
    45   27   63 1   
    46   28   64 1   
    47   29   30 1   
    48   29   65 1   
    49   30   31 1   
    50   31   32 1   
    51   31   66 1   
    52   32   33 1   
    53   32   34 1   
    54   34   35 1   
    55   34   67 1   
    56   35   36 1   
    57   35   40 1   
    58   36   37 1   
    59   36   68 1   
    60   37   69 1   
    61   38   39 1   
    62   38   70 1   
    63   39   71 1   
    64   40   72 1   
@<TRIPOS>SUBSTRUCTURE
     1 WPH         1 TEMP              0 ****  ****    0 ROOT
