@<TRIPOS>MOLECULE
WPH
   76    80     1     0     0
SMALL
bcc


@<TRIPOS>ATOM
      1 C35         0.2740   -0.1670    1.0830 c3        1 WPH      0.080100
      2 N36         1.6310   -0.1670    0.4740 n4        1 WPH     -0.678400
      3 C39         2.6690   -0.3610    1.5250 c3        1 WPH      0.080100
      4 C37         1.7600   -1.2140   -0.5900 c3        1 WPH      0.098800
      5 C38         1.0920   -0.8420   -1.9160 c3        1 WPH      0.102400
      6 O34         1.7780    0.3200   -2.3980 os        1 WPH     -0.355900
      7 C9          1.5960    0.6250   -3.7360 ca        1 WPH      0.167100
      8 C10         2.4890    1.5830   -4.2550 ca        1 WPH     -0.173000
      9 C11         2.3700    1.9740   -5.5810 ca        1 WPH     -0.031500
     10 C8          0.5910    0.0690   -4.5390 ca        1 WPH     -0.173000
     11 C7          0.4840    0.4690   -5.8670 ca        1 WPH     -0.031500
     12 C6          1.3690    1.4210   -6.4040 ca        1 WPH     -0.129800
     13 C2          1.2530    1.8240   -7.7810 cc        1 WPH      0.234900
     14 O3          0.1830    1.2230   -8.4870 os        1 WPH     -0.270400
     15 C1          1.9740    2.6900   -8.5970 cd        1 WPH     -0.244200
     16 C5          1.3600    2.6630   -9.8940 ca        1 WPH     -0.262400
     17 C4          0.2350    1.7270   -9.7830 ca        1 WPH      0.612600
     18 N12        -0.6120    1.4040  -10.7700 nb        1 WPH     -0.575000
     19 C13        -0.3320    2.0460  -11.9470 ca        1 WPH      0.677900
     20 N14         0.6640    2.9290  -12.2000 nb        1 WPH     -0.700000
     21 C15         1.5060    3.2320  -11.1680 ca        1 WPH      0.483200
     22 N40         2.6100    4.1970  -11.4030 n4        1 WPH     -0.737700
     23 C16         2.6980    4.7170  -12.8060 c3        1 WPH      0.117800
     24 C17         3.8640    5.6890  -12.9960 c3        1 WPH     -0.084100
     25 C18         3.9380    6.1790  -14.4050 ca        1 WPH     -0.010300
     26 C23         4.3010    5.3150  -15.4480 ca        1 WPH     -0.090500
     27 C22         4.4620    5.7870  -16.7490 ca        1 WPH     -0.071000
     28 C19         3.7160    7.5360  -14.6900 ca        1 WPH     -0.090500
     29 C20         3.8720    8.0340  -15.9810 ca        1 WPH     -0.071000
     30 C21         4.2650    7.1570  -17.0110 ca        1 WPH     -0.074400
     31 N24         4.5280    7.6860  -18.3600 n4        1 WPH     -0.488200
     32 C25         3.3260    7.6200  -19.2600 c         1 WPH      0.467100
     33 O33         2.3940    6.8680  -19.0380 o         1 WPH     -0.285100
     34 N26         3.3120    8.5050  -20.4750 n4        1 WPH     -0.491200
     35 C27         4.6170    9.0430  -20.8560 ca        1 WPH     -0.166400
     36 C28         5.3770    8.3850  -21.8450 ca        1 WPH     -0.108000
     37 C29         6.5530    8.9790  -22.2980 ca        1 WPH     -0.086000
     38 C30         6.9700   10.2110  -21.7890 ca        1 WPH     -0.016000
     39 C31         6.2090   10.8580  -20.8050 ca        1 WPH     -0.086000
     40 C32         5.0320   10.2900  -20.3340 ca        1 WPH     -0.108000
     41 H1          0.0940   -1.1430    1.6090 hx        1 WPH      0.111033
     42 H2          0.2020    0.6730    1.8270 hx        1 WPH      0.111033
     43 H3         -0.4970   -0.0220    0.2800 hx        1 WPH      0.111033
     44 H5          2.5350    0.4190    2.3230 hx        1 WPH      0.111033
     45 H6          2.5580   -1.3830    1.9790 hx        1 WPH      0.111033
     46 H7          3.6890   -0.2590    1.0670 hx        1 WPH      0.111033
     47 H8          2.8620   -1.3830   -0.7730 hx        1 WPH      0.123700
     48 H9          1.3000   -2.1720   -0.2100 hx        1 WPH      0.123700
     49 H10         0.0020   -0.6010   -1.7960 h1        1 WPH      0.088200
     50 H11         1.2190   -1.7050   -2.6240 h1        1 WPH      0.088200
     51 H12         3.2700    2.0100   -3.6070 ha        1 WPH      0.167000
     52 H13         3.0680    2.7220   -5.9880 ha        1 WPH      0.160000
     53 H14        -0.1180   -0.6730   -4.1420 ha        1 WPH      0.167000
     54 H15        -0.3080    0.0320   -6.5020 ha        1 WPH      0.160000
     55 H16         2.8410    3.2740   -8.2980 ha        1 WPH      0.178000
     56 H17        -1.0120    1.8100  -12.8010 h5        1 WPH      0.109100
     57 H18         2.4690    4.9840  -10.7550 hn        1 WPH      0.462300
     58 H19         2.8160    3.8330  -13.4980 hx        1 WPH      0.126700
     59 H20         1.7220    5.2300  -13.0470 hx        1 WPH      0.126700
     60 H21         3.7540    6.5650  -12.2980 hc        1 WPH      0.094200
     61 H22         4.8400    5.1840  -12.7490 hc        1 WPH      0.094200
     62 H23         4.4810    4.2440  -15.2470 ha        1 WPH      0.186500
     63 H24         4.7530    5.0760  -17.5430 ha        1 WPH      0.174000
     64 H25         3.4260    8.2350  -13.8840 ha        1 WPH      0.186500
     65 H26         3.7010    9.1090  -16.1610 ha        1 WPH      0.174000
     66 H27         5.2810    7.1220  -18.7970 hn        1 WPH      0.500300
     67 H28         2.9240    7.9440  -21.2620 hn        1 WPH      0.515800
     68 H29         5.0500    7.4300  -22.2940 ha        1 WPH      0.167000
     69 H30         7.1470    8.4750  -23.0870 ha        1 WPH      0.206000
     70 H31         7.8940   10.6880  -22.1740 ha        1 WPH      0.211000
     71 H32         6.5340   11.8440  -20.4170 ha        1 WPH      0.206000
     72 H33         4.4200   10.8470  -19.6040 ha        1 WPH      0.167000
     73 H361        1.7870    0.7500    0.0270 hn        1 WPH      0.461800
     74 H402        3.4880    3.7210  -11.1560 hn        1 WPH      0.462300
     75 H242        4.8590    8.6660  -18.2840 hn        1 WPH      0.500300
     76 H262        2.6550    9.2900  -20.2920 hn        1 WPH      0.515800
@<TRIPOS>BOND
     1    1    2 1   
     2    1   41 1   
     3    1   42 1   
     4    1   43 1   
     5    2    3 1   
     6    2    4 1   
     7    2   73 1   
     8    3   44 1   
     9    3   45 1   
    10    3   46 1   
    11    4    5 1   
    12    4   47 1   
    13    4   48 1   
    14    5    6 1   
    15    5   49 1   
    16    5   50 1   
    17    6    7 1   
    18    7    8 ar  
    19    7   10 ar  
    20    8    9 ar  
    21    8   51 1   
    22    9   12 ar  
    23    9   52 1   
    24   10   11 ar  
    25   10   53 1   
    26   11   12 ar  
    27   11   54 1   
    28   12   13 1   
    29   13   14 1   
    30   13   15 2   
    31   14   17 1   
    32   15   16 1   
    33   15   55 1   
    34   16   17 ar  
    35   16   21 ar  
    36   17   18 ar  
    37   18   19 ar  
    38   19   20 ar  
    39   19   56 1   
    40   20   21 ar  
    41   21   22 1   
    42   22   23 1   
    43   22   57 1   
    44   22   74 1   
    45   23   24 1   
    46   23   58 1   
    47   23   59 1   
    48   24   25 1   
    49   24   60 1   
    50   24   61 1   
    51   25   26 ar  
    52   25   28 ar  
    53   26   27 ar  
    54   26   62 1   
    55   27   30 ar  
    56   27   63 1   
    57   28   29 ar  
    58   28   64 1   
    59   29   30 ar  
    60   29   65 1   
    61   30   31 1   
    62   31   32 1   
    63   31   66 1   
    64   31   75 1   
    65   32   33 2   
    66   32   34 1   
    67   34   35 1   
    68   34   67 1   
    69   34   76 1   
    70   35   36 ar  
    71   35   40 ar  
    72   36   37 ar  
    73   36   68 1   
    74   37   38 ar  
    75   37   69 1   
    76   38   39 ar  
    77   38   70 1   
    78   39   40 ar  
    79   39   71 1   
    80   40   72 1   
@<TRIPOS>SUBSTRUCTURE
     1 WPH         1 TEMP              0 ****  ****    0 ROOT
