@<TRIPOS>MOLECULE
WPH
   72    76     1     0     0
SMALL
bcc


@<TRIPOS>ATOM
      1 C35        13.3010    0.9780    0.5850 c3        1 WPH      0.162600
      2 N36        12.4050    1.5660   -0.3820 n3        1 WPH     -0.745600
      3 C39        12.9290    2.7640   -0.9940 c3        1 WPH      0.162600
      4 C37        11.8790    0.6070   -1.3390 c3        1 WPH      0.171800
      5 C38        10.6570   -0.1610   -0.8130 c3        1 WPH      0.126400
      6 O34         9.5210    0.6390   -1.1630 os        1 WPH     -0.321900
      7 C9          8.3010    0.1890   -0.7080 ca        1 WPH      0.146100
      8 C10         7.2200    1.0570   -0.9610 ca        1 WPH     -0.186500
      9 C11         5.9440    0.6910   -0.5610 ca        1 WPH     -0.068000
     10 C8          8.0930   -1.0340   -0.0580 ca        1 WPH     -0.186500
     11 C7          6.8070   -1.3880    0.3390 ca        1 WPH     -0.068000
     12 C6          5.7220   -0.5350    0.0930 ca        1 WPH     -0.082800
     13 C2          4.3870   -0.8940    0.5000 cc        1 WPH      0.093900
     14 O3          4.2580   -2.1510    1.1530 os        1 WPH     -0.301400
     15 C1          3.1670   -0.2590    0.3880 cd        1 WPH     -0.145200
     16 C5          2.1850   -1.1250    0.9890 ca        1 WPH     -0.394400
     17 C4          2.9010   -2.2830    1.4500 ca        1 WPH      0.613600
     18 N12         2.3470   -3.3490    2.0780 nb        1 WPH     -0.706000
     19 C13         1.0020   -3.2020    2.2280 ca        1 WPH      0.677900
     20 N14         0.1890   -2.1830    1.8490 nb        1 WPH     -0.772000
     21 C15         0.7760   -1.1040    1.2230 ca        1 WPH      0.729200
     22 N40         0.0420    0.0160    0.8720 nh        1 WPH     -0.849900
     23 C16        -1.4010    0.0020    0.8830 c3        1 WPH      0.207800
     24 C17        -2.0020    1.3460    0.4560 c3        1 WPH     -0.044100
     25 C18        -3.4860    1.2920    0.5330 ca        1 WPH     -0.107300
     26 C23        -4.2630    1.2730   -0.6280 ca        1 WPH     -0.101000
     27 C22        -5.6520    1.2410   -0.5650 ca        1 WPH     -0.156000
     28 C19        -4.1280    1.2760    1.7760 ca        1 WPH     -0.101000
     29 C20        -5.5140    1.2340    1.8610 ca        1 WPH     -0.156000
     30 C21        -6.3040    1.2200    0.6860 ca        1 WPH      0.065600
     31 N24        -7.7060    1.2550    0.8140 n         1 WPH     -0.463100
     32 C25        -8.5830    0.6480   -0.1160 c         1 WPH      0.768100
     33 O33        -8.1820    0.2320   -1.2230 o         1 WPH     -0.606100
     34 N26        -9.9360    0.5370    0.2780 n         1 WPH     -0.462100
     35 C27       -10.9690    0.1920   -0.6200 ca        1 WPH      0.058600
     36 C28       -10.7810   -0.7300   -1.6710 ca        1 WPH     -0.155500
     37 C29       -11.8540   -1.0860   -2.4830 ca        1 WPH     -0.108500
     38 C30       -13.1210   -0.5480   -2.2710 ca        1 WPH     -0.149000
     39 C31       -13.3160    0.3620   -1.2340 ca        1 WPH     -0.108500
     40 C32       -12.2580    0.7390   -0.4140 ca        1 WPH     -0.155500
     41 H1         13.5340    1.7410    1.3730 h1        1 WPH      0.031867
     42 H2         12.7950    0.1030    1.0700 h1        1 WPH      0.031867
     43 H3         14.2700    0.6230    0.1340 h1        1 WPH      0.031867
     44 H5         13.8190    2.5730   -1.6550 h1        1 WPH      0.031867
     45 H6         12.1230    3.2440   -1.6080 h1        1 WPH      0.031867
     46 H7         13.2350    3.4780   -0.1840 h1        1 WPH      0.031867
     47 H8         11.5650    1.1470   -2.2770 h1        1 WPH      0.048200
     48 H9         12.6540   -0.1630   -1.6250 h1        1 WPH      0.048200
     49 H10        10.5810   -1.1500   -1.3370 h1        1 WPH      0.045700
     50 H11        10.6880   -0.3170    0.2960 h1        1 WPH      0.045700
     51 H12         7.4040    2.0130   -1.4700 ha        1 WPH      0.146500
     52 H13         5.0970    1.3670   -0.7550 ha        1 WPH      0.144500
     53 H14         8.9280   -1.7200    0.1440 ha        1 WPH      0.146500
     54 H15         6.6360   -2.3490    0.8520 ha        1 WPH      0.144500
     55 H16         2.9720    0.7120   -0.0590 ha        1 WPH      0.160000
     56 H17         0.4870   -4.0480    2.7330 h5        1 WPH      0.056100
     57 H18         0.4820    0.6260    0.2190 hn        1 WPH      0.426800
     58 H19        -1.7940   -0.8080    0.2020 h1        1 WPH      0.061200
     59 H20        -1.7450   -0.2370    1.9300 h1        1 WPH      0.061200
     60 H21        -1.6240    2.1640    1.1270 hc        1 WPH      0.053200
     61 H22        -1.6800    1.5950   -0.5910 hc        1 WPH      0.053200
     62 H23        -3.7740    1.2840   -1.6150 ha        1 WPH      0.136000
     63 H24        -6.2360    1.2200   -1.5000 ha        1 WPH      0.151000
     64 H25        -3.5290    1.2900    2.6990 ha        1 WPH      0.136000
     65 H26        -5.9870    1.2180    2.8550 ha        1 WPH      0.151000
     66 H27        -8.0270    1.3550    1.7530 hn        1 WPH      0.307500
     67 H28       -10.2380    1.0850    1.0540 hn        1 WPH      0.306500
     68 H29        -9.7850   -1.1630   -1.8630 ha        1 WPH      0.148000
     69 H30       -11.6910   -1.8040   -3.3020 ha        1 WPH      0.134000
     70 H31       -13.9620   -0.8380   -2.9170 ha        1 WPH      0.134000
     71 H32       -14.3140    0.7930   -1.0600 ha        1 WPH      0.134000
     72 H33       -12.4380    1.4620    0.3960 ha        1 WPH      0.148000
@<TRIPOS>BOND
     1    1    2 1   
     2    1   41 1   
     3    1   42 1   
     4    1   43 1   
     5    2    3 1   
     6    2    4 1   
     7    3   44 1   
     8    3   45 1   
     9    3   46 1   
    10    4    5 1   
    11    4   47 1   
    12    4   48 1   
    13    5    6 1   
    14    5   49 1   
    15    5   50 1   
    16    6    7 1   
    17    7    8 ar  
    18    7   10 ar  
    19    8    9 ar  
    20    8   51 1   
    21    9   12 ar  
    22    9   52 1   
    23   10   11 ar  
    24   10   53 1   
    25   11   12 ar  
    26   11   54 1   
    27   12   13 1   
    28   13   14 1   
    29   13   15 2   
    30   14   17 1   
    31   15   16 1   
    32   15   55 1   
    33   16   17 ar  
    34   16   21 ar  
    35   17   18 ar  
    36   18   19 ar  
    37   19   20 ar  
    38   19   56 1   
    39   20   21 ar  
    40   21   22 1   
    41   22   23 1   
    42   22   57 1   
    43   23   24 1   
    44   23   58 1   
    45   23   59 1   
    46   24   25 1   
    47   24   60 1   
    48   24   61 1   
    49   25   26 ar  
    50   25   28 ar  
    51   26   27 ar  
    52   26   62 1   
    53   27   30 ar  
    54   27   63 1   
    55   28   29 ar  
    56   28   64 1   
    57   29   30 ar  
    58   29   65 1   
    59   30   31 1   
    60   31   32 1   
    61   31   66 1   
    62   32   33 2   
    63   32   34 1   
    64   34   35 1   
    65   34   67 1   
    66   35   36 ar  
    67   35   40 ar  
    68   36   37 ar  
    69   36   68 1   
    70   37   38 ar  
    71   37   69 1   
    72   38   39 ar  
    73   38   70 1   
    74   39   40 ar  
    75   39   71 1   
    76   40   72 1   
@<TRIPOS>SUBSTRUCTURE
     1 WPH         1 TEMP              0 ****  ****    0 ROOT
