@<TRIPOS>MOLECULE
WPI
   89    91     1     0     0
SMALL
bcc


@<TRIPOS>ATOM
      1 C1         -0.1540    0.5850    0.4270 ca        1 WPI      0.042600
      2 C2          0.9980    1.0740   -0.2270 ca        1 WPI      0.136100
      3 C3         -0.0720    0.2750    1.8010 ca        1 WPI      0.136100
      4 O4         -1.3760    0.5100   -0.2140 os        1 WPI     -0.310400
      5 C5          2.1860    1.2800    0.4800 ca        1 WPI     -0.218750
      6 O6          0.8540    1.3010   -1.5820 os        1 WPI     -0.313400
      7 C7          1.1190    0.4810    2.5080 ca        1 WPI     -0.218750
      8 O8         -1.2220   -0.2460    2.3580 os        1 WPI     -0.313400
      9 C9         -1.4720   -0.5700   -1.1440 c3        1 WPI      0.115700
     10 C10         2.2460    0.9820    1.8490 ca        1 WPI      0.006200
     11 C11         1.9420    1.9550   -2.2270 c3        1 WPI      0.111950
     12 C12        -1.2490   -0.3210    3.7790 c3        1 WPI      0.111950
     13 C13         3.4920    1.2310    2.5620 ce        1 WPI     -0.127700
     14 C14         4.0760    0.4320    3.4630 c2        1 WPI     -0.145700
     15 C16         3.5700   -0.8820    3.9220 c3        1 WPI     -0.053200
     16 C18         4.6850   -1.8620    4.2270 c3        1 WPI     -0.097400
     17 C19         5.3210   -1.5820    5.5900 c3        1 WPI      0.176800
     18 N20         6.4040   -2.4530    6.0120 n3        1 WPI     -0.747600
     19 C21         7.6250   -2.2460    5.2570 c3        1 WPI      0.161300
     20 C22         6.0010   -3.8440    6.1490 c3        1 WPI      0.178300
     21 C23         8.8460   -3.0330    5.7770 c3        1 WPI      0.161300
     22 C24         6.8930   -4.6480    7.0910 c3        1 WPI     -0.104400
     23 N25         8.8930   -4.4530    5.5180 n3        1 WPI     -0.747600
     24 C26         8.0980   -5.2810    6.4040 c3        1 WPI      0.178300
     25 C27         8.7960   -4.8030    4.1090 c3        1 WPI      0.176800
     26 C28         9.5310   -6.0990    3.7610 c3        1 WPI     -0.097400
     27 C29         9.4320   -6.3590    2.2700 c3        1 WPI     -0.053200
     28 C30        10.1410   -7.6040    1.8910 c2        1 WPI     -0.145700
     29 C31         9.6420   -8.5000    1.0290 ce        1 WPI     -0.127700
     30 C33        10.3200   -9.7190    0.6140 ca        1 WPI      0.006200
     31 C35         9.9790  -10.2910   -0.6200 ca        1 WPI     -0.218750
     32 C36        11.2830  -10.3300    1.4260 ca        1 WPI     -0.218750
     33 C37        10.6110  -11.4630   -1.0480 ca        1 WPI      0.136100
     34 C38        11.9190  -11.5000    0.9980 ca        1 WPI      0.136100
     35 C39        11.6070  -12.0730   -0.2530 ca        1 WPI      0.042600
     36 O40        10.3240  -12.1120   -2.2310 os        1 WPI     -0.313400
     37 O41        12.8570  -12.1870    1.7420 os        1 WPI     -0.313400
     38 O42        12.3190  -13.1420   -0.7610 os        1 WPI     -0.310400
     39 C43         9.4730  -11.4160   -3.1360 c3        1 WPI      0.111950
     40 C44        13.3090  -11.5470    2.9300 c3        1 WPI      0.111950
     41 C45        12.0020  -14.3900   -0.1410 c3        1 WPI      0.115700
     42 H1          3.0790    1.6730   -0.0250 ha        1 WPI      0.141250
     43 H2          1.1750    0.2610    3.5830 ha        1 WPI      0.141250
     44 H3         -1.3610   -1.5480   -0.6160 h1        1 WPI      0.041033
     45 H4         -2.5020   -0.4610   -1.5660 h1        1 WPI      0.041033
     46 H5         -0.6990   -0.4650   -1.9430 h1        1 WPI      0.041033
     47 H6          2.1630    2.9350   -1.7400 h1        1 WPI      0.045200
     48 H7          2.8480    1.3020   -2.2250 h1        1 WPI      0.045200
     49 H8          1.5670    2.1080   -3.2710 h1        1 WPI      0.045200
     50 H9         -2.2990   -0.6430    3.9990 h1        1 WPI      0.045200
     51 H10        -1.0360    0.6750    4.2370 h1        1 WPI      0.045200
     52 H11        -0.5190   -1.0840    4.1440 h1        1 WPI      0.045200
     53 H12         3.9800    2.1840    2.2880 ha        1 WPI      0.127000
     54 H14         5.0290    0.7500    3.9230 ha        1 WPI      0.124000
     55 H16         2.8960   -1.3280    3.1400 hc        1 WPI      0.051200
     56 H17         2.9440   -0.7270    4.8450 hc        1 WPI      0.051200
     57 H18         4.2650   -2.9030    4.2210 hc        1 WPI      0.047950
     58 H19         5.4630   -1.8120    3.4210 hc        1 WPI      0.047950
     59 H20         5.7140   -0.5260    5.5950 h1        1 WPI      0.039450
     60 H21         4.5180   -1.6470    6.3790 h1        1 WPI      0.039450
     61 H23         7.4850   -2.4790    4.1600 h1        1 WPI      0.044200
     62 H24         7.8820   -1.1510    5.3390 h1        1 WPI      0.044200
     63 H25         5.9610   -4.3690    5.1480 h1        1 WPI      0.035950
     64 H26         4.9550   -3.8560    6.5710 h1        1 WPI      0.035950
     65 H27         9.7510   -2.5770    5.2800 h1        1 WPI      0.044200
     66 H28         8.9470   -2.8790    6.8880 h1        1 WPI      0.044200
     67 H29         6.2760   -5.4790    7.5250 hc        1 WPI      0.053200
     68 H30         7.2330   -4.0080    7.9470 hc        1 WPI      0.053200
     69 H32         8.8020   -5.6370    7.2120 h1        1 WPI      0.035950
     70 H33         7.7430   -6.1940    5.8450 h1        1 WPI      0.035950
     71 H34         9.2550   -3.9700    3.5030 h1        1 WPI      0.039450
     72 H35         7.7200   -4.9040    3.7760 h1        1 WPI      0.039450
     73 H36        10.6070   -6.0200    4.0630 hc        1 WPI      0.047950
     74 H37         9.0890   -6.9620    4.3220 hc        1 WPI      0.047950
     75 H38         8.3520   -6.4070    1.9660 hc        1 WPI      0.051200
     76 H39         9.8950   -5.5000    1.7090 hc        1 WPI      0.051200
     77 H40        11.1320   -7.7400    2.3560 ha        1 WPI      0.124000
     78 H42         8.6530   -8.3360    0.5640 ha        1 WPI      0.127000
     79 H44         9.2130   -9.8100   -1.2440 ha        1 WPI      0.141250
     80 H45        11.5290   -9.8880    2.4010 ha        1 WPI      0.141250
     81 H46         9.4660  -12.0760   -4.0400 h1        1 WPI      0.045200
     82 H47         9.8910  -10.4110   -3.3840 h1        1 WPI      0.045200
     83 H48         8.4450  -11.3200   -2.7100 h1        1 WPI      0.045200
     84 H49        12.4780  -11.4680    3.6730 h1        1 WPI      0.045200
     85 H50        13.7300  -10.5380    2.7040 h1        1 WPI      0.045200
     86 H51        14.1090  -12.2340    3.3050 h1        1 WPI      0.045200
     87 H52        12.6740  -15.1180   -0.6600 h1        1 WPI      0.041033
     88 H53        10.9290  -14.6470   -0.3130 h1        1 WPI      0.041033
     89 H54        12.2260  -14.3480    0.9530 h1        1 WPI      0.041033
@<TRIPOS>BOND
     1    1    2 ar  
     2    1    3 ar  
     3    1    4 1   
     4    2    5 ar  
     5    2    6 1   
     6    3    7 ar  
     7    3    8 1   
     8    4    9 1   
     9    5   10 ar  
    10    5   42 1   
    11    6   11 1   
    12    7   10 ar  
    13    7   43 1   
    14    8   12 1   
    15    9   44 1   
    16    9   45 1   
    17    9   46 1   
    18   10   13 1   
    19   11   47 1   
    20   11   48 1   
    21   11   49 1   
    22   12   50 1   
    23   12   51 1   
    24   12   52 1   
    25   13   14 2   
    26   13   53 1   
    27   14   15 1   
    28   14   54 1   
    29   15   16 1   
    30   15   55 1   
    31   15   56 1   
    32   16   17 1   
    33   16   57 1   
    34   16   58 1   
    35   17   18 1   
    36   17   59 1   
    37   17   60 1   
    38   18   19 1   
    39   18   20 1   
    40   19   21 1   
    41   19   61 1   
    42   19   62 1   
    43   20   22 1   
    44   20   63 1   
    45   20   64 1   
    46   21   23 1   
    47   21   65 1   
    48   21   66 1   
    49   22   24 1   
    50   22   67 1   
    51   22   68 1   
    52   23   24 1   
    53   23   25 1   
    54   24   69 1   
    55   24   70 1   
    56   25   26 1   
    57   25   71 1   
    58   25   72 1   
    59   26   27 1   
    60   26   73 1   
    61   26   74 1   
    62   27   28 1   
    63   27   75 1   
    64   27   76 1   
    65   28   29 2   
    66   28   77 1   
    67   29   30 1   
    68   29   78 1   
    69   30   31 ar  
    70   30   32 ar  
    71   31   33 ar  
    72   31   79 1   
    73   32   34 ar  
    74   32   80 1   
    75   33   35 ar  
    76   33   36 1   
    77   34   35 ar  
    78   34   37 1   
    79   35   38 1   
    80   36   39 1   
    81   37   40 1   
    82   38   41 1   
    83   39   81 1   
    84   39   82 1   
    85   39   83 1   
    86   40   84 1   
    87   40   85 1   
    88   40   86 1   
    89   41   87 1   
    90   41   88 1   
    91   41   89 1   
@<TRIPOS>SUBSTRUCTURE
     1 WPI         1 TEMP              0 ****  ****    0 ROOT
