@<TRIPOS>MOLECULE
WPI
   89    91     1     0     0
SMALL
bcc


@<TRIPOS>ATOM
      1 C1         -0.2700    0.9420    0.2340 ca        1 WPI      0.042600
      2 C2          0.8840    1.1070   -0.5630 ca        1 WPI      0.135850
      3 C3         -0.1150    0.7840    1.6270 ca        1 WPI      0.135850
      4 O4         -1.5180    1.0510   -0.3500 os        1 WPI     -0.310400
      5 C5          2.1520    1.1560    0.0250 ca        1 WPI     -0.219000
      6 O6          0.6530    1.2030   -1.9190 os        1 WPI     -0.313150
      7 C7          1.1570    0.8160    2.2110 ca        1 WPI     -0.219000
      8 O8         -1.2840    0.5720    2.3320 os        1 WPI     -0.313150
      9 C9         -2.2210   -0.1900   -0.4390 c3        1 WPI      0.115700
     10 C10         2.2880    1.0050    1.4110 ca        1 WPI      0.006200
     11 C11         1.7730    1.5650   -2.7210 c3        1 WPI      0.111950
     12 C12        -1.1810    0.6410    3.7500 c3        1 WPI      0.111950
     13 C13         3.6220    1.0770    1.9930 ce        1 WPI     -0.129700
     14 C14         4.1300    0.2820    2.9420 c2        1 WPI     -0.145200
     15 C16         3.4320   -0.8460    3.6010 c3        1 WPI     -0.053700
     16 C18         4.3650   -1.9890    3.9460 c3        1 WPI     -0.097900
     17 C19         5.1700   -1.6920    5.2130 c3        1 WPI      0.173300
     18 N20         6.1290   -2.6930    5.6450 n3        1 WPI     -0.741600
     19 C21         7.2230   -2.8800    4.7080 c3        1 WPI      0.158800
     20 C22         5.5000   -3.9250    6.0910 c3        1 WPI      0.175300
     21 C23         8.4510   -3.5800    5.3280 c3        1 WPI      0.158800
     22 C24         6.4340   -4.8940    6.8110 c3        1 WPI     -0.085400
     23 N25         8.4790   -5.0260    5.3170 n3        1 WPI     -0.741600
     24 C26         7.3070   -5.6950    5.8550 c3        1 WPI      0.175300
     25 C27         8.9040   -5.5850    4.0400 c3        1 WPI      0.173300
     26 C28         9.1910   -7.0860    4.0920 c3        1 WPI     -0.097900
     27 C29         9.8090   -7.5650    2.7920 c3        1 WPI     -0.053700
     28 C30        11.2590   -7.2720    2.7090 c2        1 WPI     -0.145200
     29 C31        12.1780   -8.0160    2.0840 ce        1 WPI     -0.129700
     30 C33        11.9550   -9.2590    1.3570 ca        1 WPI      0.006200
     31 C35        10.8710   -9.4090    0.4880 ca        1 WPI     -0.219000
     32 C36        12.8700  -10.3070    1.5270 ca        1 WPI     -0.219000
     33 C37        10.6970  -10.6080   -0.2150 ca        1 WPI      0.135850
     34 C38        12.6980  -11.5050    0.8270 ca        1 WPI      0.135850
     35 C39        11.6170  -11.6660   -0.0680 ca        1 WPI      0.042600
     36 O40         9.6410  -10.8590   -1.0670 os        1 WPI     -0.313150
     37 O41        13.5240  -12.6040    0.9560 os        1 WPI     -0.313150
     38 O42        11.5050  -12.7800   -0.8770 os        1 WPI     -0.310400
     39 C43         8.8450   -9.7340   -1.4240 c3        1 WPI      0.111950
     40 C44        14.7050  -12.4140    1.7280 c3        1 WPI      0.111950
     41 C45        11.0780  -13.9540   -0.1840 c3        1 WPI      0.115700
     42 H1          3.0500    1.3040   -0.5920 ha        1 WPI      0.142500
     43 H2          1.2760    0.7090    3.2990 ha        1 WPI      0.142500
     44 H3         -1.6600   -0.9090   -1.0830 h1        1 WPI      0.040867
     45 H4         -2.3820   -0.6180    0.5810 h1        1 WPI      0.040867
     46 H5         -3.1930    0.0940   -0.9120 h1        1 WPI      0.040867
     47 H6          2.2130    2.5330   -2.3790 h1        1 WPI      0.045033
     48 H7          1.3320    1.6710   -3.7450 h1        1 WPI      0.045033
     49 H8          2.5430    0.7570   -2.7060 h1        1 WPI      0.045033
     50 H9         -0.7330    1.6110    4.0720 h1        1 WPI      0.045033
     51 H10        -2.2450    0.5630    4.0900 h1        1 WPI      0.045033
     52 H11        -0.5810   -0.2170    4.1390 h1        1 WPI      0.045033
     53 H12         4.2540    1.8770    1.5650 ha        1 WPI      0.128500
     54 H14         5.1660    0.4520    3.2850 ha        1 WPI      0.124000
     55 H16         2.6130   -1.2320    2.9330 hc        1 WPI      0.053950
     56 H17         2.9380   -0.4680    4.5400 hc        1 WPI      0.053950
     57 H18         5.0600   -2.1820    3.0880 hc        1 WPI      0.048450
     58 H19         3.7570   -2.9190    4.1010 hc        1 WPI      0.048450
     59 H20         4.4490   -1.5270    6.0640 h1        1 WPI      0.038700
     60 H21         5.7380   -0.7300    5.0620 h1        1 WPI      0.038700
     61 H23         6.8970   -3.4450    3.7860 h1        1 WPI      0.044700
     62 H24         7.5590   -1.8570    4.3720 h1        1 WPI      0.044700
     63 H25         5.0080   -4.4750    5.2340 h1        1 WPI      0.029450
     64 H26         4.6830   -3.6350    6.8140 h1        1 WPI      0.029450
     65 H27         9.3560   -3.2060    4.7690 h1        1 WPI      0.044700
     66 H28         8.5660   -3.2580    6.4030 h1        1 WPI      0.044700
     67 H29         5.7870   -5.6270    7.3650 hc        1 WPI      0.057200
     68 H30         7.0560   -4.3570    7.5730 hc        1 WPI      0.057200
     69 H32         7.7020   -6.5970    6.4100 h1        1 WPI      0.029450
     70 H33         6.6410   -6.0830    5.0250 h1        1 WPI      0.029450
     71 H34         9.8520   -5.0540    3.7370 h1        1 WPI      0.038700
     72 H35         8.1400   -5.3990    3.2280 h1        1 WPI      0.038700
     73 H36         9.8760   -7.3190    4.9480 hc        1 WPI      0.048450
     74 H37         8.2340   -7.6460    4.2660 hc        1 WPI      0.048450
     75 H38         9.2890   -7.0720    1.9240 hc        1 WPI      0.053950
     76 H39         9.6360   -8.6720    2.6930 hc        1 WPI      0.053950
     77 H40        11.5780   -6.3530    3.2320 ha        1 WPI      0.124000
     78 H42        13.2380   -7.6990    2.1120 ha        1 WPI      0.128500
     79 H44        10.1650   -8.5770    0.3550 ha        1 WPI      0.142500
     80 H45        13.7180  -10.1750    2.2130 ha        1 WPI      0.142500
     81 H46         8.1490  -10.1460   -2.1980 h1        1 WPI      0.045033
     82 H47         8.2730   -9.3630   -0.5390 h1        1 WPI      0.045033
     83 H48         9.4740   -8.9180   -1.8540 h1        1 WPI      0.045033
     84 H49        15.3220  -11.5790    1.3140 h1        1 WPI      0.045033
     85 H50        14.4470  -12.2180    2.7970 h1        1 WPI      0.045033
     86 H51        15.2410  -13.3910    1.6240 h1        1 WPI      0.045033
     87 H52        11.8060  -14.2160    0.6210 h1        1 WPI      0.040867
     88 H53        10.0570  -13.8020    0.2430 h1        1 WPI      0.040867
     89 H54        11.0620  -14.7380   -0.9810 h1        1 WPI      0.040867
@<TRIPOS>BOND
     1    1    2 ar  
     2    1    3 ar  
     3    1    4 1   
     4    2    5 ar  
     5    2    6 1   
     6    3    7 ar  
     7    3    8 1   
     8    4    9 1   
     9    5   10 ar  
    10    5   42 1   
    11    6   11 1   
    12    7   10 ar  
    13    7   43 1   
    14    8   12 1   
    15    9   44 1   
    16    9   45 1   
    17    9   46 1   
    18   10   13 1   
    19   11   47 1   
    20   11   48 1   
    21   11   49 1   
    22   12   50 1   
    23   12   51 1   
    24   12   52 1   
    25   13   14 2   
    26   13   53 1   
    27   14   15 1   
    28   14   54 1   
    29   15   16 1   
    30   15   55 1   
    31   15   56 1   
    32   16   17 1   
    33   16   57 1   
    34   16   58 1   
    35   17   18 1   
    36   17   59 1   
    37   17   60 1   
    38   18   19 1   
    39   18   20 1   
    40   19   21 1   
    41   19   61 1   
    42   19   62 1   
    43   20   22 1   
    44   20   63 1   
    45   20   64 1   
    46   21   23 1   
    47   21   65 1   
    48   21   66 1   
    49   22   24 1   
    50   22   67 1   
    51   22   68 1   
    52   23   24 1   
    53   23   25 1   
    54   24   69 1   
    55   24   70 1   
    56   25   26 1   
    57   25   71 1   
    58   25   72 1   
    59   26   27 1   
    60   26   73 1   
    61   26   74 1   
    62   27   28 1   
    63   27   75 1   
    64   27   76 1   
    65   28   29 2   
    66   28   77 1   
    67   29   30 1   
    68   29   78 1   
    69   30   31 ar  
    70   30   32 ar  
    71   31   33 ar  
    72   31   79 1   
    73   32   34 ar  
    74   32   80 1   
    75   33   35 ar  
    76   33   36 1   
    77   34   35 ar  
    78   34   37 1   
    79   35   38 1   
    80   36   39 1   
    81   37   40 1   
    82   38   41 1   
    83   39   81 1   
    84   39   82 1   
    85   39   83 1   
    86   40   84 1   
    87   40   85 1   
    88   40   86 1   
    89   41   87 1   
    90   41   88 1   
    91   41   89 1   
@<TRIPOS>SUBSTRUCTURE
     1 WPI         1 TEMP              0 ****  ****    0 ROOT
