@<TRIPOS>MOLECULE
WPI
   89    91     1     0     0
SMALL
bcc


@<TRIPOS>ATOM
      1 C1         -0.2820    0.9490    0.2650 ca        1 WPI      0.042600
      2 C2          0.8610    1.1020   -0.5500 ca        1 WPI      0.135850
      3 C3         -0.1070    0.8040    1.6570 ca        1 WPI      0.135850
      4 O4         -1.5380    1.0580   -0.3020 os        1 WPI     -0.310400
      5 C5          2.1380    1.1510    0.0180 ca        1 WPI     -0.219000
      6 O6          0.6110    1.1870   -1.9040 os        1 WPI     -0.313150
      7 C7          1.1730    0.8360    2.2220 ca        1 WPI     -0.219000
      8 O8         -1.2660    0.6040    2.3810 os        1 WPI     -0.313150
      9 C9         -2.2480   -0.1800   -0.3680 c3        1 WPI      0.115700
     10 C10         2.2940    1.0120    1.4040 ca        1 WPI      0.006200
     11 C11         1.7200    1.5370   -2.7250 c3        1 WPI      0.111950
     12 C12        -1.1420    0.6850    3.7960 c3        1 WPI      0.111950
     13 C13         3.6360    1.0840    1.9650 ce        1 WPI     -0.129700
     14 C14         4.1540    0.2960    2.9150 c2        1 WPI     -0.145200
     15 C16         3.4610   -0.8220    3.5950 c3        1 WPI     -0.053700
     16 C18         4.3950   -1.9640    3.9400 c3        1 WPI     -0.097900
     17 C19         5.2170   -1.6570    5.1920 c3        1 WPI      0.173300
     18 N20         6.1780   -2.6570    5.6220 n3        1 WPI     -0.741600
     19 C21         7.2590   -2.8580    4.6740 c3        1 WPI      0.158800
     20 C22         5.5510   -3.8820    6.0900 c3        1 WPI      0.175300
     21 C23         8.4930   -3.5550    5.2850 c3        1 WPI      0.158800
     22 C24         6.4910   -4.8460    6.8080 c3        1 WPI     -0.085400
     23 N25         8.5170   -5.0020    5.2900 n3        1 WPI     -0.741600
     24 C26         7.3480   -5.6610    5.8490 c3        1 WPI      0.175300
     25 C27         8.9240   -5.5760    4.0140 c3        1 WPI      0.173300
     26 C28         9.2060   -7.0780    4.0780 c3        1 WPI     -0.097900
     27 C29         9.8070   -7.5720    2.7770 c3        1 WPI     -0.053700
     28 C30        11.2570   -7.2870    2.6760 c2        1 WPI     -0.145200
     29 C31        12.1680   -8.0420    2.0490 ce        1 WPI     -0.129700
     30 C33        11.9310   -9.2920    1.3390 ca        1 WPI      0.006200
     31 C35        10.8370   -9.4460    0.4820 ca        1 WPI     -0.219000
     32 C36        12.8430  -10.3420    1.5110 ca        1 WPI     -0.219000
     33 C37        10.6500  -10.6530   -0.2050 ca        1 WPI      0.135850
     34 C38        12.6580  -11.5470    0.8270 ca        1 WPI      0.135850
     35 C39        11.5680  -11.7140   -0.0550 ca        1 WPI      0.042600
     36 O40         9.5850  -10.9080   -1.0440 os        1 WPI     -0.313150
     37 O41        13.4800  -12.6490    0.9600 os        1 WPI     -0.313150
     38 O42        11.4430  -12.8360   -0.8510 os        1 WPI     -0.310400
     39 C43         8.7910   -9.7830   -1.4060 c3        1 WPI      0.111950
     40 C44        14.6700  -12.4550    1.7190 c3        1 WPI      0.111950
     41 C45        11.0160  -14.0000   -0.1400 c3        1 WPI      0.115700
     42 H1          3.0270    1.2900   -0.6130 ha        1 WPI      0.142500
     43 H2          1.3080    0.7390    3.3090 ha        1 WPI      0.142500
     44 H3         -1.7000   -0.9070   -1.0140 h1        1 WPI      0.041033
     45 H4         -3.2260    0.1040   -0.8300 h1        1 WPI      0.041033
     46 H5         -2.3950   -0.5980    0.6580 h1        1 WPI      0.041033
     47 H6          2.4870    0.7250   -2.7140 h1        1 WPI      0.045033
     48 H7          2.1680    2.5060   -2.3990 h1        1 WPI      0.045033
     49 H8          1.2640    1.6340   -3.7440 h1        1 WPI      0.045033
     50 H9         -0.6850    1.6570    4.1030 h1        1 WPI      0.045033
     51 H10        -2.2010    0.6160    4.1520 h1        1 WPI      0.045033
     52 H11        -0.5400   -0.1720    4.1850 h1        1 WPI      0.045033
     53 H12         4.2650    1.8780    1.5200 ha        1 WPI      0.128500
     54 H14         5.1960    0.4650    3.2410 ha        1 WPI      0.124000
     55 H16         2.6320   -1.2120    2.9420 hc        1 WPI      0.053950
     56 H17         2.9820   -0.4320    4.5360 hc        1 WPI      0.053950
     57 H18         5.0770   -2.1700    3.0740 hc        1 WPI      0.048450
     58 H19         3.7860   -2.8910    4.1120 hc        1 WPI      0.048450
     59 H20         4.5090   -1.4800    6.0520 h1        1 WPI      0.038700
     60 H21         5.7870   -0.6990    5.0240 h1        1 WPI      0.038700
     61 H23         6.9190   -3.4330    3.7620 h1        1 WPI      0.044700
     62 H24         7.5940   -1.8410    4.3220 h1        1 WPI      0.044700
     63 H25         5.0460   -4.4390    5.2450 h1        1 WPI      0.029450
     64 H26         4.7450   -3.5810    6.8210 h1        1 WPI      0.029450
     65 H27         8.6230   -3.2230    6.3550 h1        1 WPI      0.044700
     66 H28         9.3920   -3.1910    4.7100 h1        1 WPI      0.044700
     67 H29         7.1250   -4.3040    7.5560 hc        1 WPI      0.057200
     68 H30         5.8490   -5.5720    7.3770 hc        1 WPI      0.057200
     69 H32         7.7470   -6.5590    6.4070 h1        1 WPI      0.029450
     70 H33         6.6710   -6.0540    5.0310 h1        1 WPI      0.029450
     71 H34         9.8700   -5.0520    3.6940 h1        1 WPI      0.038700
     72 H35         8.1510   -5.3950    3.2080 h1        1 WPI      0.038700
     73 H36         9.8990   -7.3050    4.9290 hc        1 WPI      0.048450
     74 H37         8.2490   -7.6310    4.2680 hc        1 WPI      0.048450
     75 H38         9.2800   -7.0870    1.9090 hc        1 WPI      0.053950
     76 H39         9.6290   -8.6800    2.6910 hc        1 WPI      0.053950
     77 H40        11.5860   -6.3630    3.1840 ha        1 WPI      0.124000
     78 H42        13.2280   -7.7290    2.0620 ha        1 WPI      0.128500
     79 H44        10.1340   -8.6120    0.3470 ha        1 WPI      0.142500
     80 H45        13.6980  -10.2070    2.1880 ha        1 WPI      0.142500
     81 H46         8.2300   -9.4000   -0.5190 h1        1 WPI      0.045033
     82 H47         8.0850  -10.2010   -2.1680 h1        1 WPI      0.045033
     83 H48         9.4200   -8.9750   -1.8510 h1        1 WPI      0.045033
     84 H49        14.4230  -12.2460    2.7880 h1        1 WPI      0.045033
     85 H50        15.2860  -11.6290    1.2890 h1        1 WPI      0.045033
     86 H51        15.2000  -13.4370    1.6210 h1        1 WPI      0.045033
     87 H52        10.9890  -14.7930   -0.9280 h1        1 WPI      0.041033
     88 H53        11.7510  -14.2570    0.6610 h1        1 WPI      0.041033
     89 H54        10.0010  -13.8380    0.2960 h1        1 WPI      0.041033
@<TRIPOS>BOND
     1    1    2 ar  
     2    1    3 ar  
     3    1    4 1   
     4    2    5 ar  
     5    2    6 1   
     6    3    7 ar  
     7    3    8 1   
     8    4    9 1   
     9    5   10 ar  
    10    5   42 1   
    11    6   11 1   
    12    7   10 ar  
    13    7   43 1   
    14    8   12 1   
    15    9   44 1   
    16    9   45 1   
    17    9   46 1   
    18   10   13 1   
    19   11   47 1   
    20   11   48 1   
    21   11   49 1   
    22   12   50 1   
    23   12   51 1   
    24   12   52 1   
    25   13   14 2   
    26   13   53 1   
    27   14   15 1   
    28   14   54 1   
    29   15   16 1   
    30   15   55 1   
    31   15   56 1   
    32   16   17 1   
    33   16   57 1   
    34   16   58 1   
    35   17   18 1   
    36   17   59 1   
    37   17   60 1   
    38   18   19 1   
    39   18   20 1   
    40   19   21 1   
    41   19   61 1   
    42   19   62 1   
    43   20   22 1   
    44   20   63 1   
    45   20   64 1   
    46   21   23 1   
    47   21   65 1   
    48   21   66 1   
    49   22   24 1   
    50   22   67 1   
    51   22   68 1   
    52   23   24 1   
    53   23   25 1   
    54   24   69 1   
    55   24   70 1   
    56   25   26 1   
    57   25   71 1   
    58   25   72 1   
    59   26   27 1   
    60   26   73 1   
    61   26   74 1   
    62   27   28 1   
    63   27   75 1   
    64   27   76 1   
    65   28   29 2   
    66   28   77 1   
    67   29   30 1   
    68   29   78 1   
    69   30   31 ar  
    70   30   32 ar  
    71   31   33 ar  
    72   31   79 1   
    73   32   34 ar  
    74   32   80 1   
    75   33   35 ar  
    76   33   36 1   
    77   34   35 ar  
    78   34   37 1   
    79   35   38 1   
    80   36   39 1   
    81   37   40 1   
    82   38   41 1   
    83   39   81 1   
    84   39   82 1   
    85   39   83 1   
    86   40   84 1   
    87   40   85 1   
    88   40   86 1   
    89   41   87 1   
    90   41   88 1   
    91   41   89 1   
@<TRIPOS>SUBSTRUCTURE
     1 WPI         1 TEMP              0 ****  ****    0 ROOT
