@<TRIPOS>MOLECULE
WPI
   89    91     1     0     0
SMALL
bcc


@<TRIPOS>ATOM
      1 C1         -7.5610   -3.0990   -0.2150 ca        1 WPI      0.042600
      2 C2         -6.2450   -2.6940   -0.5270 ca        1 WPI      0.136850
      3 C3         -8.4510   -2.1470    0.3290 ca        1 WPI      0.136850
      4 O4         -8.0240   -4.3620   -0.5270 os        1 WPI     -0.309900
      5 C5         -5.8420   -1.3670   -0.3360 ca        1 WPI     -0.218750
      6 O6         -5.4170   -3.6950   -0.9950 os        1 WPI     -0.312900
      7 C7         -8.0480   -0.8210    0.5150 ca        1 WPI     -0.218750
      8 O8         -9.7000   -2.6320    0.6560 os        1 WPI     -0.312900
      9 C9         -7.5350   -5.3840    0.3440 c3        1 WPI      0.115700
     10 C10        -6.7460   -0.4280    0.1750 ca        1 WPI      0.006700
     11 C11        -4.1450   -3.2800   -1.4820 c3        1 WPI      0.111700
     12 C12       -10.6740   -1.6590    1.0200 c3        1 WPI      0.111700
     13 C13        -6.3600    0.9600    0.3820 ce        1 WPI     -0.124700
     14 C14        -5.3780    1.5870   -0.2780 c2        1 WPI     -0.146700
     15 C16        -5.0350    3.0130   -0.0590 c3        1 WPI     -0.050700
     16 C18        -3.5350    3.2160    0.0270 c3        1 WPI     -0.097400
     17 C19        -3.2160    4.6980    0.2290 c3        1 WPI      0.177800
     18 N20        -1.8180    5.0670    0.3610 n3        1 WPI     -0.747600
     19 C21        -1.0760    4.9320   -0.8780 c3        1 WPI      0.161800
     20 C22        -1.1740    4.4760    1.5240 c3        1 WPI      0.178800
     21 C23         0.3680    5.4720   -0.8260 c3        1 WPI      0.161800
     22 C24         0.0480    5.2540    2.0040 c3        1 WPI     -0.104400
     23 N25         1.3550    4.6930   -0.1160 n3        1 WPI     -0.747600
     24 C26         1.3490    4.8320    1.3270 c3        1 WPI      0.178800
     25 C27         1.4890    3.3260   -0.5940 c3        1 WPI      0.177800
     26 C28         2.9010    2.7630   -0.4120 c3        1 WPI     -0.097400
     27 C29         2.9710    1.3600   -0.9820 c3        1 WPI     -0.050700
     28 C30         4.3310    0.7880   -0.8390 c2        1 WPI     -0.146700
     29 C31         4.5600   -0.4700   -0.4390 ce        1 WPI     -0.124700
     30 C33         5.8790   -1.0730   -0.3120 ca        1 WPI      0.006700
     31 C35         5.9910   -2.4680   -0.3950 ca        1 WPI     -0.218750
     32 C36         7.0190   -0.2910   -0.0940 ca        1 WPI     -0.218750
     33 C37         7.2440   -3.0780   -0.2770 ca        1 WPI      0.136850
     34 C38         8.2740   -0.9000    0.0200 ca        1 WPI      0.136850
     35 C39         8.4070   -2.3000   -0.0880 ca        1 WPI      0.042600
     36 O40         7.4490   -4.4420   -0.3190 os        1 WPI     -0.312900
     37 O41         9.4470   -0.2140    0.2640 os        1 WPI     -0.312900
     38 O42         9.6450   -2.9120   -0.1220 os        1 WPI     -0.309900
     39 C43         6.3300   -5.2320   -0.7050 c3        1 WPI      0.111700
     40 C44         9.3670    1.2060    0.2150 c3        1 WPI      0.111700
     41 C45        10.2890   -2.9760    1.1520 c3        1 WPI      0.115700
     42 H1         -4.8170   -1.0580   -0.5800 ha        1 WPI      0.140500
     43 H2         -8.7460   -0.0780    0.9260 ha        1 WPI      0.140500
     44 H3         -7.9950   -6.3180   -0.0660 h1        1 WPI      0.041367
     45 H4         -6.4200   -5.4340    0.2960 h1        1 WPI      0.041367
     46 H5         -7.8770   -5.1990    1.3900 h1        1 WPI      0.041367
     47 H6         -4.2570   -2.5190   -2.2920 h1        1 WPI      0.045117
     48 H7         -3.5180   -2.8780   -0.6490 h1        1 WPI      0.045117
     49 H8         -3.7040   -4.2260   -1.8870 h1        1 WPI      0.045117
     50 H9        -11.6080   -2.2650    1.1430 h1        1 WPI      0.045117
     51 H10       -10.3950   -1.1670    1.9840 h1        1 WPI      0.045117
     52 H11       -10.8000   -0.8990    0.2130 h1        1 WPI      0.045117
     53 H12        -6.9580    1.5000    1.1380 ha        1 WPI      0.126500
     54 H14        -4.7780    1.0720   -1.0470 ha        1 WPI      0.125000
     55 H16        -5.4440    3.6150   -0.9180 hc        1 WPI      0.049450
     56 H17        -5.5210    3.4010    0.8760 hc        1 WPI      0.049450
     57 H18        -3.1220    2.6170    0.8800 hc        1 WPI      0.047700
     58 H19        -3.0490    2.8420   -0.9110 hc        1 WPI      0.047700
     59 H20        -3.6390    5.2770   -0.6400 h1        1 WPI      0.039450
     60 H21        -3.7420    5.0530    1.1610 h1        1 WPI      0.039450
     61 H23        -1.0480    3.8590   -1.2350 h1        1 WPI      0.044200
     62 H24        -1.6240    5.5330   -1.6590 h1        1 WPI      0.044200
     63 H25        -1.9280    4.4660    2.3640 h1        1 WPI      0.035950
     64 H26        -0.8730    3.4030    1.3360 h1        1 WPI      0.035950
     65 H27         0.7160    5.5490   -1.8970 h1        1 WPI      0.044200
     66 H28         0.3650    6.5100   -0.3880 h1        1 WPI      0.044200
     67 H29        -0.1130    6.3550    1.8700 hc        1 WPI      0.053200
     68 H30         0.1650    5.0690    3.1050 hc        1 WPI      0.053200
     69 H32         2.1260    5.6160    1.5680 h1        1 WPI      0.035950
     70 H33         1.6920    3.8660    1.7980 h1        1 WPI      0.035950
     71 H34         0.7610    2.6300   -0.0820 h1        1 WPI      0.039450
     72 H35         1.2480    3.3080   -1.6950 h1        1 WPI      0.039450
     73 H36         3.6440    3.4230   -0.9310 hc        1 WPI      0.047700
     74 H37         3.1750    2.7410    0.6750 hc        1 WPI      0.047700
     75 H38         2.2090    0.7080   -0.4760 hc        1 WPI      0.049450
     76 H39         2.7080    1.3870   -2.0760 hc        1 WPI      0.049450
     77 H40         5.1570    1.4680   -1.1070 ha        1 WPI      0.125000
     78 H42         3.7170   -1.1390   -0.1900 ha        1 WPI      0.126500
     79 H44         5.0880   -3.0730   -0.5550 ha        1 WPI      0.140500
     80 H45         6.9210    0.8000   -0.0090 ha        1 WPI      0.140500
     81 H46         5.9370   -4.9100   -1.6990 h1        1 WPI      0.045117
     82 H47         6.7540   -6.2670   -0.7630 h1        1 WPI      0.045117
     83 H48         5.5270   -5.1790    0.0700 h1        1 WPI      0.045117
     84 H49         8.9740    1.5490   -0.7720 h1        1 WPI      0.045117
     85 H50         8.7290    1.5910    1.0480 h1        1 WPI      0.045117
     86 H51        10.4310    1.5290    0.3510 h1        1 WPI      0.045117
     87 H52        10.4530   -1.9470    1.5560 h1        1 WPI      0.041367
     88 H53         9.6820   -3.5860    1.8630 h1        1 WPI      0.041367
     89 H54        11.2630   -3.4770    0.9280 h1        1 WPI      0.041367
@<TRIPOS>BOND
     1    1    2 ar  
     2    1    3 ar  
     3    1    4 1   
     4    2    5 ar  
     5    2    6 1   
     6    3    7 ar  
     7    3    8 1   
     8    4    9 1   
     9    5   10 ar  
    10    5   42 1   
    11    6   11 1   
    12    7   10 ar  
    13    7   43 1   
    14    8   12 1   
    15    9   44 1   
    16    9   45 1   
    17    9   46 1   
    18   10   13 1   
    19   11   47 1   
    20   11   48 1   
    21   11   49 1   
    22   12   50 1   
    23   12   51 1   
    24   12   52 1   
    25   13   14 2   
    26   13   53 1   
    27   14   15 1   
    28   14   54 1   
    29   15   16 1   
    30   15   55 1   
    31   15   56 1   
    32   16   17 1   
    33   16   57 1   
    34   16   58 1   
    35   17   18 1   
    36   17   59 1   
    37   17   60 1   
    38   18   19 1   
    39   18   20 1   
    40   19   21 1   
    41   19   61 1   
    42   19   62 1   
    43   20   22 1   
    44   20   63 1   
    45   20   64 1   
    46   21   23 1   
    47   21   65 1   
    48   21   66 1   
    49   22   24 1   
    50   22   67 1   
    51   22   68 1   
    52   23   24 1   
    53   23   25 1   
    54   24   69 1   
    55   24   70 1   
    56   25   26 1   
    57   25   71 1   
    58   25   72 1   
    59   26   27 1   
    60   26   73 1   
    61   26   74 1   
    62   27   28 1   
    63   27   75 1   
    64   27   76 1   
    65   28   29 2   
    66   28   77 1   
    67   29   30 1   
    68   29   78 1   
    69   30   31 ar  
    70   30   32 ar  
    71   31   33 ar  
    72   31   79 1   
    73   32   34 ar  
    74   32   80 1   
    75   33   35 ar  
    76   33   36 1   
    77   34   35 ar  
    78   34   37 1   
    79   35   38 1   
    80   36   39 1   
    81   37   40 1   
    82   38   41 1   
    83   39   81 1   
    84   39   82 1   
    85   39   83 1   
    86   40   84 1   
    87   40   85 1   
    88   40   86 1   
    89   41   87 1   
    90   41   88 1   
    91   41   89 1   
@<TRIPOS>SUBSTRUCTURE
     1 WPI         1 TEMP              0 ****  ****    0 ROOT
