@<TRIPOS>MOLECULE
WPI
   89    83     1     0     0
SMALL
bcc


@<TRIPOS>ATOM
      1 C1         -5.2490    7.7650   -0.2380 c1        1 WPI     -0.001000
      2 C2         -5.0710    7.6400    1.1470 c2        1 WPI      0.074000
      3 C3         -4.4990    6.9900   -1.1030 c1        1 WPI      0.069000
      4 O4         -6.1830    8.7390   -0.7660 o         1 WPI     -0.210000
      5 C5         -4.1550    6.7510    1.6420 c1        1 WPI     -0.156000
      6 O6         -5.7520    8.5130    2.0310 os        1 WPI     -0.222000
      7 C7         -3.5820    6.1000   -0.6020 c2        1 WPI     -0.201000
      8 O8         -4.6820    7.1060   -2.4980 o         1 WPI     -0.210000
      9 C9         -7.4640    8.1860   -1.1250 c3        1 WPI     -0.074500
     10 C10        -3.4070    5.9770    0.7800 c1        1 WPI     -0.002000
     11 C11        -6.9810    8.0150    2.4890 c3        1 WPI     -0.074000
     12 C12        -5.2200    5.9260   -3.1160 c3        1 WPI     -0.074500
     13 C13        -1.9990    5.4040    0.6870 c1        1 WPI     -0.141000
     14 C14        -1.6800    4.2470    1.3550 c1        1 WPI     -0.141000
     15 C16        -2.7540    3.5210    2.2070 c2        1 WPI     -0.142000
     16 C18        -2.2590    2.1230    2.5560 c3        1 WPI     -0.156000
     17 C19        -2.5850    1.1640    1.4060 c3        1 WPI     -0.063000
     18 N20        -1.9970   -0.1070    1.6670 n3        1 WPI     -0.265000
     19 C21        -1.1490   -0.4880    0.5400 c3        1 WPI     -0.094000
     20 C22        -3.0650   -1.0990    1.8870 c3        1 WPI     -0.061000
     21 C23         0.0120   -1.3640    1.0040 c3        1 WPI     -0.065000
     22 C24        -2.4940   -2.4650    2.0680 c3        1 WPI     -0.163000
     23 N25        -0.3310   -2.7480    0.9360 n3        1 WPI     -0.271000
     24 C26        -1.7340   -2.9220    0.7860 c3        1 WPI     -0.057000
     25 C27         0.4000   -3.3950   -0.2620 c3        1 WPI     -0.063000
     26 C28         1.7320   -4.0040    0.2210 c3        1 WPI     -0.154000
     27 C29         2.7830   -3.8360   -0.8370 c3        1 WPI     -0.142000
     28 C30         3.3520   -2.4480   -0.7570 c2        1 WPI     -0.142000
     29 C31         4.7540   -2.2500   -0.8160 c1        1 WPI     -0.139000
     30 C33         5.6880   -3.4420   -0.9610 c1        1 WPI      0.017000
     31 C35         5.9590   -4.2550    0.1460 c2        1 WPI     -0.218000
     32 C36         6.3100   -3.6880   -2.1660 c1        1 WPI     -0.221000
     33 C37         6.8490   -5.3060    0.0310 c1        1 WPI      0.086000
     34 C38         7.2100   -4.7520   -2.2830 c1        1 WPI      0.046500
     35 C39         7.4770   -5.5570   -1.1850 c1        1 WPI      0.046500
     36 O40         7.2020   -6.0810    1.1970 os        1 WPI     -0.202000
     37 O41         7.9320   -4.9080   -3.4360 os        1 WPI     -0.192000
     38 O42         8.4180   -6.6050   -1.2900 os        1 WPI     -0.192000
     39 C43         6.2130   -6.9560    1.6150 c3        1 WPI     -0.077000
     40 C44         7.1320   -5.3750   -4.5760 c3        1 WPI     -0.076500
     41 C45         7.8530   -7.8420   -1.6380 c3        1 WPI     -0.076500
     42 H1         -4.0350    6.6670    2.5810 ha        1 WPI      0.153000
     43 H2         -3.0830    5.5840   -1.1770 ha        1 WPI      0.141000
     44 H3         -7.6020    8.2750   -2.1280 h1        1 WPI      0.084333
     45 H4         -7.4920    7.2460   -0.8760 h1        1 WPI      0.084333
     46 H5         -8.2050    8.6910   -0.6330 h1        1 WPI      0.084333
     47 H6         -7.6220    8.0500    1.7800 h1        1 WPI      0.086000
     48 H7         -6.8700    7.0880    2.7840 h1        1 WPI      0.086000
     49 H8         -7.2900    8.5540    3.2290 h1        1 WPI      0.086000
     50 H9         -5.3830    6.0980   -4.0350 h1        1 WPI      0.084333
     51 H10        -6.0430    5.6850   -2.6840 h1        1 WPI      0.084333
     52 H11        -4.5400    5.1460   -3.0250 h1        1 WPI      0.084333
     53 H12        -1.2970    5.8760    0.1350 ha        1 WPI      0.124000
     54 H14        -0.7470    3.8660    1.2920 ha        1 WPI      0.124000
     55 H16        -2.9120    4.0230    3.0250 ha        1 WPI      0.096500
     56 H17        -3.6250    3.4530    1.6780 ha        1 WPI      0.096500
     57 H18        -1.2990    2.1430    2.6940 hc        1 WPI      0.088000
     58 H19        -2.7050    1.8110    3.3870 hc        1 WPI      0.088000
     59 H20        -2.2100    1.5420    0.5280 h1        1 WPI      0.072500
     60 H21        -3.5850    1.0600    1.3260 h1        1 WPI      0.072500
     61 H23        -1.6900   -0.9860   -0.1220 h1        1 WPI      0.070500
     62 H24        -0.7860    0.3340    0.1140 h1        1 WPI      0.070500
     63 H25        -3.5900   -0.8450    2.7170 h1        1 WPI      0.067500
     64 H26        -3.6800   -1.1010    1.1000 h1        1 WPI      0.067500
     65 H27         0.2240   -1.1510    1.8580 h1        1 WPI      0.096500
     66 H28         0.7820   -1.1990    0.4340 h1        1 WPI      0.096500
     67 H29        -3.2270   -3.1000    2.2560 hc        1 WPI      0.097000
     68 H30        -1.8750   -2.4580    2.8240 hc        1 WPI      0.097000
     69 H32        -2.0460   -2.3880    0.0180 h1        1 WPI      0.068000
     70 H33        -1.9280   -3.8830    0.6170 h1        1 WPI      0.068000
     71 H34         0.5790   -2.7160   -0.9350 h1        1 WPI      0.068500
     72 H35        -0.1660   -4.1050   -0.6510 h1        1 WPI      0.068500
     73 H36         1.6110   -4.9310    0.4030 hc        1 WPI      0.088000
     74 H37         2.0190   -3.5470    1.0360 hc        1 WPI      0.088000
     75 H38         2.3620   -3.9830   -1.7690 hc        1 WPI      0.093500
     76 H39         3.5060   -4.4980   -0.6920 hc        1 WPI      0.093500
     77 H40         2.7500   -1.6750   -0.6630 ha        1 WPI      0.119000
     78 H42         5.1370   -1.3060   -0.7630 ha        1 WPI      0.128000
     79 H44         5.5120   -4.0770    1.0130 ha        1 WPI      0.145000
     80 H45         6.1120   -3.0980   -2.9730 ha        1 WPI      0.142000
     81 H46         5.3880   -6.7930    1.1000 h1        1 WPI      0.085000
     82 H47         6.0360   -6.8140    2.5680 h1        1 WPI      0.085000
     83 H48         6.5180   -7.8990    1.4680 h1        1 WPI      0.085000
     84 H49         7.7020   -5.8200   -5.2060 h1        1 WPI      0.082167
     85 H50         6.6990   -4.6030   -5.0130 h1        1 WPI      0.082167
     86 H51         6.3950   -6.0430   -4.2360 h1        1 WPI      0.082167
     87 H52         6.9430   -7.7190   -1.8690 h1        1 WPI      0.082167
     88 H53         8.3510   -8.2310   -2.4280 h1        1 WPI      0.082167
     89 H54         7.9200   -8.4920   -0.8310 h1        1 WPI      0.082167
@<TRIPOS>BOND
     1    1    2 1   
     2    1    3 1   
     3    2    5 1   
     4    2    6 1   
     5    3    7 1   
     6    4    9 1   
     7    5   42 1   
     8    6   11 1   
     9    7   10 1   
    10    7   43 1   
    11    8   12 1   
    12    9   44 1   
    13    9   45 1   
    14    9   46 1   
    15   11   47 1   
    16   11   48 1   
    17   11   49 1   
    18   12   50 1   
    19   12   51 1   
    20   12   52 1   
    21   13   14 1   
    22   13   53 1   
    23   14   54 1   
    24   15   16 1   
    25   15   55 1   
    26   15   56 1   
    27   16   17 1   
    28   16   57 1   
    29   16   58 1   
    30   17   18 1   
    31   17   59 1   
    32   17   60 1   
    33   18   19 1   
    34   18   20 1   
    35   19   21 1   
    36   19   61 1   
    37   19   62 1   
    38   20   22 1   
    39   20   63 1   
    40   20   64 1   
    41   21   23 1   
    42   21   65 1   
    43   21   66 1   
    44   22   24 1   
    45   22   67 1   
    46   22   68 1   
    47   23   24 1   
    48   23   25 1   
    49   24   69 1   
    50   24   70 1   
    51   25   26 1   
    52   25   71 1   
    53   25   72 1   
    54   26   27 1   
    55   26   73 1   
    56   26   74 1   
    57   27   28 1   
    58   27   75 1   
    59   27   76 1   
    60   28   29 1   
    61   28   77 1   
    62   29   78 1   
    63   30   31 1   
    64   30   32 1   
    65   31   33 1   
    66   31   79 1   
    67   32   80 1   
    68   33   36 1   
    69   34   35 1   
    70   34   37 1   
    71   35   38 1   
    72   36   39 1   
    73   37   40 1   
    74   38   41 1   
    75   39   81 1   
    76   39   82 1   
    77   39   83 1   
    78   40   84 1   
    79   40   85 1   
    80   40   86 1   
    81   41   87 1   
    82   41   88 1   
    83   41   89 1   
@<TRIPOS>SUBSTRUCTURE
     1 WPI         1 TEMP              0 ****  ****    0 ROOT
