@<TRIPOS>MOLECULE
WPL
   29    27     1     0     0
SMALL
bcc


@<TRIPOS>ATOM
      1 CAX         0.3120   -0.0670   -0.4050 c3        1 WPL     -0.127000
      2 CAP         1.7440   -0.1850   -0.0010 c2        1 WPL     -0.250000
      3 CBA         2.2860    0.4770    1.0250 c2        1 WPL     -0.102000
      4 CAU         3.7150    0.1810    1.5160 c2        1 WPL      0.373000
      5 OAF         3.7920   -0.0890    2.7490 o         1 WPL     -0.524000
      6 OAD         4.6460    0.2130    0.6840 o         1 WPL     -0.524000
      7 OAI         1.5560   -0.8020    3.8360 oh        1 WPL     -0.456000
      8 CAO         1.5290    1.4470    1.8500 c3        1 WPL     -0.163000
      9 CAW         0.0470    1.0620    1.9110 c3        1 WPL     -0.004000
     10 OAG        -0.7650    2.0560    2.5060 oh        1 WPL     -0.319000
     11 CAY        -0.4560    0.8230    0.5170 c2        1 WPL      0.323000
     12 OAH        -1.5790    1.3960    0.1930 oh        1 WPL     -0.130000
     13 CAJ         0.2340    0.3830   -1.8780 c3        1 WPL     -0.101000
     14 H1         -2.5410   -0.8910   -0.2380 ha        1 WPL      0.001000
     15 H2         -0.1690   -1.0920   -0.3020 hc        1 WPL      0.155000
     16 H3          2.3450   -0.8820   -0.6070 ha        1 WPL      0.173000
     17 H5          2.0580   -1.2300    3.1300 ho        1 WPL      0.224000
     18 H6          2.2450   -0.3250    4.3130 ho        1 WPL      0.224000
     19 H7          1.9350    1.4210    2.9040 hc        1 WPL      0.142500
     20 H8          1.6520    2.4880    1.4510 hc        1 WPL      0.142500
     21 H9         -0.0420    0.0830    2.4900 h1        1 WPL      0.191000
     22 H10        -0.3420    2.2880    3.3460 ho        1 WPL      0.242000
     23 H11        -1.8370    1.2220   -0.7680 ho        1 WPL      0.318000
     24 H12        -3.1770   -0.8070   -0.4570 ha        1 WPL      0.001000
     25 H13         0.8560   -0.3480   -2.4740 h1        1 WPL      0.119000
     26 N1         -1.1290    0.4830   -2.3520 n8        1 WPL     -0.402000
     27 HN1         0.7310    1.3910   -1.9700 h1        1 WPL      0.119000
     28 HN2        -1.1860    1.0590   -3.1690 hn        1 WPL      0.177000
     29 H131       -1.5190   -0.4180   -2.5480 hn        1 WPL      0.177000
@<TRIPOS>BOND
     1    1    2 1   
     2    1   11 1   
     3    1   13 1   
     4    1   15 1   
     5    2    3 1   
     6    2   16 1   
     7    3    4 1   
     8    3    8 1   
     9    4    5 1   
    10    4    6 1   
    11    7   17 1   
    12    7   18 1   
    13    8    9 1   
    14    8   19 1   
    15    8   20 1   
    16    9   10 1   
    17    9   11 1   
    18    9   21 1   
    19   10   22 1   
    20   11   12 1   
    21   12   23 1   
    22   13   25 1   
    23   13   26 1   
    24   13   27 1   
    25   14   24 1   
    26   26   28 1   
    27   26   29 1   
@<TRIPOS>SUBSTRUCTURE
     1 WPL         1 TEMP              0 ****  ****    0 ROOT
