@<TRIPOS>MOLECULE
WPP
   62    65     1     0     0
SMALL
bcc


@<TRIPOS>ATOM
      1 C          -2.3450   -2.0050    0.3550 c         1 WPP      0.654500
      2 N          -1.0520    0.1950    0.3620 n         1 WPP     -0.511900
      3 O          -1.8350   -2.8960   -0.3120 o         1 WPP     -0.565500
      4 CA         -1.7650   -0.7650    1.1330 cy        1 WPP     -0.028300
      5 CB         -3.2800   -0.4440    1.4380 cy        1 WPP      0.134800
      6 CAC        -0.2190    3.8770   -0.7280 ca        1 WPP     -0.105500
      7 CAE        -4.8340   -1.6640   -0.0210 c3        1 WPP     -0.084300
      8 CAF        -5.0320   -0.2170   -0.5590 c3        1 WPP      0.092100
      9 CAG         3.0390    0.9050   -1.0810 c         1 WPP      0.764100
     10 CAH        -6.4640    0.2390   -0.4570 c3        1 WPP     -0.090100
     11 CAI        -4.5230   -0.0930   -1.9750 c3        1 WPP     -0.090100
     12 CAJ         4.1430   -0.5110    0.6300 c3        1 WPP      0.061000
     13 CAK         0.2510    0.5230    0.6150 c         1 WPP      0.632100
     14 CAL         7.7850   -2.4000    1.8140 c3        1 WPP     -0.118100
     15 CAM         0.8700    1.6650   -0.2460 c3        1 WPP      0.059000
     16 CAN         5.3560    0.1130   -1.4110 c         1 WPP      0.650500
     17 CAO        -6.1490   -2.1650    0.7140 c         1 WPP      0.942600
     18 CAP         6.4940   -0.7880   -0.8930 c         1 WPP      0.634500
     19 CAR         4.8560   -1.8760    0.5660 c3        1 WPP      0.080000
     20 CAS         0.2790    2.9730    0.2150 ca        1 WPP     -0.098300
     21 CAT         0.2360    3.2900    1.5770 ca        1 WPP     -0.105500
     22 CAU        -0.3170    4.4990    1.9930 ca        1 WPP     -0.129000
     23 CAV        -0.8230    5.3970    1.0530 ca        1 WPP     -0.117000
     24 CAW        -0.7730    5.0860   -0.3060 ca        1 WPP     -0.129000
     25 NAY         2.3200    1.6880   -0.1470 n         1 WPP     -0.490900
     26 NAZ         4.2110    0.2150   -0.6180 n         1 WPP     -0.528400
     27 NBA         6.1760   -1.8030   -0.0110 n         1 WPP     -0.472800
     28 NBB        -3.6630   -1.7340    0.8290 n         1 WPP     -0.334800
     29 OBC         0.9480   -0.0660    1.4740 o         1 WPP     -0.657100
     30 OBE        -6.8890   -2.8890   -0.0020 o         1 WPP     -0.808800
     31 OBF        -6.3700   -1.8050    1.8950 o         1 WPP     -0.808800
     32 OBG         2.7130    0.8630   -2.2790 o         1 WPP     -0.546100
     33 SBJ        -4.0100    0.8940    0.4950 ss        1 WPP     -0.433200
     34 HN         -1.6070    0.7700   -0.2440 hn        1 WPP      0.344500
     35 HA         -1.1800   -1.0680    2.0400 h1        1 WPP      0.109700
     36 HB         -3.5450   -0.3690    2.5140 h2        1 WPP      0.124700
     37 HAC        -0.1750    3.6370   -1.8010 ha        1 WPP      0.141000
     38 HAE        -4.6810   -2.3640   -0.8930 h1        1 WPP      0.083700
     39 HAH        -6.7840    0.2730    0.6150 hc        1 WPP      0.047533
     40 HAHA       -6.5870    1.2500   -0.9140 hc        1 WPP      0.047533
     41 HAHB       -7.1260   -0.4910   -0.9890 hc        1 WPP      0.047533
     42 HAI        -5.1540   -0.7150   -2.6580 hc        1 WPP      0.047533
     43 HAIA       -4.5700    0.9680   -2.3210 hc        1 WPP      0.047533
     44 HAIB       -3.4660   -0.4470   -2.0510 hc        1 WPP      0.047533
     45 HAJ         3.0650   -0.7060    0.9140 h1        1 WPP      0.079200
     46 HAJA        4.6110    0.1160    1.4430 h1        1 WPP      0.079200
     47 HAL         7.0080   -2.3780    2.6140 hc        1 WPP      0.042367
     48 HALA        8.5350   -3.1880    2.0690 hc        1 WPP      0.042367
     49 HALB        8.3020   -1.4110    1.7920 hc        1 WPP      0.042367
     50 HAM         0.5990    1.4890   -1.3340 h1        1 WPP      0.115700
     51 HAQ         8.0070   -2.7600   -0.3100 h1        1 WPP      0.061700
     52 HAQA        6.7040   -3.7510    0.5070 h1        1 WPP      0.061700
     53 HAR         4.9270   -2.2730    1.6180 h1        1 WPP      0.063700
     54 HARA        4.2320   -2.5970   -0.0390 h1        1 WPP      0.063700
     55 HAT         0.6270    2.5730    2.3160 ha        1 WPP      0.141000
     56 HAU        -0.3590    4.7410    3.0650 ha        1 WPP      0.133000
     57 HAV        -1.2660    6.3480    1.3830 ha        1 WPP      0.130000
     58 HAW        -1.1730    5.7920   -1.0480 ha        1 WPP      0.133000
     59 HNAY        2.6360    1.6470    0.8030 hn        1 WPP      0.299500
     60 OBH         7.6490   -0.6020   -1.3080 o         1 WPP     -0.593500
     61 CAQ         7.1800   -2.7290    0.4570 c3        1 WPP      0.094000
     62 OBI         5.5050    0.7300   -2.4700 o         1 WPP     -0.530500
@<TRIPOS>BOND
     1    1    3 2   
     2    1    4 1   
     3    1   28 1   
     4    2    4 1   
     5    2   13 1   
     6    2   34 1   
     7    4    5 1   
     8    4   35 1   
     9    5   28 1   
    10    5   33 1   
    11    5   36 1   
    12    6   20 ar  
    13    6   24 ar  
    14    6   37 1   
    15    7    8 1   
    16    7   17 1   
    17    7   28 1   
    18    7   38 1   
    19    8   10 1   
    20    8   11 1   
    21    8   33 1   
    22    9   25 1   
    23    9   26 1   
    24    9   32 2   
    25   10   39 1   
    26   10   40 1   
    27   10   41 1   
    28   11   42 1   
    29   11   43 1   
    30   11   44 1   
    31   12   19 1   
    32   12   26 1   
    33   12   45 1   
    34   12   46 1   
    35   13   15 1   
    36   13   29 2   
    37   14   47 1   
    38   14   48 1   
    39   14   49 1   
    40   14   61 1   
    41   15   20 1   
    42   15   25 1   
    43   15   50 1   
    44   16   18 1   
    45   16   26 1   
    46   16   62 2   
    47   17   30 1   
    48   17   31 1   
    49   18   27 1   
    50   18   60 2   
    51   19   27 1   
    52   19   53 1   
    53   19   54 1   
    54   20   21 ar  
    55   21   22 ar  
    56   21   55 1   
    57   22   23 ar  
    58   22   56 1   
    59   23   24 ar  
    60   23   57 1   
    61   24   58 1   
    62   25   59 1   
    63   27   61 1   
    64   51   61 1   
    65   52   61 1   
@<TRIPOS>SUBSTRUCTURE
     1 WPP         1 TEMP              0 ****  ****    0 ROOT
