@<TRIPOS>MOLECULE
WPP
   64    60     1     0     0
SMALL
bcc


@<TRIPOS>ATOM
      1 C           1.7720    0.7790   -0.5610 c2        1 WPP      0.243000
      2 N           4.2930    0.8240   -0.0900 n         1 WPP     -0.342000
      3 O           1.2500    0.9970   -1.6280 o         1 WPP     -0.200000
      4 CA          3.0700    0.1930    0.1770 c3        1 WPP     -0.022000
      5 CB          2.3280    0.5830    1.5030 c1        1 WPP      0.073000
      6 CAC         5.6320    3.4070   -1.2150 c2        1 WPP     -0.455000
      7 CAE         0.0240    1.5800    1.2410 c3        1 WPP      0.111000
      8 CAF         0.2550    3.0000    1.9300 c2        1 WPP     -0.324000
      9 CAG         4.1410    0.8030   -4.2270 c2        1 WPP      0.423000
     10 CAH        -0.7470    0.7330    2.2490 c3        1 WPP     -0.244000
     11 CAI        -0.3460    3.9560    1.2980 c1        1 WPP      0.208000
     12 CAJ         3.4350    1.0100   -6.5250 c1        1 WPP     -0.051000
     13 CAK         5.2540    0.2740   -0.9430 c2        1 WPP      0.352000
     14 CAL         1.7750    5.2060   -8.7340 c3        1 WPP     -0.265000
     15 CAM         6.5190    1.0660   -1.2110 c3        1 WPP     -0.131000
     16 CAN         3.3470    2.9840   -5.1220 c2        1 WPP      0.251000
     17 CAO        -3.1040    3.2930   -1.3910 c1        1 WPP      0.449000
     18 CAP         2.4350    3.6370   -6.1800 c2        1 WPP      0.232000
     19 CAR         2.8860    1.7380   -7.6880 c3        1 WPP     -0.081000
     20 CAS         6.5530    2.4390   -0.6400 c2        1 WPP     -0.062000
     21 CAT         7.3970    2.7820    0.3540 c2        1 WPP     -0.174000
     22 CAU         7.4560    4.1430    0.9420 c3        1 WPP     -0.250000
     23 CAV         6.3180    4.6190    1.7050 c1        1 WPP     -0.016000
     24 CAW         5.3870    4.5930   -0.6940 c1        1 WPP      0.164000
     25 NAY         4.6350   -0.4490   -4.4600 n         1 WPP     -0.383000
     26 NAZ         3.6250    1.5920   -5.3430 n         1 WPP     -0.226000
     27 NBA         2.4950    3.1450   -7.5190 n         1 WPP     -0.202000
     28 NBB         1.2690    1.0590    0.8010 n         1 WPP     -0.336000
     29 OBC         5.0790   -0.8550   -1.4390 o         1 WPP     -0.376000
     30 OBE        -2.2090    3.3500   -0.5950 o         1 WPP     -0.224000
     31 OBF        -3.9840    3.2330   -2.1770 o         1 WPP     -0.224000
     32 OBG         4.1290    1.3210   -3.0860 o         1 WPP     -0.412000
     33 SBJ         1.1870    3.1630    3.2910 sh        1 WPP      0.391000
     34 HN          6.6140    1.1280   -2.3320 hc        1 WPP      0.138000
     35 HA          3.1380   -0.9190    0.0030 h1        1 WPP      0.190000
     36 HB          1.6890    1.9170    3.4020 hs        1 WPP      0.094000
     37 HAC         5.1210    3.1140   -2.1660 ha        1 WPP      0.238000
     38 HAE        -0.6250    1.7450    0.3210 h1        1 WPP      0.155000
     39 HAH        -0.1290    0.4810    3.1450 hc        1 WPP      0.123000
     40 HAHA       -1.6660    1.2770    2.5760 hc        1 WPP      0.123000
     41 HAHB       -1.0560   -0.2230    1.7550 hc        1 WPP      0.123000
     42 HAI         0.1500    3.3650   -0.9950 ha        1 WPP      0.001833
     43 HAIA       -0.8930    4.7040    0.7470 ha        1 WPP      0.298000
     44 HAIB        0.1790    3.2430   -1.6630 ha        1 WPP      0.001833
     45 HAJA        4.9230   -2.7360   -6.4840 ha        1 WPP      0.001833
     46 HAL         9.8740   -0.9450   -6.8580 ha        1 WPP      0.001833
     47 HALA        1.8140    5.8180   -7.7980 hc        1 WPP      0.116667
     48 HALB        9.3240   -0.7540   -6.5130 ha        1 WPP      0.001833
     49 HAM         7.3770    0.4510   -0.8230 hc        1 WPP      0.138000
     50 HAQ         2.4110    5.6950   -9.5170 hc        1 WPP      0.116667
     51 HAQA        0.7170    5.1970   -9.1110 hc        1 WPP      0.116667
     52 HAR         1.9800    1.1550   -8.0400 h1        1 WPP      0.169000
     53 HARA        3.6560    1.6720   -8.5180 h1        1 WPP      0.169000
     54 HAT         8.0960    2.0420    0.7760 ha        1 WPP      0.145000
     55 HAU         8.3640    4.2360    1.6120 hc        1 WPP      0.175000
     56 HAV         7.6150    4.9250    0.1270 hc        1 WPP      0.175000
     57 HAW         5.3980    4.0100    1.6580 ha        1 WPP      0.022000
     58 HNAY        4.5680   -0.8730   -5.3580 hn        1 WPP      0.270000
     59 OBH         1.7100    4.5690   -5.8250 o         1 WPP     -0.238000
     60 CAQ         2.2070    3.8110   -8.6290 c1        1 WPP     -0.061000
     61 OBI         3.8000    3.6340   -4.1840 o         1 WPP     -0.215000
     62 H2          4.3810    1.7850    0.1550 hn        1 WPP      0.243000
     63 HAY2        4.8990   -0.9900   -3.6650 hn        1 WPP      0.270000
     64 HAJ         4.7960   -2.3420   -7.0210 ha        1 WPP      0.001833
@<TRIPOS>BOND
     1    1    3 1   
     2    1    4 1   
     3    1   28 1   
     4    2    4 1   
     5    2   13 1   
     6    2   62 1   
     7    4    5 1   
     8    4   35 1   
     9    5   28 1   
    10    6   20 1   
    11    6   24 1   
    12    6   37 1   
    13    7    8 1   
    14    7   10 1   
    15    7   28 1   
    16    7   38 1   
    17    8   11 1   
    18    8   33 1   
    19    9   25 1   
    20    9   26 1   
    21    9   32 1   
    22   10   39 1   
    23   10   40 1   
    24   10   41 1   
    25   11   43 1   
    26   12   19 1   
    27   12   26 1   
    28   13   15 1   
    29   13   29 1   
    30   14   47 1   
    31   14   50 1   
    32   14   51 1   
    33   14   60 1   
    34   15   20 1   
    35   15   34 1   
    36   15   49 1   
    37   16   18 1   
    38   16   26 1   
    39   16   61 1   
    40   17   30 1   
    41   17   31 1   
    42   18   27 1   
    43   18   59 1   
    44   19   27 1   
    45   19   52 1   
    46   19   53 1   
    47   20   21 1   
    48   21   22 1   
    49   21   54 1   
    50   22   23 1   
    51   22   55 1   
    52   22   56 1   
    53   23   57 1   
    54   25   58 1   
    55   25   63 1   
    56   27   60 1   
    57   33   36 1   
    58   42   44 1   
    59   45   64 1   
    60   46   48 1   
@<TRIPOS>SUBSTRUCTURE
     1 WPP         1 TEMP              0 ****  ****    0 ROOT
