@<TRIPOS>MOLECULE
WPP
   64    63     1     0     0
SMALL
bcc


@<TRIPOS>ATOM
      1 C           0.1420    1.2910   -0.6320 cv        1 WPP      0.278000
      2 N           2.1070    2.3540   -1.9100 n         1 WPP     -0.370000
      3 O          -0.9820    1.1920   -1.0450 o         1 WPP     -0.144000
      4 CA          1.6610    1.3400   -1.0580 cy        1 WPP      0.064000
      5 CB          1.9130    1.5480    0.4810 cv        1 WPP     -0.307000
      6 CAC         4.6690    4.1120   -0.2660 c2        1 WPP      0.193000
      7 CAE        -0.1290    1.4460    1.9530 c2        1 WPP     -0.151000
      8 CAF         0.3120    1.4060    3.2360 c2        1 WPP     -0.006000
      9 CAG         3.0630   -0.4040   -4.7740 c2        1 WPP      0.430000
     10 CAH         1.7360    1.3550    3.6270 c3        1 WPP     -0.210500
     11 CAI        -0.6740    1.4150    4.3420 c3        1 WPP     -0.210500
     12 CAJ         4.0330   -0.1510   -7.0670 c3        1 WPP     -0.055000
     13 CAK         2.0390    3.7060   -1.5570 c2        1 WPP      0.313000
     14 CAL         7.5900    3.0050   -8.2280 c3        1 WPP     -0.275000
     15 CAM         3.0670    4.6310   -2.1720 c3        1 WPP     -0.130000
     16 CAN         4.1110    1.7040   -5.4660 c2        1 WPP      0.311000
     17 CAO        -4.6130    1.8670    2.0260 c1        1 WPP      0.427000
     18 CAP         5.2730    2.3000   -6.2900 c2        1 WPP      0.247000
     19 CAR         4.4260    0.9240   -8.0970 c3        1 WPP     -0.040000
     20 CAS         4.4490    4.3170   -1.7000 c2        1 WPP     -0.167000
     21 CAT         5.4680    4.2790   -2.5770 c2        1 WPP     -0.111000
     22 CAU         6.8920    4.0360   -2.2440 c3        1 WPP     -0.242000
     23 CAV         7.5530    2.9460   -2.9440 c1        1 WPP     -0.028000
     24 CAW         4.1180    3.1730    0.4690 c1        1 WPP     -0.975000
     25 NAY         2.7080   -1.7060   -5.0520 n         1 WPP     -0.419000
     26 NAZ         3.7280    0.3890   -5.7570 n         1 WPP     -0.339000
     27 NBA         5.4640    1.8330   -7.6180 n         1 WPP     -0.187000
     28 NBB         0.6340    1.4480    0.7910 n         1 WPP     -0.038000
     29 OBC         1.1870    4.0920   -0.7370 o         1 WPP     -0.349000
     30 OBE        -5.7570    2.0560    1.7790 o         1 WPP     -0.213500
     31 OBF        -3.4610    1.6760    2.2750 o         1 WPP     -0.213500
     32 OBG         2.8180    0.0730   -3.6380 o         1 WPP     -0.428000
     33 SBJ         3.4220    2.1820    1.2570 s4        1 WPP      1.420000
     34 HN          2.7990    5.6830   -1.8750 hc        1 WPP      0.139500
     35 HA          1.9910    0.3310   -1.4400 h1        1 WPP      0.190000
     36 HB          4.1470    1.0910    1.1370 hs        1 WPP     -0.142000
     37 HAC         5.3810    4.8290    0.2010 ha        1 WPP      0.154000
     38 HAE        -1.2200    1.4830    1.7280 h4        1 WPP      0.205000
     39 HAH         2.3090    0.6360    2.9860 hc        1 WPP      0.107500
     40 HAHA        2.1990    2.3730    3.5220 hc        1 WPP      0.107500
     41 HAHB        1.8490    1.0350    4.6940 hc        1 WPP      0.107500
     42 HAI        -0.5960    0.4610    4.9250 hc        1 WPP      0.107500
     43 HAIA       -0.4560    2.2670    5.0350 hc        1 WPP      0.107500
     44 HAIB       -1.7240    1.5180    3.9670 hc        1 WPP      0.107500
     45 HAJA        3.1200   -0.6650   -7.4880 h1        1 WPP      0.111500
     46 HAL         8.3760    3.7270   -4.9280 ha        1 WPP      0.012500
     47 HALA        7.9220    4.2200   -4.8070 ha        1 WPP      0.012500
     48 HALB        8.5170    2.4520   -8.5370 hc        1 WPP      0.122667
     49 HAM         3.0120    4.5570   -3.2930 hc        1 WPP      0.139500
     50 HAQ         7.7320    3.3960   -7.1880 hc        1 WPP      0.122667
     51 HAQA        7.4690    3.8760   -8.9270 hc        1 WPP      0.122667
     52 HAR         3.5190    1.5350   -8.3720 h1        1 WPP      0.137000
     53 HARA        4.8020    0.4050   -9.0250 h1        1 WPP      0.137000
     54 HAT         5.2690    4.4010   -3.6610 ha        1 WPP      0.156000
     55 HAU         7.4840    4.9770   -2.4670 hc        1 WPP      0.156500
     56 HAV         7.0450    3.8340   -1.1420 hc        1 WPP      0.156500
     57 HAW         6.9180    2.3360   -3.6080 ha        1 WPP      0.037000
     58 HNAY        2.9120   -2.1560   -5.9070 hn        1 WPP      0.248500
     59 OBH         5.9910    3.1390   -5.7360 o         1 WPP     -0.264000
     60 CAQ         6.4580    2.1080   -8.4600 c1        1 WPP     -0.044000
     61 OBI         3.5980    2.3920   -4.5760 o         1 WPP     -0.293000
     62 H2          2.5990    2.0780   -2.7410 hn        1 WPP      0.300000
     63 HAY2        2.2580   -2.2170   -4.3310 hn        1 WPP      0.248500
     64 HAJ         4.8630   -0.9090   -6.9700 h1        1 WPP      0.111500
@<TRIPOS>BOND
     1    1    3 1   
     2    1    4 1   
     3    1   28 1   
     4    2    4 1   
     5    2   13 1   
     6    2   62 1   
     7    4    5 1   
     8    4   35 1   
     9    5   28 1   
    10    5   33 1   
    11    6   20 1   
    12    6   24 1   
    13    6   37 1   
    14    7    8 1   
    15    7   28 1   
    16    7   38 1   
    17    8   10 1   
    18    8   11 1   
    19    9   25 1   
    20    9   26 1   
    21    9   32 1   
    22   10   39 1   
    23   10   40 1   
    24   10   41 1   
    25   11   42 1   
    26   11   43 1   
    27   11   44 1   
    28   12   19 1   
    29   12   26 1   
    30   12   45 1   
    31   12   64 1   
    32   13   15 1   
    33   13   29 1   
    34   14   48 1   
    35   14   50 1   
    36   14   51 1   
    37   14   60 1   
    38   15   20 1   
    39   15   34 1   
    40   15   49 1   
    41   16   18 1   
    42   16   26 1   
    43   16   61 1   
    44   17   30 1   
    45   17   31 1   
    46   18   27 1   
    47   18   59 1   
    48   19   27 1   
    49   19   52 1   
    50   19   53 1   
    51   20   21 1   
    52   21   22 1   
    53   21   54 1   
    54   22   23 1   
    55   22   55 1   
    56   22   56 1   
    57   23   57 1   
    58   24   33 1   
    59   25   58 1   
    60   25   63 1   
    61   27   60 1   
    62   33   36 1   
    63   46   47 1   
@<TRIPOS>SUBSTRUCTURE
     1 WPP         1 TEMP              0 ****  ****    0 ROOT
