@<TRIPOS>MOLECULE
WQP
   44    43     1     0     0
SMALL
bcc


@<TRIPOS>ATOM
      1 OAE        -1.2200   -2.3840   -0.6900 o         1 WQP     -0.935833
      2 PAD        -2.6090   -2.0300   -1.2340 p5        1 WQP      1.338900
      3 OAA        -2.5250   -1.3780   -2.5850 o         1 WQP     -0.935833
      4 OAC        -3.6470   -3.0960   -1.0380 o         1 WQP     -0.935833
      5 OAH        -2.9770   -0.8000   -0.0910 os        1 WQP     -0.580200
      6 CAN        -2.8140    0.5280   -0.4390 c3        1 WQP      0.131100
      7 CAM        -3.9620    1.4450    0.0720 c         1 WQP      0.900600
      8 OAV        -4.0160    1.8120    1.2910 o         1 WQP     -0.902800
      9 OAL        -4.7910    1.9190   -0.7690 o         1 WQP     -0.902800
     10 CAO        -1.5100    1.1330    0.1620 c3        1 WQP     -0.130400
     11 CAP        -0.3700    0.1390    0.0840 c3        1 WQP      0.105100
     12 OAW        -0.4020   -0.7320    1.2070 oh        1 WQP     -0.695800
     13 CAQ         1.0650    0.7210    0.0470 c3        1 WQP      0.052700
     14 NAI         1.2640    1.6550    1.1460 n         1 WQP     -0.519900
     15 CAF         1.8630    2.8800    1.0150 c         1 WQP      0.641100
     16 CAG         1.5740    3.9050    2.0970 c3        1 WQP     -0.181100
     17 OAB         2.6730    3.1660    0.1000 o         1 WQP     -0.668100
     18 CAR         2.0570   -0.4780    0.1290 c3        1 WQP      0.145100
     19 OAX         1.6960   -1.5680   -0.6890 oh        1 WQP     -0.677800
     20 CAS         3.4620   -0.0510   -0.3550 c3        1 WQP      0.101100
     21 OAJ         3.6320   -0.2030   -1.7550 oh        1 WQP     -0.642800
     22 CAT         4.5540   -0.8870    0.3450 c3        1 WQP      0.081100
     23 OAY         4.7180   -0.5070    1.7080 oh        1 WQP     -0.631800
     24 CAU         5.9230   -0.6800   -0.3130 c3        1 WQP      0.147400
     25 OAK         6.1090   -1.5400   -1.4190 oh        1 WQP     -0.637800
     26 HAN        -2.7610    0.6100   -1.5650 h1        1 WQP      0.044700
     27 HAO1       -1.2560    2.0650   -0.4010 hc        1 WQP      0.020200
     28 HAO2       -1.7150    1.4000    1.2310 hc        1 WQP      0.020200
     29 HAP        -0.5270   -0.4640   -0.8750 h1        1 WQP      0.134700
     30 HAW        -1.0790   -1.4130    0.9600 ho        1 WQP      0.496000
     31 HAQ         1.2270    1.2550   -0.9320 h1        1 WQP      0.066700
     32 HAI         0.5550    1.5700    1.8480 hn        1 WQP      0.326500
     33 HAR         2.1060   -0.8340    1.1980 h1        1 WQP      0.033700
     34 HAG1        1.7850    3.4870    3.1090 hc        1 WQP      0.049033
     35 HAG2        2.2150    4.8020    1.9300 hc        1 WQP      0.049033
     36 HAG3        0.4990    4.2060    2.0460 hc        1 WQP      0.049033
     37 HAX         0.7490   -1.8310   -0.5290 ho        1 WQP      0.536000
     38 HAS         3.6340    1.0420   -0.1400 h1        1 WQP      0.083700
     39 HAJ         2.8710   -0.6950   -2.1040 ho        1 WQP      0.449000
     40 HAT         4.2690   -1.9760    0.3040 h1        1 WQP      0.062700
     41 HAY         3.8460   -0.2540    2.0370 ho        1 WQP      0.419000
     42 HAU1        6.0290    0.3880   -0.6410 h1        1 WQP      0.032700
     43 HAU2        6.7450   -0.9410    0.4040 h1        1 WQP      0.032700
     44 HAK         5.3270   -1.4450   -1.9840 ho        1 WQP      0.431000
@<TRIPOS>BOND
     1    1    2 1   
     2    2    3 1   
     3    2    4 1   
     4    2    5 1   
     5    5    6 1   
     6    6    7 1   
     7    6   10 1   
     8    6   26 1   
     9    7    8 1   
    10    7    9 1   
    11   10   11 1   
    12   10   27 1   
    13   10   28 1   
    14   11   12 1   
    15   11   13 1   
    16   11   29 1   
    17   12   30 1   
    18   13   14 1   
    19   13   18 1   
    20   13   31 1   
    21   14   15 1   
    22   14   32 1   
    23   15   16 1   
    24   15   17 2   
    25   16   34 1   
    26   16   35 1   
    27   16   36 1   
    28   18   19 1   
    29   18   20 1   
    30   18   33 1   
    31   19   37 1   
    32   20   21 1   
    33   20   22 1   
    34   20   38 1   
    35   21   39 1   
    36   22   23 1   
    37   22   24 1   
    38   22   40 1   
    39   23   41 1   
    40   24   25 1   
    41   24   42 1   
    42   24   43 1   
    43   25   44 1   
@<TRIPOS>SUBSTRUCTURE
     1 WQP         1 TEMP              0 ****  ****    0 ROOT
