@<TRIPOS>MOLECULE
WQP
   44    43     1     0     0
SMALL
bcc


@<TRIPOS>ATOM
      1 OAE         2.2650    0.2650   -2.0320 oh        1 WQP     -0.822400
      2 PAD         3.0760    0.3600   -0.6190 p5        1 WQP      1.439800
      3 OAA         2.4630   -0.6200    0.3100 o         1 WQP     -0.871500
      4 OAC         4.5280    0.2810   -0.9380 o         1 WQP     -0.871500
      5 OAH         2.7350    1.9160   -0.2440 os        1 WQP     -0.587200
      6 CAN         1.4080    2.2870    0.0450 c3        1 WQP      0.106100
      7 CAM         1.3750    3.2070    1.2980 c         1 WQP      0.911600
      8 OAV         1.8500    4.3830    1.2540 o         1 WQP     -0.886300
      9 OAL         0.8060    2.7720    2.3480 o         1 WQP     -0.886300
     10 CAO         0.7940    3.0350   -1.1530 c3        1 WQP     -0.147400
     11 CAP        -0.6000    2.5180   -1.5300 c3        1 WQP      0.413800
     12 OAW        -0.6620    1.3510   -2.1240 o         1 WQP     -0.874500
     13 CAQ        -1.2320    3.6810   -2.5620 c3        1 WQP     -0.105300
     14 NAI        -0.6120    3.4940   -3.8500 n         1 WQP     -0.485900
     15 CAF        -0.0960    4.5130   -4.5980 c         1 WQP      0.636100
     16 CAG         0.9650    4.1570   -5.6220 c3        1 WQP     -0.175100
     17 OAB        -0.5070    5.7030   -4.5280 o         1 WQP     -0.707100
     18 CAR        -2.7540    3.4480   -2.5640 c3        1 WQP      0.118100
     19 OAX        -3.3450    4.0520   -1.4160 oh        1 WQP     -0.650800
     20 CAS        -3.5140    3.9950   -3.7850 c3        1 WQP      0.119100
     21 OAJ        -3.3610    5.3940   -3.9680 oh        1 WQP     -0.654800
     22 CAT        -5.0310    3.7420   -3.6520 c3        1 WQP      0.100100
     23 OAY        -5.3400    2.3680   -3.8570 oh        1 WQP     -0.634800
     24 CAU        -5.8260    4.5130   -4.7120 c3        1 WQP      0.150400
     25 OAK        -6.1440    5.8210   -4.2790 oh        1 WQP     -0.640800
     26 HAN         0.8150    1.3510    0.2610 h1        1 WQP      0.041700
     27 HAO1        0.7450    4.1250   -0.8980 hc        1 WQP      0.024700
     28 HAO2        1.4710    2.9320   -2.0400 hc        1 WQP      0.024700
     29 HAP        -1.2820    2.6250   -0.6250 h1        1 WQP     -0.075300
     30 HAW         1.3440    0.5270   -1.9780 ho        1 WQP      0.464000
     31 HAQ        -1.0140    4.7060   -2.1630 h1        1 WQP      0.047700
     32 HAI        -0.1620    2.5910   -3.9020 hn        1 WQP      0.343500
     33 HAR        -2.9210    2.3310   -2.5090 h1        1 WQP      0.064700
     34 HAG1        0.6210    3.3280   -6.2840 hc        1 WQP      0.047700
     35 HAG2        1.8930    3.8330   -5.0900 hc        1 WQP      0.047700
     36 HAG3        1.1900    5.0540   -6.2440 hc        1 WQP      0.047700
     37 HAX        -2.7140    3.9450   -0.6890 ho        1 WQP      0.435000
     38 HAS        -3.1400    3.4700   -4.7090 h1        1 WQP      0.041700
     39 HAJ        -2.4540    5.6200   -3.7040 ho        1 WQP      0.458000
     40 HAT        -5.3680    4.0500   -2.6230 h1        1 WQP      0.068700
     41 HAY        -4.6920    1.8600   -3.3500 ho        1 WQP      0.426000
     42 HAU1       -6.8150    4.0160   -4.8970 h1        1 WQP      0.030700
     43 HAU2       -5.2410    4.5630   -5.6680 h1        1 WQP      0.030700
     44 HAK        -5.3240    6.2160   -3.9480 ho        1 WQP      0.435000
@<TRIPOS>BOND
     1    1    2 1   
     2    1   30 1   
     3    2    3 1   
     4    2    4 1   
     5    2    5 1   
     6    5    6 1   
     7    6    7 1   
     8    6   10 1   
     9    6   26 1   
    10    7    8 1   
    11    7    9 1   
    12   10   11 1   
    13   10   27 1   
    14   10   28 1   
    15   11   12 1   
    16   11   13 1   
    17   11   29 1   
    18   13   14 1   
    19   13   18 1   
    20   13   31 1   
    21   14   15 1   
    22   14   32 1   
    23   15   16 1   
    24   15   17 2   
    25   16   34 1   
    26   16   35 1   
    27   16   36 1   
    28   18   19 1   
    29   18   20 1   
    30   18   33 1   
    31   19   37 1   
    32   20   21 1   
    33   20   22 1   
    34   20   38 1   
    35   21   39 1   
    36   22   23 1   
    37   22   24 1   
    38   22   40 1   
    39   23   41 1   
    40   24   25 1   
    41   24   42 1   
    42   24   43 1   
    43   25   44 1   
@<TRIPOS>SUBSTRUCTURE
     1 WQP         1 TEMP              0 ****  ****    0 ROOT
