@<TRIPOS>MOLECULE
WQP
   45    44     1     0     0
SMALL
bcc


@<TRIPOS>ATOM
      1 OAE         0.0000    0.0000    0.0000 o         1 WQP     -0.661500
      2 PAD         1.6100    0.0000    0.0000 p5        1 WQP      0.776900
      3 OAA         2.1460    0.0000    1.5190 o         1 WQP     -0.661500
      4 OAC         2.1030    1.2090   -0.6970 o         1 WQP     -0.661500
      5 OAH         2.1470   -1.3150   -0.7580 os        1 WQP     -0.449200
      6 CAN         1.9290   -1.5530   -2.1500 c3        1 WQP      0.172100
      7 CAM         3.2570   -1.6700   -2.8530 c         1 WQP      0.971600
      8 OAV         3.3010   -1.7950   -4.1880 o         1 WQP     -0.921300
      9 OAL         4.2830   -1.6500   -2.2140 o         1 WQP     -0.921300
     10 CAO         1.1430   -2.8530   -2.3280 c3        1 WQP     -0.054400
     11 CAP        -0.2530   -2.6920   -1.7220 c3        1 WQP      0.171100
     12 OAW        -0.1410   -2.5070   -0.3090 oh        1 WQP     -0.577800
     13 CAQ        -1.0820   -3.9440   -2.0090 c3        1 WQP     -0.121500
     14 NAI        -0.4110   -5.1150   -1.4390 ny        1 WQP      0.208200
     15 CAF         0.0630   -6.0820   -2.2500 c         1 WQP      0.166100
     16 CAG         0.8520   -7.2290   -1.6740 c3        1 WQP     -0.020100
     17 OAB        -0.1450   -6.0290   -3.4430 o         1 WQP     -0.561100
     18 CAR        -2.4690   -3.7950   -1.3790 c3        1 WQP      0.160100
     19 OAX        -3.1230   -2.6530   -1.9350 oh        1 WQP     -0.573800
     20 CAS        -3.2970   -5.0480   -1.6660 c3        1 WQP      0.145100
     21 OAJ        -3.3330   -5.2830   -3.0750 oh        1 WQP     -0.574800
     22 CAT        -4.7210   -4.8480   -1.1440 c3        1 WQP      0.146100
     23 OAY        -4.6840   -4.6130    0.2650 oh        1 WQP     -0.584800
     24 CAU        -5.5500   -6.1020   -1.4310 c3        1 WQP      0.187400
     25 OAK        -6.9090   -5.8720   -1.0500 oh        1 WQP     -0.600800
     26 HAN         1.3670   -0.7300   -2.5740 h1        1 WQP      0.005700
     27 HAO1        1.0550   -3.0800   -3.3830 hc        1 WQP      0.009700
     28 HAO2        1.6630   -3.6610   -1.8270 hc        1 WQP      0.009700
     29 HAP        -0.7400   -1.8290   -2.1610 h1        1 WQP      0.061700
     30 HAW        -0.8530   -1.9700   -0.0040 ho        1 WQP      0.426000
     31 HAQ        -1.1840   -4.0720   -3.0800 hx        1 WQP      0.120700
     32 HAI        -1.0630   -5.5510   -0.8170 hn        1 WQP      0.222800
     33 HAR        -2.3670   -3.6670   -0.3080 h1        1 WQP      0.040700
     34 HAG1        0.7750   -7.2130   -0.5930 hc        1 WQP      0.015700
     35 HAG2        1.8910   -7.1340   -1.9630 hc        1 WQP      0.015700
     36 HAG3        0.4560   -8.1650   -2.0500 hc        1 WQP      0.015700
     37 HAX        -3.3710   -2.0640   -1.2420 ho        1 WQP      0.414000
     38 HAS        -2.8470   -5.9000   -1.1700 h1        1 WQP      0.034700
     39 HAJ        -3.9450   -4.6880   -3.4770 ho        1 WQP      0.405000
     40 HAT        -5.1710   -3.9970   -1.6400 h1        1 WQP      0.027700
     41 HAY        -5.4400   -4.1100    0.5190 ho        1 WQP      0.403000
     42 HAU1       -5.5060   -6.3300   -2.4900 h1        1 WQP      0.000200
     43 HAU2       -5.1520   -6.9360   -0.8650 h1        1 WQP      0.000200
     44 HAK        -7.4270   -6.6320   -1.2600 ho        1 WQP      0.388000
     45 HAI2        0.3660   -4.7760   -0.9070 hn        1 WQP      0.222800
@<TRIPOS>BOND
     1    1    2 1   
     2    2    3 1   
     3    2    4 1   
     4    2    5 1   
     5    5    6 1   
     6    6    7 1   
     7    6   10 1   
     8    6   26 1   
     9    7    8 1   
    10    7    9 1   
    11   10   11 1   
    12   10   27 1   
    13   10   28 1   
    14   11   12 1   
    15   11   13 1   
    16   11   29 1   
    17   12   30 1   
    18   13   14 1   
    19   13   18 1   
    20   13   31 1   
    21   14   15 1   
    22   14   32 1   
    23   14   45 1   
    24   15   16 1   
    25   15   17 2   
    26   16   34 1   
    27   16   35 1   
    28   16   36 1   
    29   18   19 1   
    30   18   20 1   
    31   18   33 1   
    32   19   37 1   
    33   20   21 1   
    34   20   22 1   
    35   20   38 1   
    36   21   39 1   
    37   22   23 1   
    38   22   24 1   
    39   22   40 1   
    40   23   41 1   
    41   24   25 1   
    42   24   42 1   
    43   24   43 1   
    44   25   44 1   
@<TRIPOS>SUBSTRUCTURE
     1 WQP         1 TEMP              0 ****  ****    0 ROOT
