@<TRIPOS>MOLECULE
WQQ
   61    64     1     0     0
SMALL
bcc


@<TRIPOS>ATOM
      1 C36        -0.0540   -0.6970    0.1320 c3        1 WQQ     -0.152400
      2 C31         1.3670   -0.3970   -0.0340 cc        1 WQQ      0.313000
      3 O32         2.1540   -0.4130    1.1350 os        1 WQQ     -0.098100
      4 N33         3.4090   -0.1290    0.8510 nc        1 WQQ     -0.333300
      5 C34         3.5310    0.0860   -0.4750 cd        1 WQQ      0.333600
      6 C35         4.7790    0.4270   -1.1830 c3        1 WQQ     -0.138400
      7 C16         2.2050   -0.0800   -1.0940 cd        1 WQQ     -0.336400
      8 C1          1.8920    0.0300   -2.4970 cd        1 WQQ     -0.135200
      9 C6          1.7080   -1.1270   -3.2610 cd        1 WQQ      0.110000
     10 C2          1.7790    1.3000   -3.1120 cc        1 WQQ      0.200400
     11 C15         1.9920    2.5210   -2.2800 c3        1 WQQ     -0.103900
     12 N3          1.4750    1.4020   -4.4450 n         1 WQQ     -0.216200
     13 C7          1.3590    2.6970   -5.0670 ca        1 WQQ     -0.016400
     14 C12         2.5080    3.3290   -5.5800 ca        1 WQQ     -0.110000
     15 C11         2.3810    4.5780   -6.1940 ca        1 WQQ      0.021400
     16 Cl          3.7620    5.3430   -6.8080 cl        1 WQQ     -0.046400
     17 C10         1.1310    5.1970   -6.3060 ca        1 WQQ     -0.090000
     18 C9          0.0010    4.5600   -5.7990 ca        1 WQQ     -0.108000
     19 C8          0.1000    3.3140   -5.1810 ca        1 WQQ     -0.103000
     20 C4          1.2720    0.2530   -5.2630 c         1 WQQ      0.717700
     21 O14         0.9930    0.4140   -6.4710 o         1 WQQ     -0.660500
     22 C5          1.4040   -1.0460   -4.6220 cc        1 WQQ     -0.403400
     23 C17         1.2330   -2.2890   -5.3450 c         1 WQQ      0.587300
     24 O19         1.2950   -3.4270   -4.8840 o         1 WQQ     -0.472100
     25 N18         0.9470   -2.1960   -6.8270 ny        1 WQQ     -0.662800
     26 C20         0.8200   -3.5240   -7.4990 c3        1 WQQ      0.165100
     27 C21         0.5560   -3.3620   -8.9600 ca        1 WQQ     -0.120300
     28 C22         1.6170   -3.1110   -9.8360 ca        1 WQQ     -0.128000
     29 C23         1.3690   -2.9720  -11.2000 ca        1 WQQ     -0.016500
     30 C24         0.0700   -3.0840  -11.7060 ca        1 WQQ     -0.319500
     31 S27        -0.2350   -2.8460  -13.3690 sy        1 WQQ      1.390300
     32 C30        -0.0900   -4.4320  -13.9090 c3        1 WQQ     -0.376300
     33 O29        -1.5540   -2.4090  -13.5130 o         1 WQQ     -0.639800
     34 O28         0.7980   -2.0650  -13.8940 o         1 WQQ     -0.639800
     35 C25        -0.9820   -3.3390  -10.8210 ca        1 WQQ     -0.016500
     36 C26        -0.7470   -3.4780   -9.4530 ca        1 WQQ     -0.128000
     37 H361       -0.5860   -0.6110   -0.8460 hc        1 WQQ      0.076033
     38 H362       -0.5160    0.0140    0.8660 hc        1 WQQ      0.076033
     39 H363       -0.1840   -1.7360    0.5320 hc        1 WQQ      0.076033
     40 H351        5.5550   -0.3630   -1.0160 hc        1 WQQ      0.063700
     41 H352        5.1880    1.4010   -0.8100 hc        1 WQQ      0.063700
     42 H353        4.5820    0.5130   -2.2800 hc        1 WQQ      0.063700
     43 H6          1.8080   -2.1210   -2.7810 ha        1 WQQ      0.184000
     44 H151        2.1490    3.4490   -2.8830 hc        1 WQQ      0.095700
     45 H152        1.0980    2.6680   -1.6190 hc        1 WQQ      0.095700
     46 H153        2.8900    2.3610   -1.6240 hc        1 WQQ      0.095700
     47 H12         3.4990    2.8520   -5.5090 ha        1 WQQ      0.160000
     48 H8         -0.8080    2.8250   -4.7970 ha        1 WQQ      0.150000
     49 H10         1.0400    6.1820   -6.7960 ha        1 WQQ      0.171000
     50 H9         -0.9860    5.0430   -5.8900 ha        1 WQQ      0.161000
     51 H18         1.6980   -1.6450   -7.2690 hn        1 WQQ      0.471300
     52 H201        1.7790   -4.0930   -7.3240 hx        1 WQQ      0.115700
     53 H202       -0.0160   -4.0890   -6.9920 hx        1 WQQ      0.115700
     54 H22         2.6480   -3.0310   -9.4570 ha        1 WQQ      0.146500
     55 H26        -1.5870   -3.6870   -8.7730 ha        1 WQQ      0.146500
     56 H23         2.2050   -2.7520  -11.8920 ha        1 WQQ      0.175500
     57 H25        -2.0150   -3.4110  -11.2100 ha        1 WQQ      0.175500
     58 H301        0.9220   -4.8750  -13.7370 h1        1 WQQ      0.126367
     59 H302       -0.8270   -5.1340  -13.4450 h1        1 WQQ      0.126367
     60 H303       -0.2650   -4.5000  -15.0160 h1        1 WQQ      0.126367
     61 H182        0.0850   -1.6450   -6.9550 hn        1 WQQ      0.471300
@<TRIPOS>BOND
     1    1    2 1   
     2    1   37 1   
     3    1   38 1   
     4    1   39 1   
     5    2    3 1   
     6    2    7 2   
     7    3    4 1   
     8    4    5 2   
     9    5    6 1   
    10    5    7 1   
    11    6   40 1   
    12    6   41 1   
    13    6   42 1   
    14    7    8 1   
    15    8    9 1   
    16    8   10 2   
    17    9   22 2   
    18    9   43 1   
    19   10   11 1   
    20   10   12 1   
    21   11   44 1   
    22   11   45 1   
    23   11   46 1   
    24   12   13 1   
    25   12   20 1   
    26   13   14 ar  
    27   13   19 ar  
    28   14   15 ar  
    29   14   47 1   
    30   15   16 1   
    31   15   17 ar  
    32   17   18 ar  
    33   17   49 1   
    34   18   19 ar  
    35   18   50 1   
    36   19   48 1   
    37   20   21 2   
    38   20   22 1   
    39   22   23 1   
    40   23   24 2   
    41   23   25 1   
    42   25   26 1   
    43   25   51 1   
    44   25   61 1   
    45   26   27 1   
    46   26   52 1   
    47   26   53 1   
    48   27   28 ar  
    49   27   36 ar  
    50   28   29 ar  
    51   28   54 1   
    52   29   30 ar  
    53   29   56 1   
    54   30   31 1   
    55   30   35 ar  
    56   31   32 1   
    57   31   33 2   
    58   31   34 2   
    59   32   58 1   
    60   32   59 1   
    61   32   60 1   
    62   35   36 ar  
    63   35   57 1   
    64   36   55 1   
@<TRIPOS>SUBSTRUCTURE
     1 WQQ         1 TEMP              0 ****  ****    0 ROOT
