@<TRIPOS>MOLECULE
WR1
   55    51     1     0     0
SMALL
bcc


@<TRIPOS>ATOM
      1 O4         -0.6240    0.2670    3.4560 o         1 WR1     -0.391000
      2 C15        -0.7990   -0.7490    2.6720 c1        1 WR1      0.383000
      3 O5         -1.9320   -1.6120    2.8590 o         1 WR1     -0.273000
      4 C16        -2.8560   -1.1490    3.8490 c3        1 WR1      0.034000
      5 C17        -4.3330   -1.2320    3.2720 c2        1 WR1     -0.114000
      6 C18        -4.5620   -1.0040    1.9370 c1        1 WR1     -0.105000
      7 C19        -5.8510   -1.1610    1.4130 c1        1 WR1     -0.127500
      8 C20        -6.9080   -1.5500    2.2520 c1        1 WR1     -0.127500
      9 C21        -6.6770   -1.7760    3.5830 c1        1 WR1     -0.134000
     10 C22        -5.3850   -1.6200    4.1070 c2        1 WR1     -0.110000
     11 N2          0.1120   -0.9860    1.5960 n3        1 WR1     -0.306000
     12 C7          1.0550    0.0340    1.2270 c3        1 WR1      0.006000
     13 C8          2.3970   -0.2790    1.8250 c3        1 WR1     -0.118000
     14 C9          3.1630   -1.2650    0.9010 c2        1 WR1     -0.088000
     15 C10         4.2430   -0.8110    0.1210 c2        1 WR1     -0.118000
     16 C11         5.0360   -1.7360   -0.5790 c1        1 WR1     -0.127000
     17 C12         4.7580   -3.0710   -0.5010 c1        1 WR1     -0.127500
     18 C13         3.6830   -3.5210    0.2750 c1        1 WR1     -0.127500
     19 C14         2.8910   -2.6080    0.9730 c1        1 WR1     -0.121000
     20 C6          1.1720    0.0950   -0.2480 c2        1 WR1      0.278000
     21 O3          1.0040   -0.8940   -0.9030 o         1 WR1     -0.365000
     22 N1          1.3260    1.4090   -0.9180 n         1 WR1     -0.371000
     23 C4          1.2230    1.5060   -2.3820 c3        1 WR1     -0.023000
     24 C5          2.5810    1.4390   -2.9720 c3        1 WR1     -0.224000
     25 C3          0.5670    2.8060   -2.7630 c2        1 WR1      0.216000
     26 O2          0.4620    3.6630   -1.9720 o         1 WR1     -0.292000
     27 C2         -0.0400    2.9790   -4.1670 c3        1 WR1     -0.215000
     28 C1          0.6160    4.1990   -4.8600 c3        1 WR1     -0.013000
     29 O1         -0.2050    4.6360   -5.9230 oh        1 WR1     -0.332000
     30 H161       -2.7830   -1.7240    4.6650 h1        1 WR1      0.116000
     31 H162       -2.6430   -0.1990    4.0890 h1        1 WR1      0.116000
     32 H18        -3.7930   -0.7200    1.3270 ha        1 WR1      0.143000
     33 H19        -6.0040   -1.0100    0.5260 ha        1 WR1      0.132500
     34 H20        -7.8370   -1.6630    1.8750 ha        1 WR1      0.132500
     35 H21        -7.4160   -2.0480    4.1720 ha        1 WR1      0.132000
     36 H22        -5.2270   -1.7750    5.0140 ha        1 WR1      0.135000
     37 HN2         0.1770   -1.8590    1.2080 hn        1 WR1      0.246000
     38 H7          0.7410    0.9050    1.5670 h1        1 WR1      0.144000
     39 H81         2.9070    0.5360    1.9190 hc        1 WR1      0.103500
     40 H82         2.2730   -0.6820    2.6930 hc        1 WR1      0.103500
     41 H10         4.4410    0.1290    0.0690 ha        1 WR1      0.131000
     42 H11         5.8000   -1.4210   -1.1320 ha        1 WR1      0.132000
     43 H12         5.3250   -3.7300   -1.0000 ha        1 WR1      0.132500
     44 H13         3.4900   -4.4670    0.3270 ha        1 WR1      0.132500
     45 H14         2.1350   -2.9290    1.5170 ha        1 WR1      0.140000
     46 HN1         1.4560    2.1480   -0.4270 hn        1 WR1      0.238000
     47 H4          0.6840    0.7590   -2.7210 h1        1 WR1      0.145000
     48 H51         3.0460    0.6930   -2.6100 hc        1 WR1      0.089333
     49 H52         3.0530    2.2330   -2.7670 hc        1 WR1      0.089333
     50 H53         2.5160    1.3460   -3.8820 hc        1 WR1      0.089333
     51 H21A       -1.0390    3.1270   -4.0890 hc        1 WR1      0.127000
     52 H22A        0.1190    2.2170   -4.6700 hc        1 WR1      0.127000
     53 H11A        1.5330    3.9300   -5.2250 h1        1 WR1      0.076000
     54 H12A        0.7240    4.9200   -4.2130 h1        1 WR1      0.076000
     55 HO1         0.2020    5.2740   -6.3630 ho        1 WR1      0.205000
@<TRIPOS>BOND
     1    1    2 1   
     2    2   11 1   
     3    3    4 1   
     4    4    5 1   
     5    4   30 1   
     6    4   31 1   
     7    5    6 1   
     8    5   10 1   
     9    6   32 1   
    10    7    8 1   
    11    7   33 1   
    12    8   34 1   
    13    9   10 1   
    14    9   35 1   
    15   10   36 1   
    16   11   12 1   
    17   11   37 1   
    18   12   13 1   
    19   12   20 1   
    20   12   38 1   
    21   13   14 1   
    22   13   39 1   
    23   13   40 1   
    24   14   15 1   
    25   14   19 1   
    26   15   16 1   
    27   15   41 1   
    28   16   42 1   
    29   17   18 1   
    30   17   43 1   
    31   18   44 1   
    32   19   45 1   
    33   20   21 1   
    34   20   22 1   
    35   22   23 1   
    36   22   46 1   
    37   23   24 1   
    38   23   25 1   
    39   23   47 1   
    40   24   48 1   
    41   24   49 1   
    42   24   50 1   
    43   25   26 1   
    44   25   27 1   
    45   27   28 1   
    46   27   51 1   
    47   27   52 1   
    48   28   29 1   
    49   28   53 1   
    50   28   54 1   
    51   29   55 1   
@<TRIPOS>SUBSTRUCTURE
     1 WR1         1 TEMP              0 ****  ****    0 ROOT
