@<TRIPOS>MOLECULE
WR1
   55    56     1     0     0
SMALL
bcc


@<TRIPOS>ATOM
      1 O4         -3.4390   -0.3390   -4.0990 o         1 WR1     -0.585000
      2 C15        -3.6040    0.4910   -3.1900 c         1 WR1      0.733100
      3 O5         -4.6190    0.2950   -2.2770 os        1 WR1     -0.435900
      4 C16        -5.4790   -0.8260   -2.5690 c3        1 WR1      0.196700
      5 C17        -6.5510   -0.8510   -1.5320 ca        1 WR1     -0.096300
      6 C18        -6.2950   -0.4680   -0.2120 ca        1 WR1     -0.111500
      7 C19        -7.3070   -0.5370    0.7440 ca        1 WR1     -0.131500
      8 C20        -8.5760   -0.9930    0.3890 ca        1 WR1     -0.124000
      9 C21        -8.8340   -1.3760   -0.9280 ca        1 WR1     -0.131500
     10 C22        -7.8270   -1.3020   -1.8890 ca        1 WR1     -0.111500
     11 N2         -2.9180    1.6760   -2.9780 n         1 WR1     -0.505900
     12 C7         -1.6440    1.8740   -3.6260 c3        1 WR1      0.042700
     13 C8         -1.4260    3.3360   -4.0660 c3        1 WR1     -0.036100
     14 C9         -2.3790    3.7500   -5.1290 ca        1 WR1     -0.083300
     15 C10        -2.2480    3.2450   -6.4290 ca        1 WR1     -0.118500
     16 C11        -3.1290    3.6460   -7.4310 ca        1 WR1     -0.126500
     17 C12        -4.1470    4.5560   -7.1450 ca        1 WR1     -0.126000
     18 C13        -4.2820    5.0620   -5.8530 ca        1 WR1     -0.126500
     19 C14        -3.4020    4.6620   -4.8480 ca        1 WR1     -0.118500
     20 C6         -0.4630    1.5300   -2.6770 c         1 WR1      0.626100
     21 O3         -0.5290    1.7750   -1.4550 o         1 WR1     -0.613100
     22 N1          0.6690    1.0000   -3.2540 n         1 WR1     -0.553900
     23 C4          1.8120    0.5890   -2.4740 c3        1 WR1      0.001700
     24 C5          3.0930    1.3360   -2.8580 c3        1 WR1     -0.106100
     25 C3          2.1030   -0.9110   -2.6170 c         1 WR1      0.555100
     26 O2          1.9650   -1.5030   -3.6920 o         1 WR1     -0.540100
     27 C2          2.5990   -1.5790   -1.3720 c3        1 WR1     -0.224400
     28 C1          2.7200   -3.0890   -1.5180 c3        1 WR1      0.141400
     29 O1          3.7250   -3.4520   -2.4400 oh        1 WR1     -0.602800
     30 H161       -4.8610   -1.7640   -2.5330 h1        1 WR1      0.065700
     31 H162       -5.8980   -0.6990   -3.6020 h1        1 WR1      0.065700
     32 H18        -5.2930   -0.1040    0.0620 ha        1 WR1      0.139000
     33 H19        -7.1020   -0.2320    1.7810 ha        1 WR1      0.133000
     34 H20        -9.3730   -1.0500    1.1440 ha        1 WR1      0.132000
     35 H21        -9.8350   -1.7340   -1.2110 ha        1 WR1      0.133000
     36 H22        -8.0360   -1.5970   -2.9280 ha        1 WR1      0.139000
     37 HN2        -3.0410    2.1230   -2.0940 hn        1 WR1      0.333500
     38 H7         -1.6180    1.2110   -4.5440 h1        1 WR1      0.105700
     39 H81        -0.3750    3.4160   -4.4560 hc        1 WR1      0.065200
     40 H82        -1.5100    4.0130   -3.1750 hc        1 WR1      0.065200
     41 H10        -1.4480    2.5260   -6.6580 ha        1 WR1      0.130000
     42 H11        -3.0210    3.2420   -8.4490 ha        1 WR1      0.133000
     43 H12        -4.8420    4.8710   -7.9360 ha        1 WR1      0.132000
     44 H13        -5.0850    5.7780   -5.6230 ha        1 WR1      0.133000
     45 H14        -3.5160    5.0620   -3.8290 ha        1 WR1      0.130000
     46 HN1         0.6460    0.6960   -4.2000 hn        1 WR1      0.327500
     47 H4          1.5850    0.8080   -1.3850 h1        1 WR1      0.103700
     48 H51         3.9270    0.9860   -2.2040 hc        1 WR1      0.051700
     49 H52         2.9600    2.4350   -2.7120 hc        1 WR1      0.051700
     50 H53         3.3650    1.1440   -3.9230 hc        1 WR1      0.051700
     51 H21A        1.8990   -1.3480   -0.5260 hc        1 WR1      0.083700
     52 H22A        3.6030   -1.1430   -1.1210 hc        1 WR1      0.083700
     53 H11A        3.0500   -3.5420   -0.5440 h1        1 WR1      0.052700
     54 H12A        1.7310   -3.5250   -1.8220 h1        1 WR1      0.052700
     55 HO1         3.4130   -3.1930   -3.3190 ho        1 WR1      0.418000
@<TRIPOS>BOND
     1    1    2 2   
     2    2    3 1   
     3    2   11 1   
     4    3    4 1   
     5    4    5 1   
     6    4   30 1   
     7    4   31 1   
     8    5    6 ar  
     9    5   10 ar  
    10    6    7 ar  
    11    6   32 1   
    12    7    8 ar  
    13    7   33 1   
    14    8    9 ar  
    15    8   34 1   
    16    9   10 ar  
    17    9   35 1   
    18   10   36 1   
    19   11   12 1   
    20   11   37 1   
    21   12   13 1   
    22   12   20 1   
    23   12   38 1   
    24   13   14 1   
    25   13   39 1   
    26   13   40 1   
    27   14   15 ar  
    28   14   19 ar  
    29   15   16 ar  
    30   15   41 1   
    31   16   17 ar  
    32   16   42 1   
    33   17   18 ar  
    34   17   43 1   
    35   18   19 ar  
    36   18   44 1   
    37   19   45 1   
    38   20   21 2   
    39   20   22 1   
    40   22   23 1   
    41   22   46 1   
    42   23   24 1   
    43   23   25 1   
    44   23   47 1   
    45   24   48 1   
    46   24   49 1   
    47   24   50 1   
    48   25   26 2   
    49   25   27 1   
    50   27   28 1   
    51   27   51 1   
    52   27   52 1   
    53   28   29 1   
    54   28   53 1   
    55   28   54 1   
    56   29   55 1   
@<TRIPOS>SUBSTRUCTURE
     1 WR1         1 TEMP              0 ****  ****    0 ROOT
