@<TRIPOS>MOLECULE
WR1
   57    58     1     0     0
SMALL
bcc


@<TRIPOS>ATOM
      1 O4          0.1920   -0.8190   -0.4440 o         1 WR1     -0.514000
      2 C15         1.4150   -0.8880   -0.5510 c         1 WR1      0.662100
      3 O5          2.3090   -1.2410    0.3600 os        1 WR1     -0.385900
      4 C16         1.8410   -1.4550    1.7600 c3        1 WR1      0.227700
      5 C17         1.8080   -0.1730    2.4880 ca        1 WR1     -0.203300
      6 C18         2.9920    0.3690    3.0070 ca        1 WR1     -0.088000
      7 C19         2.9500    1.5400    3.7620 ca        1 WR1     -0.129000
      8 C20         1.7290    2.1730    4.0040 ca        1 WR1     -0.069000
      9 C21         0.5470    1.6370    3.4860 ca        1 WR1     -0.129000
     10 C22         0.5840    0.4690    2.7290 ca        1 WR1     -0.088000
     11 N2          2.0850   -0.5850   -1.8690 n4        1 WR1     -0.654800
     12 C7          1.2370    0.2720   -2.7610 c3        1 WR1      0.072500
     13 C8          2.1070    1.1800   -3.6660 c3        1 WR1     -0.040100
     14 C9          3.0820    1.9550   -2.8600 ca        1 WR1     -0.192300
     15 C10         2.6970    3.1500   -2.2400 ca        1 WR1     -0.126500
     16 C11         3.6340    3.9090   -1.5410 ca        1 WR1     -0.107000
     17 C12         4.9610    3.4820   -1.4600 ca        1 WR1     -0.078000
     18 C13         5.3510    2.2930   -2.0810 ca        1 WR1     -0.107000
     19 C14         4.4180    1.5310   -2.7810 ca        1 WR1     -0.126500
     20 C6          0.3380   -0.5760   -3.6740 c         1 WR1      0.520100
     21 O3          0.6350   -0.9180   -4.8070 o         1 WR1     -0.356100
     22 N1         -1.0110   -0.9600   -3.1490 n4        1 WR1     -0.674800
     23 C4         -1.4030   -2.3790   -3.5320 c3        1 WR1      0.025500
     24 C5         -2.7290   -2.7370   -2.8780 c3        1 WR1     -0.134100
     25 C3         -0.3050   -3.3910   -3.1670 c         1 WR1      0.639100
     26 O2          0.7500   -2.9800   -2.6630 o         1 WR1     -0.620100
     27 C2         -0.5720   -4.8200   -3.5050 c3        1 WR1     -0.182400
     28 C1         -0.7940   -5.6550   -2.2450 c3        1 WR1      0.139400
     29 O1         -1.8990   -5.0940   -1.5560 oh        1 WR1     -0.641800
     30 H161        0.8480   -1.9700    1.7170 h1        1 WR1      0.108200
     31 H162        2.6610   -2.1440    2.1130 h1        1 WR1      0.108200
     32 H18         3.9530   -0.1400    2.8350 ha        1 WR1      0.140500
     33 H19         3.8800    1.9570    4.1810 ha        1 WR1      0.161000
     34 H20         1.6960    3.0910    4.6140 ha        1 WR1      0.164000
     35 H21        -0.4160    2.1310    3.6900 ha        1 WR1      0.161000
     36 H22        -0.3500    0.0380    2.3370 ha        1 WR1      0.140500
     37 HN2         2.3150   -1.4840   -2.3250 hn        1 WR1      0.505800
     38 H7          0.6070    0.9400   -2.0930 hx        1 WR1      0.144700
     39 H81         1.4050    1.8740   -4.2070 hc        1 WR1      0.108200
     40 H82         2.6300    0.5580   -4.4430 hc        1 WR1      0.108200
     41 H10         1.6600    3.5100   -2.3260 ha        1 WR1      0.137500
     42 H11         3.3300    4.8570   -1.0670 ha        1 WR1      0.168000
     43 H12         5.7050    4.0920   -0.9200 ha        1 WR1      0.172000
     44 H13         6.4040    1.9680   -2.0360 ha        1 WR1      0.168000
     45 H14         4.7480    0.6280   -3.3170 ha        1 WR1      0.137500
     46 HN1        -1.0230   -0.8870   -2.1180 hn        1 WR1      0.485800
     47 H4         -1.5080   -2.3910   -4.6630 hx        1 WR1      0.144700
     48 H51        -3.5390   -2.0300   -3.1840 hc        1 WR1      0.100700
     49 H52        -2.6470   -2.7650   -1.7620 hc        1 WR1      0.100700
     50 H53        -3.0230   -3.7700   -3.2060 hc        1 WR1      0.100700
     51 H21A        0.3270   -5.2350   -4.0440 hc        1 WR1      0.109700
     52 H22A       -1.4620   -4.9100   -4.1810 hc        1 WR1      0.109700
     53 H11A        0.1130   -5.6140   -1.5830 h1        1 WR1      0.068700
     54 H12A       -0.9960   -6.7190   -2.5440 h1        1 WR1      0.068700
     55 HO1        -2.2770   -5.7870   -0.9980 ho        1 WR1      0.445000
     56 H221        2.9770   -0.0770   -1.6800 hn        1 WR1      0.505800
     57 H121       -1.7220   -0.3220   -3.5330 hn        1 WR1      0.485800
@<TRIPOS>BOND
     1    1    2 2   
     2    2    3 1   
     3    2   11 1   
     4    3    4 1   
     5    4    5 1   
     6    4   30 1   
     7    4   31 1   
     8    5    6 ar  
     9    5   10 ar  
    10    6    7 ar  
    11    6   32 1   
    12    7    8 ar  
    13    7   33 1   
    14    8    9 ar  
    15    8   34 1   
    16    9   10 ar  
    17    9   35 1   
    18   10   36 1   
    19   11   12 1   
    20   11   37 1   
    21   11   56 1   
    22   12   13 1   
    23   12   20 1   
    24   12   38 1   
    25   13   14 1   
    26   13   39 1   
    27   13   40 1   
    28   14   15 ar  
    29   14   19 ar  
    30   15   16 ar  
    31   15   41 1   
    32   16   17 ar  
    33   16   42 1   
    34   17   18 ar  
    35   17   43 1   
    36   18   19 ar  
    37   18   44 1   
    38   19   45 1   
    39   20   21 2   
    40   20   22 1   
    41   22   23 1   
    42   22   46 1   
    43   22   57 1   
    44   23   24 1   
    45   23   25 1   
    46   23   47 1   
    47   24   48 1   
    48   24   49 1   
    49   24   50 1   
    50   25   26 2   
    51   25   27 1   
    52   27   28 1   
    53   27   51 1   
    54   27   52 1   
    55   28   29 1   
    56   28   53 1   
    57   28   54 1   
    58   29   55 1   
@<TRIPOS>SUBSTRUCTURE
     1 WR1         1 TEMP              0 ****  ****    0 ROOT
