@<TRIPOS>MOLECULE
WR1
   57    58     1     0     0
SMALL
bcc


@<TRIPOS>ATOM
      1 O4         -0.4090   -0.4110   -0.9140 o         1 WR1     -0.521000
      2 C15         0.7980   -0.2920   -0.7080 c         1 WR1      0.651100
      3 O5          1.4250   -0.2050    0.4520 os        1 WR1     -0.384900
      4 C16         0.5790   -0.2960    1.6960 c3        1 WR1      0.237700
      5 C17         1.4940    0.0960    2.7800 ca        1 WR1     -0.175300
      6 C18         2.3080   -0.8660    3.3970 ca        1 WR1     -0.079000
      7 C19         3.1250   -0.5040    4.4650 ca        1 WR1     -0.129000
      8 C20         3.1400    0.8170    4.9190 ca        1 WR1     -0.061000
      9 C21         2.3370    1.7790    4.3030 ca        1 WR1     -0.129000
     10 C22         1.5180    1.4250    3.2330 ca        1 WR1     -0.079000
     11 N2          1.7670   -0.2130   -1.8610 n4        1 WR1     -0.654800
     12 C7          1.1240    0.2960   -3.1160 c3        1 WR1      0.072500
     13 C8          2.1270    1.1000   -3.9810 c3        1 WR1     -0.040100
     14 C9          2.7720    2.1720   -3.1830 ca        1 WR1     -0.192300
     15 C10         2.1280    3.4020   -3.0010 ca        1 WR1     -0.127500
     16 C11         2.7660    4.4290   -2.3060 ca        1 WR1     -0.106500
     17 C12         4.0500    4.2360   -1.7950 ca        1 WR1     -0.078000
     18 C13         4.6990    3.0130   -1.9800 ca        1 WR1     -0.106500
     19 C14         4.0650    1.9840   -2.6730 ca        1 WR1     -0.127500
     20 C6          0.5720   -0.8490   -3.9790 c         1 WR1      0.520100
     21 O3          1.1840   -1.3780   -4.8920 o         1 WR1     -0.356100
     22 N1         -0.8280   -1.3040   -3.7050 n4        1 WR1     -0.674800
     23 C4         -0.9820   -2.8130   -3.8170 c3        1 WR1      0.025500
     24 C5         -2.3970   -3.2130   -3.4270 c3        1 WR1     -0.133100
     25 C3          0.0640   -3.5570   -2.9720 c         1 WR1      0.638100
     26 O2          0.9090   -2.9020   -2.3440 o         1 WR1     -0.619100
     27 C2          0.0210   -5.0480   -3.0130 c3        1 WR1     -0.182400
     28 C1         -0.4540   -5.6280   -1.6810 c3        1 WR1      0.139400
     29 O1         -1.7460   -5.1020   -1.4280 oh        1 WR1     -0.640800
     30 H161       -0.2840    0.4020    1.5510 h1        1 WR1      0.088200
     31 H162        0.2460   -1.3640    1.7440 h1        1 WR1      0.088200
     32 H18         2.2920   -1.9090    3.0460 ha        1 WR1      0.137000
     33 H19         3.7560   -1.2620    4.9560 ha        1 WR1      0.162000
     34 H20         3.7830    1.0990    5.7690 ha        1 WR1      0.165000
     35 H21         2.3450    2.8180    4.6680 ha        1 WR1      0.162000
     36 H22         0.8790    2.1830    2.7560 ha        1 WR1      0.137000
     37 HN2         2.1690   -1.1550   -2.0050 hn        1 WR1      0.505300
     38 H7          0.2850    0.9980   -2.8090 hx        1 WR1      0.143700
     39 H81         1.5440    1.5420   -4.8360 hc        1 WR1      0.107700
     40 H82         2.8950    0.4060   -4.4200 hc        1 WR1      0.107700
     41 H10         1.1280    3.5730   -3.4280 ha        1 WR1      0.137500
     42 H11         2.2610    5.4010   -2.1780 ha        1 WR1      0.168000
     43 H12         4.5600    5.0550   -1.2600 ha        1 WR1      0.172000
     44 H13         5.7230    2.8690   -1.5960 ha        1 WR1      0.168000
     45 H14         4.6080    1.0450   -2.8650 ha        1 WR1      0.137500
     46 HN1        -1.4680   -0.8710   -4.3860 hn        1 WR1      0.486300
     47 H4         -0.7850   -3.0790   -4.9040 hx        1 WR1      0.144700
     48 H51        -2.6090   -2.9930   -2.3500 hc        1 WR1      0.101033
     49 H52        -3.1560   -2.7100   -4.0750 hc        1 WR1      0.101033
     50 H53        -2.5060   -4.3230   -3.5570 hc        1 WR1      0.101033
     51 H21A       -0.6480   -5.4050   -3.8400 hc        1 WR1      0.109200
     52 H22A        1.0620   -5.4320   -3.2090 hc        1 WR1      0.109200
     53 H11A       -0.4750   -6.7470   -1.7580 h1        1 WR1      0.068200
     54 H12A        0.2390   -5.3190   -0.8520 h1        1 WR1      0.068200
     55 HO1        -2.1970   -5.7120   -0.8290 ho        1 WR1      0.445000
     56 H221        2.5420    0.4360   -1.6020 hn        1 WR1      0.505300
     57 H121       -1.1140   -1.0190   -2.7530 hn        1 WR1      0.486300
@<TRIPOS>BOND
     1    1    2 2   
     2    2    3 1   
     3    2   11 1   
     4    3    4 1   
     5    4    5 1   
     6    4   30 1   
     7    4   31 1   
     8    5    6 ar  
     9    5   10 ar  
    10    6    7 ar  
    11    6   32 1   
    12    7    8 ar  
    13    7   33 1   
    14    8    9 ar  
    15    8   34 1   
    16    9   10 ar  
    17    9   35 1   
    18   10   36 1   
    19   11   12 1   
    20   11   37 1   
    21   11   56 1   
    22   12   13 1   
    23   12   20 1   
    24   12   38 1   
    25   13   14 1   
    26   13   39 1   
    27   13   40 1   
    28   14   15 ar  
    29   14   19 ar  
    30   15   16 ar  
    31   15   41 1   
    32   16   17 ar  
    33   16   42 1   
    34   17   18 ar  
    35   17   43 1   
    36   18   19 ar  
    37   18   44 1   
    38   19   45 1   
    39   20   21 2   
    40   20   22 1   
    41   22   23 1   
    42   22   46 1   
    43   22   57 1   
    44   23   24 1   
    45   23   25 1   
    46   23   47 1   
    47   24   48 1   
    48   24   49 1   
    49   24   50 1   
    50   25   26 2   
    51   25   27 1   
    52   27   28 1   
    53   27   51 1   
    54   27   52 1   
    55   28   29 1   
    56   28   53 1   
    57   28   54 1   
    58   29   55 1   
@<TRIPOS>SUBSTRUCTURE
     1 WR1         1 TEMP              0 ****  ****    0 ROOT
