@<TRIPOS>MOLECULE
WR1
   57    58     1     0     0
SMALL
bcc


@<TRIPOS>ATOM
      1 O4          0.1790   -0.8010   -0.4550 o         1 WR1     -0.514000
      2 C15         1.4030   -0.8780   -0.5410 c         1 WR1      0.662100
      3 O5          2.2800   -1.2210    0.3900 os        1 WR1     -0.385900
      4 C16         1.7890   -1.4080    1.7860 c3        1 WR1      0.227700
      5 C17         1.7500   -0.1130    2.4910 ca        1 WR1     -0.203300
      6 C18         2.9290    0.4310    3.0210 ca        1 WR1     -0.088000
      7 C19         2.8810    1.6150    3.7540 ca        1 WR1     -0.129000
      8 C20         1.6600    2.2600    3.9650 ca        1 WR1     -0.069000
      9 C21         0.4840    1.7210    3.4360 ca        1 WR1     -0.129000
     10 C22         0.5270    0.5400    2.7000 ca        1 WR1     -0.088000
     11 N2          2.0960   -0.6020   -1.8530 ny        1 WR1     -0.654800
     12 C7          1.2680    0.2430   -2.7740 c3        1 WR1      0.072500
     13 C8          2.1570    1.1310   -3.6800 c3        1 WR1     -0.040100
     14 C9          3.1240    1.9140   -2.8720 ca        1 WR1     -0.192300
     15 C10         2.7360    3.1220   -2.2800 ca        1 WR1     -0.126500
     16 C11         3.6670    3.8880   -1.5790 ca        1 WR1     -0.107000
     17 C12         4.9890    3.4550   -1.4690 ca        1 WR1     -0.078000
     18 C13         5.3820    2.2530   -2.0630 ca        1 WR1     -0.107000
     19 C14         4.4550    1.4840   -2.7640 ca        1 WR1     -0.126500
     20 C6          0.3780   -0.6160   -3.6860 c         1 WR1      0.520100
     21 O3          0.6910   -0.9790   -4.8080 o         1 WR1     -0.356100
     22 N1         -0.9810   -0.9820   -3.1760 ny        1 WR1     -0.674800
     23 C4         -1.3750   -2.4050   -3.5400 c3        1 WR1      0.025500
     24 C5         -2.7140   -2.7440   -2.9010 c3        1 WR1     -0.134100
     25 C3         -0.2900   -3.4170   -3.1400 c         1 WR1      0.639100
     26 O2          0.7600   -3.0030   -2.6260 o         1 WR1     -0.620100
     27 C2         -0.5590   -4.8510   -3.4560 c3        1 WR1     -0.182400
     28 C1         -0.8070   -5.6620   -2.1850 c3        1 WR1      0.139400
     29 O1         -1.9200   -5.0820   -1.5240 oh        1 WR1     -0.641800
     30 H161        2.5990   -2.0940    2.1640 h1        1 WR1      0.107700
     31 H162        0.7940   -1.9190    1.7360 h1        1 WR1      0.107700
     32 H18         3.8900   -0.0860    2.8730 ha        1 WR1      0.140500
     33 H19         3.8060    2.0340    4.1820 ha        1 WR1      0.161000
     34 H20         1.6220    3.1880    4.5590 ha        1 WR1      0.164000
     35 H21        -0.4800    2.2240    3.6160 ha        1 WR1      0.161000
     36 H22        -0.4030    0.1070    2.3000 ha        1 WR1      0.140500
     37 HN2         2.3280   -1.5100   -2.2890 hn        1 WR1      0.505800
     38 H7          0.6310    0.9270   -2.1280 hx        1 WR1      0.144700
     39 H81         1.4680    1.8190   -4.2440 hc        1 WR1      0.108200
     40 H82         2.6890    0.4910   -4.4380 hc        1 WR1      0.108200
     41 H10         1.7020    3.4860   -2.3890 ha        1 WR1      0.137500
     42 H11         3.3610    4.8460   -1.1270 ha        1 WR1      0.168000
     43 H12         5.7290    4.0700   -0.9290 ha        1 WR1      0.172000
     44 H13         6.4320    1.9230   -1.9960 ha        1 WR1      0.168000
     45 H14         4.7890    0.5690   -3.2790 ha        1 WR1      0.137500
     46 HN1        -1.0090   -0.8910   -2.1470 hn        1 WR1      0.485800
     47 H4         -1.4620   -2.4370   -4.6720 hx        1 WR1      0.144700
     48 H51        -3.0090   -3.7820   -3.2150 hc        1 WR1      0.100700
     49 H52        -3.5140   -2.0390   -3.2330 hc        1 WR1      0.100700
     50 H53        -2.6500   -2.7530   -1.7840 hc        1 WR1      0.100700
     51 H21A       -1.4390   -4.9480   -4.1450 hc        1 WR1      0.109700
     52 H22A        0.3450   -5.2800   -3.9730 hc        1 WR1      0.109700
     53 H11A       -1.0100   -6.7290   -2.4680 h1        1 WR1      0.068700
     54 H12A        0.0890   -5.6140   -1.5100 h1        1 WR1      0.068700
     55 HO1        -2.3110   -5.7630   -0.9610 ho        1 WR1      0.445000
     56 H221        2.9880   -0.0960   -1.6590 hn        1 WR1      0.505800
     57 H121       -1.6830   -0.3470   -3.5830 hn        1 WR1      0.485800
@<TRIPOS>BOND
     1    1    2 2   
     2    2    3 1   
     3    2   11 1   
     4    3    4 1   
     5    4    5 1   
     6    4   30 1   
     7    4   31 1   
     8    5    6 ar  
     9    5   10 ar  
    10    6    7 ar  
    11    6   32 1   
    12    7    8 ar  
    13    7   33 1   
    14    8    9 ar  
    15    8   34 1   
    16    9   10 ar  
    17    9   35 1   
    18   10   36 1   
    19   11   12 1   
    20   11   37 1   
    21   11   56 1   
    22   12   13 1   
    23   12   20 1   
    24   12   38 1   
    25   13   14 1   
    26   13   39 1   
    27   13   40 1   
    28   14   15 ar  
    29   14   19 ar  
    30   15   16 ar  
    31   15   41 1   
    32   16   17 ar  
    33   16   42 1   
    34   17   18 ar  
    35   17   43 1   
    36   18   19 ar  
    37   18   44 1   
    38   19   45 1   
    39   20   21 2   
    40   20   22 1   
    41   22   23 1   
    42   22   46 1   
    43   22   57 1   
    44   23   24 1   
    45   23   25 1   
    46   23   47 1   
    47   24   48 1   
    48   24   49 1   
    49   24   50 1   
    50   25   26 2   
    51   25   27 1   
    52   27   28 1   
    53   27   51 1   
    54   27   52 1   
    55   28   29 1   
    56   28   53 1   
    57   28   54 1   
    58   29   55 1   
@<TRIPOS>SUBSTRUCTURE
     1 WR1         1 TEMP              0 ****  ****    0 ROOT
