@<TRIPOS>MOLECULE
WR2
   64    64     1     0     0
SMALL
bcc


@<TRIPOS>ATOM
      1 O           7.6280   10.1410   24.8330 o         1 WR2     -0.622100
      2 C           7.4110   10.0210   23.6100 c         1 WR2      0.637100
      3 NAQ         6.1350    9.9050   23.1120 n         1 WR2     -0.566900
      4 CAA         4.9700    9.9270   23.9380 c3        1 WR2      0.077300
      5 CA          8.5790   10.0180   22.5850 c3        1 WR2      0.040700
      6 CB          9.2900    8.6340   22.6200 c3        1 WR2     -0.051000
      7 CAF        10.1030    8.4530   23.8910 c3        1 WR2     -0.094767
      8 CG2        10.2050    8.5250   21.4080 c3        1 WR2     -0.094767
      9 CG1         8.2310    7.5430   22.5380 c3        1 WR2     -0.094767
     10 N           9.4670   11.1210   22.8530 n         1 WR2     -0.550900
     11 CAY         9.4750   12.2630   22.0730 c         1 WR2      0.657100
     12 OAJ         8.7970   12.3430   21.0290 o         1 WR2     -0.607100
     13 CBC        10.3880   13.4120   22.5130 c3        1 WR2     -0.116700
     14 CAO         9.5280   14.6430   22.7690 c3        1 WR2     -0.079400
     15 CBA         8.7040   14.5270   24.0450 c3        1 WR2     -0.069700
     16 CAB         9.5460   14.7940   25.2750 c3        1 WR2     -0.091100
     17 CAC         7.5370   15.4920   23.9930 c3        1 WR2     -0.091100
     18 CBB        11.4050   13.6660   21.3980 c3        1 WR2     -0.153700
     19 CAX        12.3130   14.8260   21.7770 c         1 WR2      0.591100
     20 OAI        12.9810   14.8300   22.8250 o         1 WR2     -0.566100
     21 NAR        12.2920   15.9780   20.9340 n         1 WR2     -0.351400
     22 OAK        13.3480   16.7860   21.0640 oh        1 WR2     -0.434100
     23 CAN        12.2880   12.4140   21.2010 c3        1 WR2      0.090000
     24 NAS        13.3300   12.5860   20.2310 n         1 WR2     -0.556900
     25 CAV        13.3490   11.8960   19.0400 c         1 WR2      0.597600
     26 OAG        12.4710   11.0570   18.7480 o         1 WR2     -0.607100
     27 CAZ        14.4710   12.1630   18.0970 cc        1 WR2      0.285900
     28 NAP        15.3380   13.1880   18.2090 nd        1 WR2     -0.619000
     29 CAL        16.2310   13.1410   17.1660 cd        1 WR2      0.330200
     30 CAM        16.0340   12.0820   16.2750 cc        1 WR2     -0.284400
     31 SAU        14.7420   11.1610   16.7390 ss        1 WR2      0.082700
     32 HAQ         6.0010    9.8460   22.1310 hn        1 WR2      0.315500
     33 HA          8.1720   10.1560   21.5350 h1        1 WR2      0.096700
     34 HAA1        5.2640   10.0020   25.0200 h1        1 WR2      0.045367
     35 HAA2        4.3240   10.8070   23.6740 h1        1 WR2      0.045367
     36 HAA3        4.3740    8.9860   23.7850 h1        1 WR2      0.045367
     37 H           9.8660   11.1460   23.7640 hn        1 WR2      0.326500
     38 HAF1       11.0340    9.0680   23.8600 hc        1 WR2      0.043033
     39 HAF2        9.5020    8.7500   24.7860 hc        1 WR2      0.043033
     40 HAF3       10.4010    7.3810   24.0000 hc        1 WR2      0.043033
     41 HG21        9.6150    8.5980   20.4630 hc        1 WR2      0.043033
     42 HG22       10.9720    9.3360   21.4100 hc        1 WR2      0.043033
     43 HG23       10.7330    7.5410   21.4230 hc        1 WR2      0.043033
     44 HG11        7.5380    7.7310   21.6840 hc        1 WR2      0.043033
     45 HG12        8.7220    6.5520   22.3830 hc        1 WR2      0.043033
     46 HG13        7.6390    7.4980   23.4850 hc        1 WR2      0.043033
     47 HBC        10.9530   13.1580   23.4540 hc        1 WR2      0.082700
     48 HAO1       10.1900   15.5460   22.8430 hc        1 WR2      0.063200
     49 HAO2        8.8430   14.7930   21.8910 hc        1 WR2      0.063200
     50 HBB        10.8380   13.8770   20.4480 hc        1 WR2      0.099700
     51 HBA         8.2930   13.4790   24.1140 hc        1 WR2      0.050700
     52 HAB1       10.4110   14.0900   25.3250 hc        1 WR2      0.036533
     53 HAB2        9.9430   15.8380   25.2600 hc        1 WR2      0.036533
     54 HAB3        8.9300   14.6630   26.1970 hc        1 WR2      0.036533
     55 HAC1        6.9410   15.4250   24.9350 hc        1 WR2      0.036533
     56 HAC2        7.9020   16.5410   23.8780 hc        1 WR2      0.036533
     57 HAC3        6.8690   15.2530   23.1310 hc        1 WR2      0.036533
     58 HAN1       12.7640   12.1640   22.1940 h1        1 WR2      0.080700
     59 HAN2       11.6200   11.5580   20.8870 h1        1 WR2      0.080700
     60 HAR        12.1980   15.7480   19.9510 hn        1 WR2      0.306500
     61 HAK        13.2350   17.2370   21.9240 ho        1 WR2      0.434000
     62 HAS        14.0580   13.2270   20.4480 hn        1 WR2      0.337500
     63 HAL        17.0120   13.9070   17.0990 h4        1 WR2      0.050100
     64 HAM        16.6500   11.8940   15.3970 h4        1 WR2      0.187000
@<TRIPOS>BOND
     1    1    2 2   
     2    2    3 1   
     3    2    5 1   
     4    3    4 1   
     5    3   32 1   
     6    4   34 1   
     7    4   35 1   
     8    4   36 1   
     9    5    6 1   
    10    5   10 1   
    11    5   33 1   
    12    6    7 1   
    13    6    8 1   
    14    6    9 1   
    15    7   38 1   
    16    7   39 1   
    17    7   40 1   
    18    8   41 1   
    19    8   42 1   
    20    8   43 1   
    21    9   44 1   
    22    9   45 1   
    23    9   46 1   
    24   10   11 1   
    25   10   37 1   
    26   11   12 2   
    27   11   13 1   
    28   13   14 1   
    29   13   18 1   
    30   13   47 1   
    31   14   15 1   
    32   14   48 1   
    33   14   49 1   
    34   15   16 1   
    35   15   17 1   
    36   15   51 1   
    37   16   52 1   
    38   16   53 1   
    39   16   54 1   
    40   17   55 1   
    41   17   56 1   
    42   17   57 1   
    43   18   19 1   
    44   18   23 1   
    45   18   50 1   
    46   19   20 2   
    47   19   21 1   
    48   21   22 1   
    49   21   60 1   
    50   22   61 1   
    51   23   24 1   
    52   23   58 1   
    53   23   59 1   
    54   24   25 1   
    55   24   62 1   
    56   25   26 2   
    57   25   27 1   
    58   27   28 2   
    59   27   31 1   
    60   28   29 1   
    61   29   30 2   
    62   29   63 1   
    63   30   31 1   
    64   30   64 1   
@<TRIPOS>SUBSTRUCTURE
     1 WR2         1 TEMP              0 ****  ****    0 ROOT
