@<TRIPOS>MOLECULE
WR2
   68    68     1     0     0
SMALL
bcc


@<TRIPOS>ATOM
      1 O           0.7210    1.2380   -0.3330 o         1 WR2     -0.390100
      2 C           1.6730    0.4830   -0.1770 c         1 WR2      0.516100
      3 NAQ         2.5650    0.2180   -1.3450 ny        1 WR2     -0.649800
      4 CAA         1.8160    0.1600   -2.6390 c3        1 WR2      0.075100
      5 CA          2.0010   -0.1850    1.1710 c3        1 WR2      0.055500
      6 CB          1.4430   -1.6580    1.2260 c3        1 WR2     -0.052000
      7 CAF        -0.0750   -1.6540    1.1660 c3        1 WR2     -0.137433
      8 CG2         1.9220   -2.3110    2.5180 c3        1 WR2     -0.137433
      9 CG1         2.0020   -2.4530    0.0560 c3        1 WR2     -0.137433
     10 N           1.4110    0.6300    2.3020 ny        1 WR2     -0.689800
     11 CAY         2.2320    1.7940    2.8160 c         1 WR2      0.546100
     12 OAJ         3.3370    1.9490    2.3210 o         1 WR2     -0.407100
     13 CBC         1.5800    2.6700    3.8810 c3        1 WR2     -0.123700
     14 CAO         0.7540    3.7630    3.1940 c3        1 WR2     -0.108400
     15 CBA        -0.4390    3.3000    2.3670 c3        1 WR2     -0.076700
     16 CAB        -1.4000    2.4360    3.1540 c3        1 WR2     -0.113100
     17 CAC        -1.1740    4.5300    1.8510 c3        1 WR2     -0.113100
     18 CBB         2.6770    3.2960    4.7870 c3        1 WR2     -0.119700
     19 CAX         2.1120    4.4820    5.5430 c         1 WR2      0.578100
     20 OAI         1.4090    4.4410    6.5390 o         1 WR2     -0.381100
     21 NAR         2.4870    5.9050    5.1060 ny        1 WR2     -0.441300
     22 OAK         2.6370    5.9260    3.7630 oh        1 WR2     -0.386300
     23 CAN         3.2260    2.2220    5.7610 c3        1 WR2      0.108800
     24 NAS         3.6690    2.6210    7.1200 ny        1 WR2     -0.682800
     25 CAV         4.8230    3.6420    7.1650 c         1 WR2      0.558600
     26 OAG         4.6030    4.6230    6.4400 o         1 WR2     -0.632100
     27 CAZ         5.8990    3.3370    8.0250 cc        1 WR2      0.062900
     28 NAP         5.9800    2.1090    8.6950 nd        1 WR2     -0.627000
     29 CAL         7.0670    2.0890    9.4600 cd        1 WR2      0.416200
     30 CAM         7.8510    3.3050    9.3970 cc        1 WR2     -0.246400
     31 SAU         7.2080    4.3740    8.4110 ss        1 WR2      0.461700
     32 HAQ         3.0740   -0.6710   -1.2110 hn        1 WR2      0.486800
     33 HA          3.1240   -0.2200    1.3230 hx        1 WR2      0.148700
     34 HAA1        1.2300    1.1110   -2.7840 hx        1 WR2      0.141033
     35 HAA2        1.1150   -0.7190   -2.6320 hx        1 WR2      0.141033
     36 HAA3        2.5640    0.0430   -3.4760 hx        1 WR2      0.141033
     37 H           1.2520   -0.0230    3.0910 hn        1 WR2      0.498800
     38 HAF1       -0.4500   -1.0100    0.3340 hc        1 WR2      0.080144
     39 HAF2       -0.4420   -2.7000    0.9790 hc        1 WR2      0.080144
     40 HAF3       -0.5320   -1.3200    2.1280 hc        1 WR2      0.080144
     41 HG21        3.0220   -2.1780    2.6580 hc        1 WR2      0.080144
     42 HG22        1.7190   -3.4160    2.4670 hc        1 WR2      0.080144
     43 HG23        1.3740   -1.9380    3.4160 hc        1 WR2      0.080144
     44 HG11        1.4990   -2.1830   -0.9040 hc        1 WR2      0.080144
     45 HG12        3.1120   -2.3540   -0.0190 hc        1 WR2      0.080144
     46 HG13        1.7870   -3.5460    0.2210 hc        1 WR2      0.080144
     47 HBC         0.8850    2.0540    4.5240 hc        1 WR2      0.123700
     48 HAO1        1.4310    4.3830    2.5440 hc        1 WR2      0.084700
     49 HAO2        0.3400    4.4320    3.9990 hc        1 WR2      0.084700
     50 HBB         3.5330    3.6530    4.1330 hc        1 WR2      0.153700
     51 HBA        -0.0670    2.7450    1.4580 hc        1 WR2      0.022700
     52 HAB1       -0.9170    1.4990    3.5250 hc        1 WR2      0.066200
     53 HAB2       -1.8060    2.9930    4.0340 hc        1 WR2      0.066200
     54 HAB3       -2.2730    2.1520    2.5110 hc        1 WR2      0.066200
     55 HAC1       -2.0110    4.2150    1.1780 hc        1 WR2      0.066200
     56 HAC2       -0.4850    5.1890    1.2720 hc        1 WR2      0.066200
     57 HAC3       -1.6140    5.1140    2.6960 hc        1 WR2      0.066200
     58 HAN1        4.1180    1.7450    5.2520 hx        1 WR2      0.119700
     59 HAN2        2.4300    1.4320    5.9180 hx        1 WR2      0.119700
     60 HAR         3.3840    6.1620    5.5840 hn        1 WR2      0.510300
     61 HAK         2.9010    6.8410    3.4810 ho        1 WR2      0.516000
     62 HAS         2.8820    3.0210    7.6510 hn        1 WR2      0.494300
     63 HAL         7.3250    1.2130   10.0830 h4        1 WR2      0.116100
     64 HAM         8.7750    3.4110    9.9940 h4        1 WR2      0.264000
     65 HAQ2        3.2570    0.9840   -1.4060 hn        1 WR2      0.486800
     66 H2          0.4750    0.9830    2.0080 hn        1 WR2      0.498800
     67 HAR2        1.7330    6.5620    5.4120 hn        1 WR2      0.510300
     68 HAS2        3.9670    1.7580    7.6160 hn        1 WR2      0.494300
@<TRIPOS>BOND
     1    1    2 2   
     2    2    3 1   
     3    2    5 1   
     4    3    4 1   
     5    3   32 1   
     6    3   65 1   
     7    4   34 1   
     8    4   35 1   
     9    4   36 1   
    10    5    6 1   
    11    5   10 1   
    12    5   33 1   
    13    6    7 1   
    14    6    8 1   
    15    6    9 1   
    16    7   38 1   
    17    7   39 1   
    18    7   40 1   
    19    8   41 1   
    20    8   42 1   
    21    8   43 1   
    22    9   44 1   
    23    9   45 1   
    24    9   46 1   
    25   10   11 1   
    26   10   37 1   
    27   10   66 1   
    28   11   12 2   
    29   11   13 1   
    30   13   14 1   
    31   13   18 1   
    32   13   47 1   
    33   14   15 1   
    34   14   48 1   
    35   14   49 1   
    36   15   16 1   
    37   15   17 1   
    38   15   51 1   
    39   16   52 1   
    40   16   53 1   
    41   16   54 1   
    42   17   55 1   
    43   17   56 1   
    44   17   57 1   
    45   18   19 1   
    46   18   23 1   
    47   18   50 1   
    48   19   20 2   
    49   19   21 1   
    50   21   22 1   
    51   21   60 1   
    52   21   67 1   
    53   22   61 1   
    54   23   24 1   
    55   23   58 1   
    56   23   59 1   
    57   24   25 1   
    58   24   62 1   
    59   24   68 1   
    60   25   26 2   
    61   25   27 1   
    62   27   28 2   
    63   27   31 1   
    64   28   29 1   
    65   29   30 2   
    66   29   63 1   
    67   30   31 1   
    68   30   64 1   
@<TRIPOS>SUBSTRUCTURE
     1 WR2         1 TEMP              0 ****  ****    0 ROOT
