@<TRIPOS>MOLECULE
WR2
   68    68     1     0     0
SMALL
bcc


@<TRIPOS>ATOM
      1 O          -0.0320    1.2360   -0.0890 o         1 WR2     -0.396100
      2 C           1.0270    0.6700   -0.3390 c         1 WR2      0.516100
      3 NAQ         1.4250    0.5530   -1.7720 n4        1 WR2     -0.649800
      4 CAA         0.3110    0.0310   -2.6250 c3        1 WR2      0.075100
      5 CA          1.9620    0.1150    0.7540 c3        1 WR2      0.057500
      6 CB          1.9400   -1.4600    0.7890 c3        1 WR2     -0.054000
      7 CAF         0.5160   -1.9630    0.9410 c3        1 WR2     -0.136433
      8 CG2         2.7960   -1.9490    1.9540 c3        1 WR2     -0.136433
      9 CG1         2.5490   -1.9990   -0.4990 c3        1 WR2     -0.136433
     10 N           1.5560    0.6910    2.0950 n4        1 WR2     -0.692800
     11 CAY         2.3460    1.8830    2.6120 c         1 WR2      0.552100
     12 OAJ         3.3120    2.2400    1.9580 o         1 WR2     -0.403100
     13 CBC         1.8120    2.5130    3.8920 c3        1 WR2     -0.127700
     14 CAO         0.8130    3.6180    3.5440 c3        1 WR2     -0.116400
     15 CBA        -0.4960    3.1600    2.9110 c3        1 WR2     -0.071700
     16 CAB        -1.2250    2.1320    3.7470 c3        1 WR2     -0.111600
     17 CAC        -1.3860    4.3780    2.7110 c3        1 WR2     -0.111600
     18 CBB         2.9580    3.0420    4.7940 c3        1 WR2     -0.110700
     19 CAX         3.2090    4.5250    4.6120 c         1 WR2      0.574100
     20 OAI         2.6070    5.4430    5.1420 o         1 WR2     -0.377100
     21 NAR         4.4000    4.9760    3.7560 n4        1 WR2     -0.447300
     22 OAK         4.4630    4.1880    2.6610 oh        1 WR2     -0.379300
     23 CAN         2.5560    2.7490    6.2660 c3        1 WR2      0.109800
     24 NAS         3.1860    3.5360    7.3550 n4        1 WR2     -0.680800
     25 CAV         4.7240    3.5660    7.3570 c         1 WR2      0.557600
     26 OAG         5.1860    3.8540    6.2400 o         1 WR2     -0.645100
     27 CAZ         5.3570    3.3120    8.5920 cc        1 WR2      0.064900
     28 NAP         4.6280    2.9190    9.7220 nd        1 WR2     -0.622000
     29 CAL         5.4500    2.7730   10.7560 cd        1 WR2      0.417200
     30 CAM         6.8370    3.0510   10.4470 cc        1 WR2     -0.242400
     31 SAU         7.0320    3.4650    8.9220 ss        1 WR2      0.449700
     32 HAQ         1.6740    1.4960   -2.1190 hn        1 WR2      0.488300
     33 HA          3.0270    0.4470    0.5450 hx        1 WR2      0.153700
     34 HAA1        0.0470   -1.0150   -2.3080 hx        1 WR2      0.141033
     35 HAA2        0.6580    0.0270   -3.6990 hx        1 WR2      0.141033
     36 HAA3       -0.5900    0.7000   -2.5220 hx        1 WR2      0.141033
     37 H           0.5510    0.9610    2.0680 hn        1 WR2      0.496800
     38 HAF1       -0.1420   -1.5710    0.1280 hc        1 WR2      0.079256
     39 HAF2        0.5090   -3.0840    0.8750 hc        1 WR2      0.079256
     40 HAF3        0.0780   -1.6860    1.9300 hc        1 WR2      0.079256
     41 HG21        3.7680   -1.4030    2.0030 hc        1 WR2      0.079256
     42 HG22        2.2630   -1.8850    2.9350 hc        1 WR2      0.079256
     43 HG23        3.0300   -3.0400    1.8100 hc        1 WR2      0.079256
     44 HG11        1.8000   -2.0390   -1.3270 hc        1 WR2      0.079256
     45 HG12        2.8720   -3.0660   -0.3390 hc        1 WR2      0.079256
     46 HG13        3.4610   -1.4310   -0.8010 hc        1 WR2      0.079256
     47 HBC         1.2620    1.7190    4.4850 hc        1 WR2      0.123700
     48 HAO1        0.5550    4.1550    4.5020 hc        1 WR2      0.088200
     49 HAO2        1.3050    4.3620    2.8610 hc        1 WR2      0.088200
     50 HBB         3.9140    2.4840    4.5640 hc        1 WR2      0.136700
     51 HBA        -0.2800    2.7360    1.8880 hc        1 WR2      0.016700
     52 HAB1       -1.4220    2.5200    4.7770 hc        1 WR2      0.066033
     53 HAB2       -0.6500    1.1770    3.8300 hc        1 WR2      0.066033
     54 HAB3       -2.2200    1.9010    3.2840 hc        1 WR2      0.066033
     55 HAC1       -1.6750    4.8250    3.6930 hc        1 WR2      0.066033
     56 HAC2       -2.3230    4.0790    2.1780 hc        1 WR2      0.066033
     57 HAC3       -0.8650    5.1540    2.1000 hc        1 WR2      0.066033
     58 HAN1        2.7940    1.6590    6.4610 hx        1 WR2      0.133200
     59 HAN2        1.4370    2.9030    6.3740 hx        1 WR2      0.133200
     60 HAR         4.2700    5.9810    3.4960 hn        1 WR2      0.508300
     61 HAK         5.2310    4.4730    2.1030 ho        1 WR2      0.507000
     62 HAS         2.8620    4.5140    7.3190 hn        1 WR2      0.496300
     63 HAL         5.0820    2.4680   11.7540 h4        1 WR2      0.118100
     64 HAM         7.6150    2.9700   11.2260 h4        1 WR2      0.264000
     65 HAQ2        2.2490   -0.0600   -1.8740 hn        1 WR2      0.488300
     66 H2          1.6460   -0.0660    2.7960 hn        1 WR2      0.496800
     67 HAR2        5.2670    4.8800    4.3370 hn        1 WR2      0.508300
     68 HAS2        2.8540    3.1370    8.2570 hn        1 WR2      0.496300
@<TRIPOS>BOND
     1    1    2 2   
     2    2    3 1   
     3    2    5 1   
     4    3    4 1   
     5    3   32 1   
     6    3   65 1   
     7    4   34 1   
     8    4   35 1   
     9    4   36 1   
    10    5    6 1   
    11    5   10 1   
    12    5   33 1   
    13    6    7 1   
    14    6    8 1   
    15    6    9 1   
    16    7   38 1   
    17    7   39 1   
    18    7   40 1   
    19    8   41 1   
    20    8   42 1   
    21    8   43 1   
    22    9   44 1   
    23    9   45 1   
    24    9   46 1   
    25   10   11 1   
    26   10   37 1   
    27   10   66 1   
    28   11   12 2   
    29   11   13 1   
    30   13   14 1   
    31   13   18 1   
    32   13   47 1   
    33   14   15 1   
    34   14   48 1   
    35   14   49 1   
    36   15   16 1   
    37   15   17 1   
    38   15   51 1   
    39   16   52 1   
    40   16   53 1   
    41   16   54 1   
    42   17   55 1   
    43   17   56 1   
    44   17   57 1   
    45   18   19 1   
    46   18   23 1   
    47   18   50 1   
    48   19   20 2   
    49   19   21 1   
    50   21   22 1   
    51   21   60 1   
    52   21   67 1   
    53   22   61 1   
    54   23   24 1   
    55   23   58 1   
    56   23   59 1   
    57   24   25 1   
    58   24   62 1   
    59   24   68 1   
    60   25   26 2   
    61   25   27 1   
    62   27   28 2   
    63   27   31 1   
    64   28   29 1   
    65   29   30 2   
    66   29   63 1   
    67   30   31 1   
    68   30   64 1   
@<TRIPOS>SUBSTRUCTURE
     1 WR2         1 TEMP              0 ****  ****    0 ROOT
