@<TRIPOS>MOLECULE
WR2
   68    68     1     0     0
SMALL
bcc


@<TRIPOS>ATOM
      1 O           1.1570    1.1630   -0.4190 o         1 WR2     -0.390100
      2 C           1.9860    0.3290   -0.0720 c         1 WR2      0.515100
      3 NAQ         3.0210   -0.0900   -1.0620 n4        1 WR2     -0.649800
      4 CAA         2.4800   -0.1810   -2.4540 c3        1 WR2      0.075100
      5 CA          2.0160   -0.2840    1.3410 c3        1 WR2      0.055500
      6 CB          1.3270   -1.7020    1.3620 c3        1 WR2     -0.052000
      7 CAF        -0.1460   -1.5830    1.0140 c3        1 WR2     -0.137767
      8 CG2         1.4980   -2.3040    2.7520 c3        1 WR2     -0.137767
      9 CG1         2.0210   -2.6140    0.3610 c3        1 WR2     -0.137767
     10 N           1.3150    0.6430    2.3120 n4        1 WR2     -0.689800
     11 CAY         2.1560    1.7040    2.9930 c         1 WR2      0.552100
     12 OAJ         3.3630    1.6530    2.8180 o         1 WR2     -0.412100
     13 CBC         1.3850    2.7370    3.7980 c3        1 WR2     -0.136700
     14 CAO         0.9090    3.8460    2.8450 c3        1 WR2     -0.106400
     15 CBA        -0.2370    3.4940    1.9050 c3        1 WR2     -0.078700
     16 CAB        -1.4020    2.8310    2.6070 c3        1 WR2     -0.111600
     17 CAC        -0.7120    4.7730    1.2290 c3        1 WR2     -0.111600
     18 CBB         2.2520    3.3890    4.9110 c3        1 WR2     -0.130700
     19 CAX         1.3200    4.2710    5.7290 c         1 WR2      0.520100
     20 OAI         0.1770    4.0190    6.0590 o         1 WR2     -0.328100
     21 NAR         1.8740    5.6140    6.2320 n4        1 WR2     -0.449300
     22 OAK         2.1510    5.4600    7.5510 oh        1 WR2     -0.392300
     23 CAN         2.9130    2.3420    5.8270 c3        1 WR2      0.102800
     24 NAS         3.6730    2.8410    7.0010 n4        1 WR2     -0.683800
     25 CAV         4.8750    3.7620    6.6740 c         1 WR2      0.552600
     26 OAG         4.5670    4.6860    5.9120 o         1 WR2     -0.593100
     27 CAZ         6.0930    3.4420    7.3150 cc        1 WR2      0.058900
     28 NAP         6.2430    2.2780    8.0770 nd        1 WR2     -0.629000
     29 CAL         7.4700    2.2380    8.5910 cd        1 WR2      0.413200
     30 CAM         8.2920    3.3730    8.2340 cc        1 WR2     -0.251400
     31 SAU         7.5130    4.3990    7.2990 ss        1 WR2      0.461700
     32 HAQ         3.7800    0.6120   -1.0570 hn        1 WR2      0.486800
     33 HA          3.0880   -0.4010    1.6900 hx        1 WR2      0.149700
     34 HAA1        1.7080   -0.9970   -2.5090 hx        1 WR2      0.141367
     35 HAA2        3.3350   -0.4200   -3.1510 hx        1 WR2      0.141367
     36 HAA3        2.0150    0.8010   -2.7480 hx        1 WR2      0.141367
     37 H           0.9010    0.0470    3.0530 hn        1 WR2      0.499800
     38 HAF1       -0.5670   -2.6080    0.8230 hc        1 WR2      0.080256
     39 HAF2       -0.7410   -1.1400    1.8490 hc        1 WR2      0.080256
     40 HAF3       -0.3010   -0.9760    0.0890 hc        1 WR2      0.080256
     41 HG21        0.8240   -1.8370    3.5100 hc        1 WR2      0.080256
     42 HG22        1.2160   -3.3930    2.7170 hc        1 WR2      0.080256
     43 HG23        2.5590   -2.2440    3.0950 hc        1 WR2      0.080256
     44 HG11        1.6920   -3.6750    0.5460 hc        1 WR2      0.080256
     45 HG12        1.7190   -2.3810   -0.6880 hc        1 WR2      0.080256
     46 HG13        3.1310   -2.5980    0.4850 hc        1 WR2      0.080256
     47 HBC         0.4850    2.2570    4.2880 hc        1 WR2      0.134700
     48 HAO1        0.5560    4.7060    3.4790 hc        1 WR2      0.080700
     49 HAO2        1.7810    4.2150    2.2400 hc        1 WR2      0.080700
     50 HBB         3.0610    4.0050    4.4090 hc        1 WR2      0.155700
     51 HBA         0.1500    2.8230    1.0840 hc        1 WR2      0.027700
     52 HAB1       -1.1380    1.8140    2.9870 hc        1 WR2      0.066033
     53 HAB2       -2.2630    2.7230    1.8970 hc        1 WR2      0.066033
     54 HAB3       -1.7570    3.4510    3.4670 hc        1 WR2      0.066033
     55 HAC1       -1.4700    4.5270    0.4430 hc        1 WR2      0.066033
     56 HAC2        0.1400    5.3040    0.7410 hc        1 WR2      0.066033
     57 HAC3       -1.1940    5.4580    1.9680 hc        1 WR2      0.066033
     58 HAN1        3.6460    1.7540    5.1940 hx        1 WR2      0.125700
     59 HAN2        2.1170    1.6390    6.2180 hx        1 WR2      0.125700
     60 HAR         2.7820    5.8510    5.7630 hn        1 WR2      0.511300
     61 HAK         1.5910    6.0730    8.0960 ho        1 WR2      0.529000
     62 HAS         4.0220    2.0110    7.5210 hn        1 WR2      0.488300
     63 HAL         7.8040    1.4030    9.2340 h4        1 WR2      0.115100
     64 HAM         9.3290    3.4590    8.6060 h4        1 WR2      0.263000
     65 HAQ2        3.4220   -1.0050   -0.7960 hn        1 WR2      0.486800
     66 H2          0.5210    1.1090    1.8220 hn        1 WR2      0.499800
     67 HAR2        1.1820    6.3710    6.0560 hn        1 WR2      0.511300
     68 HAS2        3.0560    3.3600    7.6390 hn        1 WR2      0.488300
@<TRIPOS>BOND
     1    1    2 2   
     2    2    3 1   
     3    2    5 1   
     4    3    4 1   
     5    3   32 1   
     6    3   65 1   
     7    4   34 1   
     8    4   35 1   
     9    4   36 1   
    10    5    6 1   
    11    5   10 1   
    12    5   33 1   
    13    6    7 1   
    14    6    8 1   
    15    6    9 1   
    16    7   38 1   
    17    7   39 1   
    18    7   40 1   
    19    8   41 1   
    20    8   42 1   
    21    8   43 1   
    22    9   44 1   
    23    9   45 1   
    24    9   46 1   
    25   10   11 1   
    26   10   37 1   
    27   10   66 1   
    28   11   12 2   
    29   11   13 1   
    30   13   14 1   
    31   13   18 1   
    32   13   47 1   
    33   14   15 1   
    34   14   48 1   
    35   14   49 1   
    36   15   16 1   
    37   15   17 1   
    38   15   51 1   
    39   16   52 1   
    40   16   53 1   
    41   16   54 1   
    42   17   55 1   
    43   17   56 1   
    44   17   57 1   
    45   18   19 1   
    46   18   23 1   
    47   18   50 1   
    48   19   20 2   
    49   19   21 1   
    50   21   22 1   
    51   21   60 1   
    52   21   67 1   
    53   22   61 1   
    54   23   24 1   
    55   23   58 1   
    56   23   59 1   
    57   24   25 1   
    58   24   62 1   
    59   24   68 1   
    60   25   26 2   
    61   25   27 1   
    62   27   28 2   
    63   27   31 1   
    64   28   29 1   
    65   29   30 2   
    66   29   63 1   
    67   30   31 1   
    68   30   64 1   
@<TRIPOS>SUBSTRUCTURE
     1 WR2         1 TEMP              0 ****  ****    0 ROOT
