@<TRIPOS>MOLECULE
WR7
   41    41     1     0     0
SMALL
bcc


@<TRIPOS>ATOM
      1 C1         -0.1640    0.8840    0.3910 c2        1 WR7     -0.127000
      2 N1          0.8650    0.1020    0.5280 n2        1 WR7     -0.107000
      3 O1          4.9710    3.5100    1.6400 oh        1 WR7     -0.316000
      4 CL1         5.7200   -1.5960    0.8530 cl        1 WR7     -0.026000
      5 C2          1.8980    0.5560    1.4440 c2        1 WR7      0.072000
      6 N2          1.8890    1.7130    2.0910 n2        1 WR7     -0.230000
      7 O2          4.4430    2.6650    3.6480 o         1 WR7     -0.423000
      8 CL2         4.3590   -2.5290    3.2110 cl        1 WR7     -0.026000
      9 C3          0.7410    2.5600    1.9310 c3        1 WR7     -0.214000
     10 N3          2.9420   -0.3870    1.6590 n3        1 WR7     -0.283000
     11 O3          3.8970    5.5700    3.6030 o         1 WR7     -0.492200
     12 C4         -0.3760    2.1650    1.0800 c1        1 WR7     -0.037000
     13 N4          4.8320    1.2140    1.8150 n         1 WR7     -0.359000
     14 O4          1.9890    4.6880    3.4730 o         1 WR7     -0.492200
     15 C5          4.1400    0.0590    2.3660 c3        1 WR7      0.139000
     16 N5          3.6530    5.4410    6.5050 n3        1 WR7     -0.194000
     17 C6          5.1560   -1.1500    2.4660 c3        1 WR7      0.010000
     18 N6          3.0990    7.7030    6.5330 n2        1 WR7     -0.281000
     19 C7          4.7010    2.4410    2.4510 c2        1 WR7      0.426000
     20 C8          4.0400    2.9980    6.4770 c3        1 WR7     -0.273000
     21 C9          4.2850    4.3600    6.9480 c1        1 WR7     -0.037000
     22 C10         2.2170    7.1970    5.6390 c1        1 WR7      0.111000
     23 C11         3.9270    6.7500    7.0240 c2        1 WR7      0.274000
     24 C12         2.5410    5.6280    5.5340 c3        1 WR7     -0.213000
     25 C13         5.0130    6.9820    8.0110 c3        1 WR7     -0.208000
     26 H10         1.6370    5.0270    5.8400 h2        1 WR7      0.183000
     27 H1         -0.9540    0.5510   -0.3140 h4        1 WR7      0.183000
     28 H3          0.3320    2.7890    2.9710 h1        1 WR7      0.208500
     29 H13         5.4210    6.0170    8.4100 hc        1 WR7      0.140667
     30 HN3         3.1070   -0.9910    0.8770 hn        1 WR7      0.224000
     31 H13A        4.6270    7.6100    8.8550 hc        1 WR7      0.140667
     32 H13B        5.8370    7.5450    7.4980 hc        1 WR7      0.140667
     33 H4          1.1080    3.5830    1.5770 h1        1 WR7      0.208500
     34 HN4         5.0070    1.2380    0.8350 hn        1 WR7      0.239000
     35 H5          3.8250    0.3180    3.4320 h2        1 WR7      0.181000
     36 H8          4.8750    4.3240    2.1690 ho        1 WR7      0.279000
     37 H8A         4.9500    2.6830    5.8920 hc        1 WR7      0.127000
     38 H9          3.9580    2.3310    7.3730 hc        1 WR7      0.127000
     39 H9A         3.1500    2.8460    5.8150 hc        1 WR7      0.127000
     40 CL3         6.5260   -0.6730    3.4570 cl        1 WR7     -0.026000
     41 N7          2.8460    5.2550    4.0890 no        1 WR7      0.825400
@<TRIPOS>BOND
     1    1    2 1   
     2    1   12 1   
     3    1   27 1   
     4    2    5 1   
     5    3   19 1   
     6    3   36 1   
     7    4   17 1   
     8    5    6 1   
     9    5   10 1   
    10    6    9 1   
    11    7   19 1   
    12    8   17 1   
    13    9   12 1   
    14    9   28 1   
    15    9   33 1   
    16   10   15 1   
    17   10   30 1   
    18   11   41 2   
    19   13   15 1   
    20   13   19 1   
    21   13   34 1   
    22   14   41 2   
    23   15   17 1   
    24   15   35 1   
    25   16   21 1   
    26   16   23 1   
    27   16   24 1   
    28   17   40 1   
    29   18   22 1   
    30   18   23 1   
    31   20   21 1   
    32   20   37 1   
    33   20   38 1   
    34   20   39 1   
    35   22   24 1   
    36   23   25 1   
    37   24   26 1   
    38   24   41 1   
    39   25   29 1   
    40   25   31 1   
    41   25   32 1   
@<TRIPOS>SUBSTRUCTURE
     1 WR7         1 TEMP              0 ****  ****    0 ROOT
