@<TRIPOS>MOLECULE
WRA
   44    45     1     0     0
SMALL
bcc


@<TRIPOS>ATOM
      1 C1          0.0110   -0.3050    0.0990 c3        1 WRA      0.388400
      2 N2          1.1280   -0.8510    0.8860 n2        1 WRA     -0.519900
      3 C3          0.9900   -1.0370    2.1680 ce        1 WRA      0.690200
      4 N4         -0.1930   -0.8580    2.9590 ne        1 WRA     -0.738000
      5 C5         -1.2470   -0.4250    2.2800 c2        1 WRA      0.744100
      6 N6         -1.2130    0.1150    0.9520 nh        1 WRA     -0.472100
      7 O7         -2.3670   -0.0410    0.3030 os        1 WRA     -0.241100
      8 C8         -2.9280    1.1840   -0.3040 c3        1 WRA      0.132400
      9 C9         -4.4300    1.0010   -0.2580 c3        1 WRA     -0.133400
     10 C10        -5.0800    1.6160    0.9660 c3        1 WRA      0.130400
     11 O11        -4.8720    0.7690    2.1130 os        1 WRA     -0.429900
     12 C12        -5.9950    0.0580    2.5240 ca        1 WRA      0.078100
     13 C13        -5.9720   -1.3460    2.5080 ca        1 WRA     -0.033600
     14 C14        -7.0570   -2.0710    2.9990 ca        1 WRA     -0.076000
     15 C15        -8.1730   -1.3960    3.5120 ca        1 WRA      0.023400
     16 C16        -8.1970    0.0120    3.5310 ca        1 WRA      0.048400
     17 C17        -7.1050    0.7350    3.0360 ca        1 WRA     -0.128000
     18 CM1         0.4990    0.9890   -0.6120 c3        1 WRA     -0.101100
     19 CM2        -0.3800   -1.3300   -0.9910 c3        1 WRA     -0.101100
     20 NH1         2.1620   -1.5390    2.9500 n4        1 WRA     -0.779600
     21 NH2        -2.5370   -0.3630    3.0160 n4        1 WRA     -0.836600
     22 CL1        -4.6280   -2.2090    1.8740 cl        1 WRA     -0.082400
     23 CL2        -9.4700   -2.2970    4.0950 cl        1 WRA      0.015600
     24 CL3        -9.5210    0.8530    4.1410 cl        1 WRA      0.015600
     25 H81        -2.5880    2.1000    0.2390 h1        1 WRA      0.079700
     26 H82        -2.5480    1.1910   -1.3610 h1        1 WRA      0.079700
     27 H91        -4.8600    1.4990   -1.1710 hc        1 WRA      0.102200
     28 H92        -4.6850   -0.0920   -0.3170 hc        1 WRA      0.102200
     29 H101       -6.1750    1.7790    0.7860 h1        1 WRA      0.083700
     30 H102       -4.5990    2.5910    1.2520 h1        1 WRA      0.083700
     31 H14        -7.0470   -3.1760    2.9770 ha        1 WRA      0.188000
     32 H17        -7.1160    1.8380    3.0450 ha        1 WRA      0.179000
     33 H11        -0.3310    1.3870   -1.2460 hc        1 WRA      0.085867
     34 H12         0.8120    1.7740    0.1160 hc        1 WRA      0.085867
     35 H13         1.3640    0.7310   -1.2720 hc        1 WRA      0.085867
     36 H21         0.5190   -1.5880   -1.6050 hc        1 WRA      0.085867
     37 H22        -0.8020   -2.2620   -0.5480 hc        1 WRA      0.085867
     38 H23        -1.1480   -0.8690   -1.6620 hc        1 WRA      0.085867
     39 HH11        1.9140   -2.4280    3.4060 hn        1 WRA      0.494800
     40 HH12        2.4080   -0.8430    3.6690 hn        1 WRA      0.494800
     41 HH21       -3.2730   -0.9690    2.5070 hn        1 WRA      0.502133
     42 HH22       -2.4310   -0.6830    3.9850 hn        1 WRA      0.502133
     43 HH13        2.9710   -1.6880    2.3250 hn        1 WRA      0.494800
     44 HH23       -2.8960    0.6070    3.0080 hn        1 WRA      0.502133
@<TRIPOS>BOND
     1    1    2 1   
     2    1    6 1   
     3    1   18 1   
     4    1   19 1   
     5    2    3 2   
     6    3    4 1   
     7    3   20 1   
     8    4    5 2   
     9    5    6 1   
    10    5   21 1   
    11    6    7 1   
    12    7    8 1   
    13    8    9 1   
    14    8   25 1   
    15    8   26 1   
    16    9   10 1   
    17    9   27 1   
    18    9   28 1   
    19   10   11 1   
    20   10   29 1   
    21   10   30 1   
    22   11   12 1   
    23   12   13 ar  
    24   12   17 ar  
    25   13   14 ar  
    26   13   22 1   
    27   14   15 ar  
    28   14   31 1   
    29   15   16 ar  
    30   15   23 1   
    31   16   17 ar  
    32   16   24 1   
    33   17   32 1   
    34   18   33 1   
    35   18   34 1   
    36   18   35 1   
    37   19   36 1   
    38   19   37 1   
    39   19   38 1   
    40   20   39 1   
    41   20   40 1   
    42   20   43 1   
    43   21   41 1   
    44   21   42 1   
    45   21   44 1   
@<TRIPOS>SUBSTRUCTURE
     1 WRA         1 TEMP              0 ****  ****    0 ROOT
