@<TRIPOS>MOLECULE
WRA
   44    45     1     0     0
SMALL
bcc


@<TRIPOS>ATOM
      1 C1          0.3560    0.1310   -0.1010 c3        1 WRA      0.397400
      2 N2          1.6650    0.0410    0.5650 n2        1 WRA     -0.508900
      3 C3          1.7780   -0.5720    1.7080 ce        1 WRA      0.691200
      4 N4          0.7530   -1.2810    2.4250 ne        1 WRA     -0.725000
      5 C5         -0.4420   -1.2280    1.8560 c2        1 WRA      0.725100
      6 N6         -0.8230   -0.3400    0.7970 nh        1 WRA     -0.471100
      7 O7         -1.8540   -0.7760    0.0730 os        1 WRA     -0.237100
      8 C8         -3.0570    0.0660    0.0900 c3        1 WRA      0.123400
      9 C9         -3.7880   -0.0850    1.3990 c3        1 WRA     -0.141400
     10 C10        -5.1250    0.6510    1.3760 c3        1 WRA      0.136400
     11 O11        -5.6240    0.5580    2.7160 os        1 WRA     -0.344900
     12 C12        -6.9880    0.2920    2.8030 ca        1 WRA      0.074100
     13 C13        -7.5110   -0.9960    2.6030 ca        1 WRA      0.002400
     14 C14        -8.8680   -1.2320    2.8240 ca        1 WRA     -0.095000
     15 C15        -9.7040   -0.1910    3.2450 ca        1 WRA      0.028400
     16 C16        -9.1770    1.0980    3.4460 ca        1 WRA      0.030400
     17 C17        -7.8180    1.3380    3.2190 ca        1 WRA     -0.108000
     18 CM1         0.0690    1.6200   -0.4360 c3        1 WRA     -0.104600
     19 CM2         0.4100   -0.6580   -1.4290 c3        1 WRA     -0.104600
     20 NH1         3.1140   -0.6110    2.3770 nz        1 WRA     -0.778600
     21 NH2        -1.5210   -2.0460    2.4970 nz        1 WRA     -0.807600
     22 Cl1        -6.5270   -2.2930    2.0960 cl        1 WRA     -0.113400
     23 Cl2       -11.3390   -0.5130    3.5040 cl        1 WRA     -0.009400
     24 Cl3       -10.1570    2.3740    3.9550 cl        1 WRA     -0.013400
     25 H81        -2.7960    1.1320   -0.1300 h1        1 WRA      0.109700
     26 H82        -3.6190   -0.3890   -0.7740 h1        1 WRA      0.109700
     27 H91        -3.9960   -1.1690    1.6060 hc        1 WRA      0.044700
     28 H92        -3.1800    0.3370    2.2430 hc        1 WRA      0.044700
     29 H101       -4.9800    1.7400    1.1490 h1        1 WRA      0.072200
     30 H102       -5.8260    0.1930    0.6330 h1        1 WRA      0.072200
     31 H14        -9.2870   -2.2420    2.6700 ha        1 WRA      0.181000
     32 H17        -7.3900    2.3410    3.3790 ha        1 WRA      0.174000
     33 H11        -0.8740    1.6780   -1.0330 hc        1 WRA      0.089867
     34 H12         0.9100    2.0170   -1.0590 hc        1 WRA      0.089867
     35 H13        -0.0350    2.2460    0.4820 hc        1 WRA      0.089867
     36 H21        -0.5560   -0.5210   -1.9750 hc        1 WRA      0.089867
     37 H22         0.5760   -1.7480   -1.2570 hc        1 WRA      0.089867
     38 H23         1.2370   -0.2580   -2.0690 hc        1 WRA      0.089867
     39 HH11        3.0450   -0.1460    3.2950 hn        1 WRA      0.497800
     40 HH12        3.8180   -0.1240    1.7980 hn        1 WRA      0.497800
     41 HH21       -2.0140   -2.5740    1.7580 hn        1 WRA      0.504133
     42 HH22       -2.1980   -1.4090    2.9570 hn        1 WRA      0.504133
     43 HH13        3.4020   -1.5920    2.5120 hn        1 WRA      0.497800
     44 HH23       -1.1320   -2.6990    3.1950 hn        1 WRA      0.504133
@<TRIPOS>BOND
     1    1    2 1   
     2    1    6 1   
     3    1   18 1   
     4    1   19 1   
     5    2    3 2   
     6    3    4 1   
     7    3   20 1   
     8    4    5 2   
     9    5    6 1   
    10    5   21 1   
    11    6    7 1   
    12    7    8 1   
    13    8    9 1   
    14    8   25 1   
    15    8   26 1   
    16    9   10 1   
    17    9   27 1   
    18    9   28 1   
    19   10   11 1   
    20   10   29 1   
    21   10   30 1   
    22   11   12 1   
    23   12   13 ar  
    24   12   17 ar  
    25   13   14 ar  
    26   13   22 1   
    27   14   15 ar  
    28   14   31 1   
    29   15   16 ar  
    30   15   23 1   
    31   16   17 ar  
    32   16   24 1   
    33   17   32 1   
    34   18   33 1   
    35   18   34 1   
    36   18   35 1   
    37   19   36 1   
    38   19   37 1   
    39   19   38 1   
    40   20   39 1   
    41   20   40 1   
    42   20   43 1   
    43   21   41 1   
    44   21   42 1   
    45   21   44 1   
@<TRIPOS>SUBSTRUCTURE
     1 WRA         1 TEMP              0 ****  ****    0 ROOT
