@<TRIPOS>MOLECULE
WRA
   44    45     1     0     0
SMALL
bcc


@<TRIPOS>ATOM
      1 C1          0.3560    0.1160   -0.1030 c3        1 WRA      0.397400
      2 N2          1.6660    0.0250    0.5620 n2        1 WRA     -0.508900
      3 C3          1.7780   -0.5810    1.7080 ce        1 WRA      0.691200
      4 N4          0.7510   -1.2840    2.4290 ne        1 WRA     -0.725000
      5 C5         -0.4440   -1.2310    1.8610 c2        1 WRA      0.725100
      6 N6         -0.8230   -0.3480    0.7970 nh        1 WRA     -0.471100
      7 O7         -1.8560   -0.7840    0.0760 os        1 WRA     -0.237100
      8 C8         -3.0570    0.0600    0.0900 c3        1 WRA      0.123400
      9 C9         -3.7880   -0.0830    1.4000 c3        1 WRA     -0.141400
     10 C10        -5.1230    0.6560    1.3740 c3        1 WRA      0.136400
     11 O11        -5.6220    0.5700    2.7140 os        1 WRA     -0.344900
     12 C12        -6.9860    0.3080    2.8020 ca        1 WRA      0.074100
     13 C13        -7.5120   -0.9800    2.6080 ca        1 WRA      0.002400
     14 C14        -8.8700   -1.2120    2.8300 ca        1 WRA     -0.095000
     15 C15        -9.7040   -0.1670    3.2460 ca        1 WRA      0.028400
     16 C16        -9.1740    1.1210    3.4410 ca        1 WRA      0.030400
     17 C17        -7.8140    1.3570    3.2140 ca        1 WRA     -0.108000
     18 CM1         0.0720    1.6040   -0.4460 c3        1 WRA     -0.104600
     19 CM2         0.4080   -0.6810   -1.4280 c3        1 WRA     -0.104600
     20 NH1         3.1140   -0.6210    2.3770 n4        1 WRA     -0.778600
     21 NH2        -1.5240   -2.0430    2.5070 n4        1 WRA     -0.807600
     22 CL1        -6.5310   -2.2820    2.1060 cl        1 WRA     -0.113400
     23 CL2       -11.3400   -0.4850    3.5060 cl        1 WRA     -0.009400
     24 CL3       -10.1510    2.4010    3.9460 cl        1 WRA     -0.013400
     25 H81        -2.7930    1.1250   -0.1360 h1        1 WRA      0.109700
     26 H82        -3.6210   -0.3980   -0.7720 h1        1 WRA      0.109700
     27 H91        -3.1780    0.3420    2.2410 hc        1 WRA      0.044700
     28 H92        -3.9980   -1.1650    1.6120 hc        1 WRA      0.044700
     29 H101       -5.8240    0.1960    0.6330 h1        1 WRA      0.072200
     30 H102       -4.9760    1.7440    1.1430 h1        1 WRA      0.072200
     31 H14        -9.2910   -2.2220    2.6800 ha        1 WRA      0.181000
     32 H17        -7.3840    2.3600    3.3700 ha        1 WRA      0.174000
     33 H11        -0.0290    2.2340    0.4690 hc        1 WRA      0.089867
     34 H12        -0.8710    1.6610   -1.0430 hc        1 WRA      0.089867
     35 H13         0.9140    1.9950   -1.0720 hc        1 WRA      0.089867
     36 H21         0.5710   -1.7690   -1.2500 hc        1 WRA      0.089867
     37 H22         1.2340   -0.2850   -2.0700 hc        1 WRA      0.089867
     38 H23        -0.5590   -0.5430   -1.9740 hc        1 WRA      0.089867
     39 HH11        3.0470   -0.1510    3.2920 hn        1 WRA      0.497800
     40 HH12        3.4000   -1.6010    2.5160 hn        1 WRA      0.497800
     41 HH21       -2.2000   -1.4030    2.9630 hn        1 WRA      0.504133
     42 HH22       -2.0190   -2.5740    1.7700 hn        1 WRA      0.504133
     43 HH13        3.8190   -0.1380    1.7940 hn        1 WRA      0.497800
     44 HH23       -1.1370   -2.6930    3.2080 hn        1 WRA      0.504133
@<TRIPOS>BOND
     1    1    2 1   
     2    1    6 1   
     3    1   18 1   
     4    1   19 1   
     5    2    3 2   
     6    3    4 1   
     7    3   20 1   
     8    4    5 2   
     9    5    6 1   
    10    5   21 1   
    11    6    7 1   
    12    7    8 1   
    13    8    9 1   
    14    8   25 1   
    15    8   26 1   
    16    9   10 1   
    17    9   27 1   
    18    9   28 1   
    19   10   11 1   
    20   10   29 1   
    21   10   30 1   
    22   11   12 1   
    23   12   13 ar  
    24   12   17 ar  
    25   13   14 ar  
    26   13   22 1   
    27   14   15 ar  
    28   14   31 1   
    29   15   16 ar  
    30   15   23 1   
    31   16   17 ar  
    32   16   24 1   
    33   17   32 1   
    34   18   33 1   
    35   18   34 1   
    36   18   35 1   
    37   19   36 1   
    38   19   37 1   
    39   19   38 1   
    40   20   39 1   
    41   20   40 1   
    42   20   43 1   
    43   21   41 1   
    44   21   42 1   
    45   21   44 1   
@<TRIPOS>SUBSTRUCTURE
     1 WRA         1 TEMP              0 ****  ****    0 ROOT
