@<TRIPOS>MOLECULE
WRA
   42    43     1     0     0
SMALL
bcc


@<TRIPOS>ATOM
      1 C1          0.0750   -1.3540    5.0520 c3        1 WRA      0.354400
      2 N2          1.0870   -0.2980    5.0000 n2        1 WRA     -0.740900
      3 C3          0.6520    0.9380    4.7720 ce        1 WRA      0.823200
      4 N4         -0.6910    1.2910    4.3910 ne        1 WRA     -0.813000
      5 C5         -1.4790    0.2840    4.0200 c2        1 WRA      0.769100
      6 N6         -1.1390   -1.1560    4.1460 nh        1 WRA     -0.475100
      7 O7         -1.1260   -1.8120    3.0010 os        1 WRA     -0.186100
      8 C8         -0.1850   -1.4860    1.9440 c3        1 WRA      0.073400
      9 C9         -0.7830   -0.4620    1.0020 c3        1 WRA     -0.117400
     10 C10         0.0140   -0.4330   -0.2900 c3        1 WRA      0.130400
     11 O11        -0.5830    0.6060   -1.0810 os        1 WRA     -0.309900
     12 C12        -0.0290    0.8220   -2.3220 ca        1 WRA      0.149100
     13 C13        -0.6230    1.8390   -3.1050 ca        1 WRA     -0.007600
     14 C14        -0.1140    2.1140   -4.3730 ca        1 WRA     -0.086000
     15 C15         0.9760    1.3940   -4.8750 ca        1 WRA     -0.011600
     16 C16         1.5620    0.3870   -4.0980 ca        1 WRA      0.053400
     17 C17         1.0610    0.1020   -2.8240 ca        1 WRA     -0.195000
     18 CM1         0.7460   -2.7170    4.7500 c3        1 WRA     -0.078100
     19 CM2        -0.5020   -1.4760    6.4950 c3        1 WRA     -0.078100
     20 NH1         1.5240    2.0280    4.9430 nh        1 WRA     -0.880800
     21 NH2        -2.7280    0.5530    3.4740 nh        1 WRA     -0.901800
     22 CL1        -1.9460    2.7430   -2.5480 cl        1 WRA     -0.057400
     23 CL2         1.5600    1.7650   -6.4230 cl        1 WRA     -0.061400
     24 CL3         2.8830   -0.5070   -4.6700 cl        1 WRA     -0.060400
     25 H81         0.7980   -1.1420    2.3500 h1        1 WRA      0.066700
     26 H82        -0.0560   -2.4780    1.4320 h1        1 WRA      0.066700
     27 H91        -1.8520   -0.7190    0.7840 hc        1 WRA      0.075200
     28 H92        -0.7750    0.5570    1.4690 hc        1 WRA      0.075200
     29 H101        1.0910   -0.1840   -0.0980 h1        1 WRA      0.044200
     30 H102       -0.0610   -1.4100   -0.8360 h1        1 WRA      0.044200
     31 H14        -0.5740    2.9070   -4.9880 ha        1 WRA      0.167000
     32 H17         1.5340   -0.6930   -2.2280 ha        1 WRA      0.159000
     33 H11         1.5340   -2.9100    5.5170 hc        1 WRA      0.048700
     34 H12        -0.0210   -3.5260    4.7990 hc        1 WRA      0.048700
     35 H13         1.2180   -2.7290    3.7400 hc        1 WRA      0.048700
     36 H21         0.3400   -1.6660    7.2010 hc        1 WRA      0.048700
     37 H22        -1.0260   -0.5410    6.8010 hc        1 WRA      0.048700
     38 H23        -1.2180   -2.3300    6.5450 hc        1 WRA      0.048700
     39 HH11        1.2860    2.8570    4.4480 hn        1 WRA      0.416800
     40 HH12        2.4930    1.8050    4.9630 hn        1 WRA      0.416800
     41 HH21       -3.0970    1.4680    3.5870 hn        1 WRA      0.440800
     42 HH22       -3.3710   -0.1990    3.3990 hn        1 WRA      0.440800
@<TRIPOS>BOND
     1    1    2 1   
     2    1    6 1   
     3    1   18 1   
     4    1   19 1   
     5    2    3 2   
     6    3    4 1   
     7    3   20 1   
     8    4    5 2   
     9    5    6 1   
    10    5   21 1   
    11    6    7 1   
    12    7    8 1   
    13    8    9 1   
    14    8   25 1   
    15    8   26 1   
    16    9   10 1   
    17    9   27 1   
    18    9   28 1   
    19   10   11 1   
    20   10   29 1   
    21   10   30 1   
    22   11   12 1   
    23   12   13 ar  
    24   12   17 ar  
    25   13   14 ar  
    26   13   22 1   
    27   14   15 ar  
    28   14   31 1   
    29   15   16 ar  
    30   15   23 1   
    31   16   17 ar  
    32   16   24 1   
    33   17   32 1   
    34   18   33 1   
    35   18   34 1   
    36   18   35 1   
    37   19   36 1   
    38   19   37 1   
    39   19   38 1   
    40   20   39 1   
    41   20   40 1   
    42   21   41 1   
    43   21   42 1   
@<TRIPOS>SUBSTRUCTURE
     1 WRA         1 TEMP              0 ****  ****    0 ROOT
