@<TRIPOS>MOLECULE
WRB
   44    45     1     0     0
SMALL
bcc


@<TRIPOS>ATOM
      1 C1          0.3490    0.4240    0.0530 c3        1 WRB      0.397400
      2 N2          1.6440    0.3370    0.7470 n2        1 WRB     -0.507900
      3 C3          1.8010   -0.4910    1.7400 ce        1 WRB      0.691200
      4 N4          0.8480   -1.4460    2.2400 ne        1 WRB     -0.723000
      5 C5         -0.3300   -1.4030    1.6370 c2        1 WRB      0.725100
      6 N6         -0.7880   -0.3540    0.7720 nh        1 WRB     -0.471100
      7 O7         -1.7420   -0.7370   -0.0750 os        1 WRB     -0.237100
      8 C8         -3.0310   -0.0450    0.0490 c3        1 WRB      0.122400
      9 C9         -3.7860   -0.5400    1.2560 c3        1 WRB     -0.130400
     10 C10        -5.1880    0.0580    1.3020 c3        1 WRB      0.139400
     11 O11        -5.7420   -0.4430    2.5180 os        1 WRB     -0.354900
     12 C12        -7.0850   -0.1450    2.7340 ca        1 WRB      0.103100
     13 C13        -7.6540   -0.7960    3.8410 ca        1 WRB     -0.170500
     14 C14        -8.9850   -0.5490    4.1580 ca        1 WRB     -0.064500
     15 C15        -7.8330    0.7380    1.9520 ca        1 WRB     -0.170500
     16 C16        -9.1680    0.9710    2.2830 ca        1 WRB     -0.064500
     17 C17        -9.7490    0.3330    3.3820 ca        1 WRB     -0.044900
     18 CM1        -0.1010    1.9110    0.0250 c3        1 WRB     -0.104600
     19 CM2         0.5280   -0.0510   -1.4080 c3        1 WRB     -0.104600
     20 NH1         3.1150   -0.5270    2.4500 nz        1 WRB     -0.778600
     21 NH2        -1.3210   -2.4540    2.0350 nz        1 WRB     -0.807600
     22 Br        -11.5360    0.6520    3.8160 br        1 WRB     -0.037100
     23 H81        -3.5120   -0.3640   -0.9200 h1        1 WRB      0.110200
     24 H82        -2.8850    1.0650    0.0660 h1        1 WRB      0.110200
     25 H91        -3.2540   -0.2510    2.2020 hc        1 WRB      0.044200
     26 H92        -3.8830   -1.6580    1.2240 hc        1 WRB      0.044200
     27 H101       -5.1450    1.1790    1.3370 h1        1 WRB      0.064200
     28 H102       -5.8000   -0.2770    0.4240 h1        1 WRB      0.064200
     29 H131       -7.0490   -1.4850    4.4460 ha        1 WRB      0.141500
     30 H141       -9.4350   -1.0570    5.0280 ha        1 WRB      0.164000
     31 H151       -7.3970    1.2540    1.0860 ha        1 WRB      0.141500
     32 H161       -9.7600    1.6680    1.6660 ha        1 WRB      0.164000
     33 HM11        0.7050    2.5220   -0.4550 hc        1 WRB      0.090367
     34 HM12       -1.0260    1.9940   -0.5970 hc        1 WRB      0.090367
     35 HM13       -0.3040    2.3080    1.0470 hc        1 WRB      0.090367
     36 HM21        1.3160    0.5670   -1.9090 hc        1 WRB      0.090367
     37 HM22        0.8170   -1.1260   -1.4610 hc        1 WRB      0.090367
     38 HM23       -0.4350    0.0940   -1.9590 hc        1 WRB      0.090367
     39 HN11        3.7720    0.1470    2.0210 hn        1 WRB      0.497800
     40 HN12        2.9700   -0.2800    3.4400 hn        1 WRB      0.497800
     41 HN21       -0.8800   -3.1830    2.6180 hn        1 WRB      0.503467
     42 HN22       -2.0930   -2.0070    2.5620 hn        1 WRB      0.503467
     43 HH13        3.5130   -1.4760    2.3890 hn        1 WRB      0.497800
     44 HH23       -1.7080   -2.8790    1.1760 hn        1 WRB      0.503467
@<TRIPOS>BOND
     1    1    2 1   
     2    1    6 1   
     3    1   18 1   
     4    1   19 1   
     5    2    3 2   
     6    3    4 1   
     7    3   20 1   
     8    4    5 2   
     9    5    6 1   
    10    5   21 1   
    11    6    7 1   
    12    7    8 1   
    13    8    9 1   
    14    8   23 1   
    15    8   24 1   
    16    9   10 1   
    17    9   25 1   
    18    9   26 1   
    19   10   11 1   
    20   10   27 1   
    21   10   28 1   
    22   11   12 1   
    23   12   13 ar  
    24   12   15 ar  
    25   13   14 ar  
    26   13   29 1   
    27   14   17 ar  
    28   14   30 1   
    29   15   16 ar  
    30   15   31 1   
    31   16   17 ar  
    32   16   32 1   
    33   17   22 1   
    34   18   33 1   
    35   18   34 1   
    36   18   35 1   
    37   19   36 1   
    38   19   37 1   
    39   19   38 1   
    40   20   39 1   
    41   20   40 1   
    42   20   43 1   
    43   21   41 1   
    44   21   42 1   
    45   21   44 1   
@<TRIPOS>SUBSTRUCTURE
     1 WRB         1 TEMP              0 ****  ****    0 ROOT
