@<TRIPOS>MOLECULE
WRB
   44    45     1     0     0
SMALL
bcc


@<TRIPOS>ATOM
      1 C1          0.3480    0.4090    0.0420 c3        1 WRB      0.397400
      2 N2          1.6410    0.3510    0.7430 n2        1 WRB     -0.507900
      3 C3          1.8010   -0.4470    1.7590 ce        1 WRB      0.691200
      4 N4          0.8550   -1.3950    2.2830 ne        1 WRB     -0.723000
      5 C5         -0.3220   -1.3780    1.6750 c2        1 WRB      0.725100
      6 N6         -0.7850   -0.3570    0.7800 nh        1 WRB     -0.471100
      7 O7         -1.7340   -0.7710   -0.0590 os        1 WRB     -0.237100
      8 C8         -3.0280   -0.0860    0.0420 c3        1 WRB      0.122400
      9 C9         -3.7830   -0.5520    1.2610 c3        1 WRB     -0.130400
     10 C10        -5.1900    0.0370    1.2860 c3        1 WRB      0.139400
     11 O11        -5.7440   -0.4340    2.5130 os        1 WRB     -0.354900
     12 C12        -7.0890   -0.1390    2.7180 ca        1 WRB      0.103100
     13 C13        -7.6560   -0.7600    3.8430 ca        1 WRB     -0.170500
     14 C14        -8.9900   -0.5130    4.1490 ca        1 WRB     -0.064500
     15 C15        -7.8410    0.7160    1.9080 ca        1 WRB     -0.170500
     16 C16        -9.1790    0.9500    2.2290 ca        1 WRB     -0.064500
     17 C17        -9.7580    0.3400    3.3450 ca        1 WRB     -0.044900
     18 CM1        -0.1130    1.8910   -0.0290 c3        1 WRB     -0.104600
     19 CM2         0.5350   -0.1050   -1.4040 c3        1 WRB     -0.104600
     20 NH1         3.1140   -0.4530    2.4740 n4        1 WRB     -0.778600
     21 NH2        -1.3060   -2.4250    2.1000 n4        1 WRB     -0.807600
     22 BR        -11.5480    0.6600    3.7660 br        1 WRB     -0.037100
     23 H81        -3.5040   -0.4360   -0.9190 h1        1 WRB      0.110200
     24 H82        -2.8900    1.0250    0.0280 h1        1 WRB      0.110200
     25 H91        -3.2560   -0.2320    2.1990 hc        1 WRB      0.044200
     26 H92        -3.8720   -1.6710    1.2600 hc        1 WRB      0.044200
     27 H101       -5.7970   -0.3270    0.4150 h1        1 WRB      0.064200
     28 H102       -5.1550    1.1580    1.2880 h1        1 WRB      0.064200
     29 H131       -7.0480   -1.4270    4.4690 ha        1 WRB      0.141500
     30 H141       -9.4380   -0.9990    5.0330 ha        1 WRB      0.164000
     31 H151       -7.4070    1.2090    1.0280 ha        1 WRB      0.141500
     32 H161       -9.7740    1.6230    1.5910 ha        1 WRB      0.164000
     33 HM11       -0.3220    2.3150    0.9820 hc        1 WRB      0.090367
     34 HM12       -1.0370    1.9490   -0.6550 hc        1 WRB      0.090367
     35 HM13        0.6900    2.4940   -0.5220 hc        1 WRB      0.090367
     36 HM21        1.3200    0.5040   -1.9190 hc        1 WRB      0.090367
     37 HM22       -0.4270    0.0160   -1.9610 hc        1 WRB      0.090367
     38 HM23        0.8320   -1.1800   -1.4260 hc        1 WRB      0.090367
     39 HN11        3.7660    0.2140    2.0280 hn        1 WRB      0.497800
     40 HN12        3.5190   -1.4000    2.4400 hn        1 WRB      0.497800
     41 HN21       -2.0840   -1.9690    2.6120 hn        1 WRB      0.503467
     42 HN22       -0.8620   -3.1330    2.7050 hn        1 WRB      0.503467
     43 HH13        2.9640   -0.1790    3.4560 hn        1 WRB      0.497800
     44 HH23       -1.6880   -2.8770    1.2520 hn        1 WRB      0.503467
@<TRIPOS>BOND
     1    1    2 1   
     2    1    6 1   
     3    1   18 1   
     4    1   19 1   
     5    2    3 2   
     6    3    4 1   
     7    3   20 1   
     8    4    5 2   
     9    5    6 1   
    10    5   21 1   
    11    6    7 1   
    12    7    8 1   
    13    8    9 1   
    14    8   23 1   
    15    8   24 1   
    16    9   10 1   
    17    9   25 1   
    18    9   26 1   
    19   10   11 1   
    20   10   27 1   
    21   10   28 1   
    22   11   12 1   
    23   12   13 ar  
    24   12   15 ar  
    25   13   14 ar  
    26   13   29 1   
    27   14   17 ar  
    28   14   30 1   
    29   15   16 ar  
    30   15   31 1   
    31   16   17 ar  
    32   16   32 1   
    33   17   22 1   
    34   18   33 1   
    35   18   34 1   
    36   18   35 1   
    37   19   36 1   
    38   19   37 1   
    39   19   38 1   
    40   20   39 1   
    41   20   40 1   
    42   20   43 1   
    43   21   41 1   
    44   21   42 1   
    45   21   44 1   
@<TRIPOS>SUBSTRUCTURE
     1 WRB         1 TEMP              0 ****  ****    0 ROOT
