@<TRIPOS>MOLECULE
WRB
   42    43     1     0     0
SMALL
bcc


@<TRIPOS>ATOM
      1 C1          0.1010   -1.3200    5.1430 c3        1 WRB      0.354400
      2 N2          1.1830   -0.3460    4.9990 n2        1 WRB     -0.739900
      3 C3          0.8280    0.9170    4.7820 ce        1 WRB      0.823200
      4 N4         -0.5090    1.3690    4.4930 ne        1 WRB     -0.814000
      5 C5         -1.3960    0.4200    4.1990 c2        1 WRB      0.769100
      6 N6         -1.1570   -1.0400    4.3240 nh        1 WRB     -0.475100
      7 O7         -1.2790   -1.7090    3.1930 os        1 WRB     -0.187100
      8 C8         -0.3960   -1.4680    2.0640 c3        1 WRB      0.074400
      9 C9         -0.9770   -0.4090    1.1520 c3        1 WRB     -0.117400
     10 C10        -0.2730   -0.4520   -0.1930 c3        1 WRB      0.131400
     11 O11        -0.8370    0.6220   -0.9570 os        1 WRB     -0.324900
     12 C12        -0.3410    0.7780   -2.2340 ca        1 WRB      0.141100
     13 C13        -0.9140    1.8410   -2.9600 ca        1 WRB     -0.183000
     14 C14        -0.4870    2.0880   -4.2580 ca        1 WRB     -0.069000
     15 C15         0.6500   -0.0240   -2.8120 ca        1 WRB     -0.183000
     16 C16         1.0670    0.2380   -4.1160 ca        1 WRB     -0.069000
     17 C17         0.5040    1.2890   -4.8420 ca        1 WRB     -0.063900
     18 CM1         0.6430   -2.7340    4.8170 c3        1 WRB     -0.078100
     19 CM2        -0.3760   -1.3800    6.6260 c3        1 WRB     -0.078100
     20 NH1         1.7900    1.9400    4.8690 nh        1 WRB     -0.879800
     21 NH2        -2.6590    0.7780    3.7410 nh        1 WRB     -0.901800
     22 BR          1.0720    1.6320   -6.5920 br        1 WRB     -0.089100
     23 H81         0.6390   -1.2000    2.3930 h1        1 WRB      0.066700
     24 H82        -0.3840   -2.4730    1.5600 h1        1 WRB      0.066700
     25 H91        -2.0760   -0.5840    1.0120 hc        1 WRB      0.073200
     26 H92        -0.8590    0.6100    1.6040 hc        1 WRB      0.073200
     27 H101        0.8310   -0.2900   -0.0770 h1        1 WRB      0.041700
     28 H102       -0.4610   -1.4250   -0.7180 h1        1 WRB      0.041700
     29 H131       -1.6910    2.4610   -2.4900 ha        1 WRB      0.148500
     30 H141       -0.9360    2.9200   -4.8240 ha        1 WRB      0.148000
     31 H151        1.1050   -0.8560   -2.2570 ha        1 WRB      0.148500
     32 H161        1.8470   -0.3970   -4.5660 ha        1 WRB      0.148000
     33 HM11        1.4680   -2.9770    5.5280 hc        1 WRB      0.048367
     34 HM12       -0.1780   -3.4810    4.9360 hc        1 WRB      0.048367
     35 HM13        1.0370   -2.7950    3.7760 hc        1 WRB      0.048367
     36 HM21        0.4990   -1.6250    7.2730 hc        1 WRB      0.048367
     37 HM22       -0.8030   -0.4030    6.9530 hc        1 WRB      0.048367
     38 HM23       -1.1480   -2.1760    6.7430 hc        1 WRB      0.048367
     39 HN11        1.5810    2.7770    4.3750 hn        1 WRB      0.416800
     40 HN12        2.7380    1.6410    4.8190 hn        1 WRB      0.416800
     41 HN21       -2.9500    1.7190    3.8710 hn        1 WRB      0.440300
     42 HN22       -3.3600    0.0760    3.7280 hn        1 WRB      0.440300
@<TRIPOS>BOND
     1    1    2 1   
     2    1    6 1   
     3    1   18 1   
     4    1   19 1   
     5    2    3 2   
     6    3    4 1   
     7    3   20 1   
     8    4    5 2   
     9    5    6 1   
    10    5   21 1   
    11    6    7 1   
    12    7    8 1   
    13    8    9 1   
    14    8   23 1   
    15    8   24 1   
    16    9   10 1   
    17    9   25 1   
    18    9   26 1   
    19   10   11 1   
    20   10   27 1   
    21   10   28 1   
    22   11   12 1   
    23   12   13 ar  
    24   12   15 ar  
    25   13   14 ar  
    26   13   29 1   
    27   14   17 ar  
    28   14   30 1   
    29   15   16 ar  
    30   15   31 1   
    31   16   17 ar  
    32   16   32 1   
    33   17   22 1   
    34   18   33 1   
    35   18   34 1   
    36   18   35 1   
    37   19   36 1   
    38   19   37 1   
    39   19   38 1   
    40   20   39 1   
    41   20   40 1   
    42   21   41 1   
    43   21   42 1   
@<TRIPOS>SUBSTRUCTURE
     1 WRB         1 TEMP              0 ****  ****    0 ROOT
