@<TRIPOS>MOLECULE
WRB
   42    39     1     0     0
SMALL
bcc


@<TRIPOS>ATOM
      1 C1          3.1460    0.1890   -1.3440 c3        1 WRB      0.118000
      2 N2          4.5800    0.0780   -1.5070 n2        1 WRB     -0.312000
      3 C3          5.4270    0.0820   -0.3700 c1        1 WRB      0.173000
      4 N4          4.8680   -0.0480    0.9330 n1        1 WRB     -0.319000
      5 C5          3.5030   -0.2960    1.0840 c1        1 WRB      0.209000
      6 N6          2.6530   -0.3160   -0.0640 n2        1 WRB     -0.146000
      7 O7          1.4360   -0.9470   -0.0040 os        1 WRB     -0.208000
      8 C8          0.4730   -0.0730    0.4890 c3        1 WRB     -0.020000
      9 C9         -0.7320   -0.8970    1.0690 c3        1 WRB     -0.207000
     10 C10        -2.0510   -0.0650    0.9330 c3        1 WRB     -0.020000
     11 O11        -3.1890   -0.9100    1.2340 os        1 WRB     -0.207000
     12 C12        -4.4560   -0.3850    0.7580 c2        1 WRB      0.092000
     13 C13        -4.8860   -0.6790   -0.5220 c2        1 WRB     -0.206000
     14 C14        -6.1510   -0.2830   -0.9380 c1        1 WRB     -0.066000
     15 C15        -5.2870    0.3060    1.6250 c1        1 WRB     -0.157000
     16 C16        -6.5530    0.7010    1.2060 c1        1 WRB     -0.072000
     17 C17        -6.9810    0.4050   -0.0730 c1        1 WRB     -0.203000
     18 CM1         2.7400    1.6150   -1.5030 c3        1 WRB     -0.210500
     19 CM2         2.5030   -0.6240   -2.4240 c3        1 WRB     -0.210500
     20 NH1         6.8410    0.2050   -0.5320 n3        1 WRB     -0.309000
     21 NH2         2.9500   -0.5800    2.4180 n3        1 WRB     -0.348000
     22 BR         -8.6520    0.8790   -0.8980 br        1 WRB      0.053000
     23 H81         0.8620    0.4740    1.1940 h1        1 WRB      0.085500
     24 H82         0.1650    0.4880   -0.2140 h1        1 WRB      0.085500
     25 H91        -0.8220   -1.7420    0.5700 hc        1 WRB      0.110500
     26 H92        -0.5660   -1.0930    2.0170 hc        1 WRB      0.110500
     27 H101       -2.1310    0.2760    0.0200 h1        1 WRB      0.100000
     28 H102       -2.0270    0.6950    1.5700 h1        1 WRB      0.100000
     29 H131       -4.2930   -1.1710   -1.1430 ha        1 WRB      0.142000
     30 H141       -6.4480   -0.4870   -1.8230 ha        1 WRB      0.148000
     31 H151       -4.9890    0.5120    2.5160 ha        1 WRB      0.155000
     32 H161       -7.1300    1.1800    1.8070 ha        1 WRB      0.150000
     33 HM11        1.8010    1.6600   -1.7060 hc        1 WRB      0.086833
     34 HM12        2.9150    2.0930   -0.6810 hc        1 WRB      0.086833
     35 HM13        3.2550    2.0230   -2.2380 hc        1 WRB      0.086833
     36 HM21        2.5640   -1.5710   -2.1980 hc        1 WRB      0.086833
     37 HM22        1.5350   -0.3610   -2.5100 hc        1 WRB      0.086833
     38 HM23        2.9690   -0.4590   -3.2840 hc        1 WRB      0.086833
     39 HN11        7.3820    0.2970    0.2060 hn        1 WRB      0.204500
     40 HN12        7.2100    0.1550   -1.3630 hn        1 WRB      0.204500
     41 HN21        2.1610   -0.1770    2.6870 hn        1 WRB      0.229000
     42 HN22        3.4070   -1.1490    3.0020 hn        1 WRB      0.229000
@<TRIPOS>BOND
     1    1    2 1   
     2    1    6 1   
     3    1   18 1   
     4    1   19 1   
     5    2    3 1   
     6    3   20 1   
     7    4    5 1   
     8    5   21 1   
     9    6    7 1   
    10    7    8 1   
    11    8    9 1   
    12    8   23 1   
    13    8   24 1   
    14    9   10 1   
    15    9   25 1   
    16    9   26 1   
    17   10   11 1   
    18   10   27 1   
    19   10   28 1   
    20   11   12 1   
    21   12   13 1   
    22   12   15 1   
    23   13   14 1   
    24   13   29 1   
    25   14   30 1   
    26   15   31 1   
    27   16   17 1   
    28   16   32 1   
    29   17   22 1   
    30   18   33 1   
    31   18   34 1   
    32   18   35 1   
    33   19   36 1   
    34   19   37 1   
    35   19   38 1   
    36   20   39 1   
    37   20   40 1   
    38   21   41 1   
    39   21   42 1   
@<TRIPOS>SUBSTRUCTURE
     1 WRB         1 TEMP              0 ****  ****    0 ROOT
