@<TRIPOS>MOLECULE
WRB
   44    45     1     0     0
SMALL
bcc


@<TRIPOS>ATOM
      1 C1         -0.0100    0.2460    0.1990 c3        1 WRB      0.387400
      2 N2          1.0580    0.3990    1.1980 n2        1 WRB     -0.515900
      3 C3          0.7960    0.2400    2.4640 ce        1 WRB      0.690200
      4 N4         -0.4440   -0.1740    3.0570 ne        1 WRB     -0.735000
      5 C5         -1.4210   -0.3890    2.1870 c2        1 WRB      0.740100
      6 N6         -1.4170    0.0110    0.8100 nh        1 WRB     -0.465100
      7 O7         -2.1850   -0.7670    0.0470 os        1 WRB     -0.247100
      8 C8         -3.1510   -0.0610   -0.8240 c3        1 WRB      0.137400
      9 C9         -4.3350   -0.9980   -0.9330 c3        1 WRB     -0.114400
     10 C10        -5.4760   -0.6270   -0.0050 c3        1 WRB      0.138400
     11 O11        -4.9660   -0.7410    1.3380 os        1 WRB     -0.458900
     12 C12        -5.9140   -0.5080    2.3330 ca        1 WRB      0.041100
     13 C13        -6.9080   -1.4500    2.6090 ca        1 WRB     -0.163000
     14 C14        -7.7670   -1.2310    3.6860 ca        1 WRB     -0.073500
     15 C15        -5.7790    0.6570    3.1020 ca        1 WRB     -0.163000
     16 C16        -6.6430    0.8620    4.1750 ca        1 WRB     -0.073500
     17 C17        -7.6340   -0.0820    4.4760 ca        1 WRB     -0.022900
     18 CM1        -0.1180    1.5670   -0.6140 c3        1 WRB     -0.101100
     19 CM2         0.3790   -0.8870   -0.7790 c3        1 WRB     -0.101100
     20 NH1         1.8920    0.4570    3.4580 n4        1 WRB     -0.778600
     21 NH2        -2.6900   -0.9500    2.7380 n4        1 WRB     -0.804600
     22 BR         -8.7840    0.2020    5.9170 br        1 WRB     -0.005100
     23 H81        -3.4310    0.9330   -0.3970 h1        1 WRB      0.082200
     24 H82        -2.6240    0.0620   -1.8070 h1        1 WRB      0.082200
     25 H91        -4.7230   -0.9580   -1.9880 hc        1 WRB      0.098700
     26 H92        -4.0060   -2.0540   -0.7330 hc        1 WRB      0.098700
     27 H101       -5.8220    0.4270   -0.1680 h1        1 WRB      0.075200
     28 H102       -6.3380   -1.3340   -0.1310 h1        1 WRB      0.075200
     29 H131       -7.0200   -2.3470    1.9810 ha        1 WRB      0.145500
     30 H141       -8.5590   -1.9700    3.9050 ha        1 WRB      0.175000
     31 H151       -5.0390    1.4230    2.8320 ha        1 WRB      0.145500
     32 H161       -6.5530    1.7820    4.7770 ha        1 WRB      0.175000
     33 HM11       -0.9010    1.4430   -1.4010 hc        1 WRB      0.087033
     34 HM12       -0.3820    2.4370    0.0320 hc        1 WRB      0.087033
     35 HM13        0.8650    1.7610   -1.1130 hc        1 WRB      0.087033
     36 HM21       -0.3710   -0.9250   -1.6070 hc        1 WRB      0.087033
     37 HM22        0.4040   -1.8800   -0.2710 hc        1 WRB      0.087033
     38 HM23        1.3850   -0.6740   -1.2210 hc        1 WRB      0.087033
     39 HN11        2.7670    0.7170    2.9730 hn        1 WRB      0.495800
     40 HN12        1.6180    1.2140    4.1000 hn        1 WRB      0.495800
     41 HN21       -3.1010   -1.6110    2.0450 hn        1 WRB      0.508133
     42 HN22       -2.5310   -1.4280    3.6350 hn        1 WRB      0.508133
     43 HH13        2.0440   -0.4090    3.9950 hn        1 WRB      0.495800
     44 HH23       -3.3870   -0.1870    2.8640 hn        1 WRB      0.508133
@<TRIPOS>BOND
     1    1    2 1   
     2    1    6 1   
     3    1   18 1   
     4    1   19 1   
     5    2    3 2   
     6    3    4 1   
     7    3   20 1   
     8    4    5 2   
     9    5    6 1   
    10    5   21 1   
    11    6    7 1   
    12    7    8 1   
    13    8    9 1   
    14    8   23 1   
    15    8   24 1   
    16    9   10 1   
    17    9   25 1   
    18    9   26 1   
    19   10   11 1   
    20   10   27 1   
    21   10   28 1   
    22   11   12 1   
    23   12   13 ar  
    24   12   15 ar  
    25   13   14 ar  
    26   13   29 1   
    27   14   17 ar  
    28   14   30 1   
    29   15   16 ar  
    30   15   31 1   
    31   16   17 ar  
    32   16   32 1   
    33   17   22 1   
    34   18   33 1   
    35   18   34 1   
    36   18   35 1   
    37   19   36 1   
    38   19   37 1   
    39   19   38 1   
    40   20   39 1   
    41   20   40 1   
    42   20   43 1   
    43   21   41 1   
    44   21   42 1   
    45   21   44 1   
@<TRIPOS>SUBSTRUCTURE
     1 WRB         1 TEMP              0 ****  ****    0 ROOT
