@<TRIPOS>MOLECULE
WRG
   60    60     1     0     0
SMALL
bcc


@<TRIPOS>ATOM
      1 CAW        -0.0330   -3.0170    0.0450 c         1 WRG      0.653100
      2 OAE         0.2210   -3.1110    1.2640 o         1 WRG     -0.622100
      3 CAB        -0.1370   -4.2500   -0.8230 c3        1 WRG     -0.175100
      4 CAA         8.8920   -1.6770   -0.8760 c3        1 WRG      0.071300
      5 NH1         5.3890    2.9770   -0.2610 n2        1 WRG     -0.891100
      6 OAG         6.2780   -0.8460   -0.7630 o         1 WRG     -0.632100
      7 CD          3.0870    1.2010    0.0940 c3        1 WRG      0.178800
      8 CB          0.7220    0.4910   -0.1680 c3        1 WRG     -0.085400
      9 NAS         8.5210   -0.3290   -0.5620 n         1 WRG     -0.548900
     10 NE          4.4230    0.8730    0.5460 nh        1 WRG     -0.827200
     11 NH2         6.8180    1.1900    0.2420 n         1 WRG     -0.475400
     12 N          -0.1660   -1.7950   -0.5870 n         1 WRG     -0.542900
     13 CZ          5.4770    1.7240    0.1120 c2        1 WRG      0.652800
     14 CAZ         7.1530   -0.0330   -0.3810 c         1 WRG      0.747100
     15 C          -1.7170    0.0950   -0.2210 c         1 WRG      0.631100
     16 CA         -0.3530   -0.5640    0.1490 c3        1 WRG      0.024700
     17 NBE        -2.3940    0.8060    0.7340 n         1 WRG     -0.409800
     18 CBD        -3.5460    1.6220    0.3690 c3        1 WRG     -0.041300
     19 CAY        -3.3550    3.1410    0.7600 c         1 WRG      0.910600
     20 OAF        -3.3910    3.4470    1.9840 o         1 WRG     -0.821300
     21 CAR        -4.8600    1.1710    1.0160 c3        1 WRG     -0.050100
     22 CBB        -5.3190   -0.2130    0.7280 ca        1 WRG     -0.049300
     23 CAN        -5.0610   -0.8470   -0.4940 ca        1 WRG     -0.134000
     24 CAL        -5.5580   -2.1250   -0.7460 ca        1 WRG     -0.139500
     25 CAJ        -6.3170   -2.7890    0.2170 ca        1 WRG     -0.157000
     26 CAK        -6.5730   -2.1700    1.4390 ca        1 WRG     -0.139500
     27 CAM        -6.0780   -0.8920    1.6920 ca        1 WRG     -0.134000
     28 OAI        -3.2080    3.9460   -0.1930 o         1 WRG     -0.821300
     29 HAB         0.6030   -4.2090   -1.6580 hc        1 WRG      0.061033
     30 HABA        0.0710   -5.1500   -0.1960 hc        1 WRG      0.061033
     31 HABB       -1.1650   -4.3330   -1.2500 hc        1 WRG      0.061033
     32 HAA         8.1240   -2.1340   -1.5560 h1        1 WRG      0.046033
     33 HAAA        9.8850   -1.6530   -1.3980 h1        1 WRG      0.046033
     34 HAAB        8.9800   -2.3170    0.0440 h1        1 WRG      0.046033
     35 HNH1        4.4730    3.3660   -0.2710 hn        1 WRG      0.411400
     36 HG          2.4240   -0.8530   -0.2400 hc        1 WRG      0.056200
     37 HGA         2.0420   -0.2030    1.4030 hc        1 WRG      0.056200
     38 HD          2.7410    2.1050    0.6740 h1        1 WRG      0.043200
     39 HDA         3.0760    1.4760   -1.0020 h1        1 WRG      0.043200
     40 HB          0.4220    1.4480    0.3380 hc        1 WRG      0.065200
     41 HBA         0.7440    0.6890   -1.2720 hc        1 WRG      0.065200
     42 HNAS        9.1780    0.1750   -0.0100 hn        1 WRG      0.293500
     43 HNE         4.6280   -0.1080    0.5160 hn        1 WRG      0.429800
     44 HNH2        7.5240    1.8970    0.2640 hn        1 WRG      0.320500
     45 HN         -0.5320   -1.7830   -1.5150 hn        1 WRG      0.320500
     46 HA         -0.3080   -0.8120    1.2520 h1        1 WRG      0.097700
     47 HAC        -0.8530    1.2320    2.1230 h1        1 WRG      0.049033
     48 HACA       -2.5500    1.6070    2.6700 h1        1 WRG      0.049033
     49 HACB       -1.9760   -0.1360    2.5730 h1        1 WRG      0.049033
     50 HBD        -3.6510    1.5850   -0.7550 h1        1 WRG      0.081700
     51 HAR        -4.7770    1.3240    2.1280 hc        1 WRG      0.066200
     52 HARA       -5.6490    1.8850    0.6480 hc        1 WRG      0.066200
     53 HAN        -4.4380   -0.3400   -1.2520 ha        1 WRG      0.147000
     54 HAL        -5.3460   -2.6100   -1.7090 ha        1 WRG      0.114500
     55 HAJ        -6.7070   -3.7960    0.0150 ha        1 WRG      0.111000
     56 HAK        -7.1650   -2.6890    2.2050 ha        1 WRG      0.114500
     57 HAM        -6.2820   -0.4080    2.6590 ha        1 WRG      0.147000
     58 CG          2.0900    0.0630    0.3140 c3        1 WRG     -0.085400
     59 CAC        -1.9190    0.8760    2.0880 c3        1 WRG      0.059300
     60 O          -2.1390   -0.0430   -1.3960 o         1 WRG     -0.665100
@<TRIPOS>BOND
     1    1    2 2   
     2    1    3 1   
     3    1   12 1   
     4    3   29 1   
     5    3   30 1   
     6    3   31 1   
     7    4    9 1   
     8    4   32 1   
     9    4   33 1   
    10    4   34 1   
    11    5   13 2   
    12    5   35 1   
    13    6   14 2   
    14    7   10 1   
    15    7   38 1   
    16    7   39 1   
    17    7   58 1   
    18    8   16 1   
    19    8   40 1   
    20    8   41 1   
    21    8   58 1   
    22    9   14 1   
    23    9   42 1   
    24   10   13 1   
    25   10   43 1   
    26   11   13 1   
    27   11   14 1   
    28   11   44 1   
    29   12   16 1   
    30   12   45 1   
    31   15   16 1   
    32   15   17 1   
    33   15   60 2   
    34   16   46 1   
    35   17   18 1   
    36   17   59 1   
    37   18   19 1   
    38   18   21 1   
    39   18   50 1   
    40   19   20 1   
    41   19   28 1   
    42   21   22 1   
    43   21   51 1   
    44   21   52 1   
    45   22   23 ar  
    46   22   27 ar  
    47   23   24 ar  
    48   23   53 1   
    49   24   25 ar  
    50   24   54 1   
    51   25   26 ar  
    52   25   55 1   
    53   26   27 ar  
    54   26   56 1   
    55   27   57 1   
    56   36   58 1   
    57   37   58 1   
    58   47   59 1   
    59   48   59 1   
    60   49   59 1   
@<TRIPOS>SUBSTRUCTURE
     1 WRG         1 TEMP              0 ****  ****    0 ROOT
