@<TRIPOS>MOLECULE
WRO
   33    34     1     0     0
SMALL
bcc


@<TRIPOS>ATOM
      1 OAA         1.7050    2.4830   -0.4090 o         1 WRO     -0.794800
      2 CAP         2.8340    2.1420    0.0180 c         1 WRO      0.922800
      3 OAD         3.7380    2.9080    0.4380 o         1 WRO     -0.794800
      4 CAS         3.1780    0.6210    0.0110 cc        1 WRO      0.046400
      5 NAN         4.4960    0.3170   -0.2920 n         1 WRO     -0.436100
      6 CAU         4.9780   -0.9980   -0.2780 c         1 WRO      0.791500
      7 OAB         6.1830   -1.2560   -0.5210 o         1 WRO     -0.692500
      8 NAO         4.0680   -2.0290   -0.0020 n         1 WRO     -0.592500
      9 CAV         2.7140   -1.7800    0.3020 c         1 WRO      0.716700
     10 OAC         1.9980   -2.7710    0.5570 o         1 WRO     -0.666500
     11 CAT         2.2800   -0.3790    0.2940 cd        1 WRO     -0.295400
     12 CAM         0.8550   -0.1140    0.6120 c3        1 WRO      0.010800
     13 CAL        -0.0020   -0.1030   -0.6480 c3        1 WRO     -0.041100
     14 CAQ        -1.3420    0.4900   -0.3890 ca        1 WRO     -0.060300
     15 CAK        -2.4950   -0.2980   -0.3820 ca        1 WRO     -0.092000
     16 CAR        -3.7400    0.2940   -0.1540 ca        1 WRO     -0.183300
     17 CAW        -4.9930   -0.5650   -0.1330 c3        1 WRO      0.688200
     18 FAF        -6.1360    0.0660   -0.5670 f         1 WRO     -0.248967
     19 FAG        -4.9370   -1.7000   -0.9080 f         1 WRO     -0.248967
     20 FAE        -5.3440   -1.0400    1.1100 f         1 WRO     -0.248967
     21 CAJ        -3.8460    1.6680    0.0710 ca        1 WRO     -0.103000
     22 CAH        -2.6930    2.4520    0.0650 ca        1 WRO     -0.145000
     23 CAI        -1.4470    1.8720   -0.1630 ca        1 WRO     -0.088000
     24 H2          4.4140   -2.9610   -0.0040 hn        1 WRO      0.332500
     25 H4          0.4750   -0.8990    1.3180 hc        1 WRO      0.058200
     26 H5          0.7720    0.8900    1.1140 hc        1 WRO      0.058200
     27 H6          0.5230    0.5260   -1.4210 hc        1 WRO      0.063700
     28 H7         -0.1000   -1.1460   -1.0450 hc        1 WRO      0.063700
     29 H8         -2.4270   -1.3830   -0.5580 ha        1 WRO      0.145000
     30 H9         -4.8320    2.1220    0.2450 ha        1 WRO      0.132000
     31 H10        -2.7680    3.5350    0.2420 ha        1 WRO      0.133000
     32 H11        -0.5210    2.4840   -0.1730 ha        1 WRO      0.203000
     33 H12         5.1520    1.0670   -0.3760 hn        1 WRO      0.366500
@<TRIPOS>BOND
     1    1    2 1   
     2    2    3 1   
     3    2    4 1   
     4    4    5 1   
     5    4   11 2   
     6    5    6 1   
     7    5   33 1   
     8    6    7 2   
     9    6    8 1   
    10    8    9 1   
    11    8   24 1   
    12    9   10 2   
    13    9   11 1   
    14   11   12 1   
    15   12   13 1   
    16   12   25 1   
    17   12   26 1   
    18   13   14 1   
    19   13   27 1   
    20   13   28 1   
    21   14   15 ar  
    22   14   23 ar  
    23   15   16 ar  
    24   15   29 1   
    25   16   17 1   
    26   16   21 ar  
    27   17   18 1   
    28   17   19 1   
    29   17   20 1   
    30   21   22 ar  
    31   21   30 1   
    32   22   23 ar  
    33   22   31 1   
    34   23   32 1   
@<TRIPOS>SUBSTRUCTURE
     1 WRO         1 TEMP              0 ****  ****    0 ROOT
