@<TRIPOS>MOLECULE
WRO
   33    34     1     0     0
SMALL
bcc


@<TRIPOS>ATOM
      1 OAA        -0.0790    0.8100    0.0210 o         1 WRO     -0.794800
      2 CAP         1.0590    0.2870    0.0950 c         1 WRO      0.922800
      3 OAD         1.6260   -0.1300    1.1360 o         1 WRO     -0.794800
      4 CAS         1.8780    0.1580   -1.2260 cc        1 WRO      0.046400
      5 NAN         3.2440    0.3530   -1.0930 n         1 WRO     -0.436100
      6 CAU         4.1240    0.2090   -2.1730 c         1 WRO      0.791500
      7 OAB         5.3640    0.3550   -2.0310 o         1 WRO     -0.692500
      8 NAO         3.5790   -0.0860   -3.4310 n         1 WRO     -0.592500
      9 CAV         2.1970   -0.2840   -3.6280 c         1 WRO      0.716700
     10 OAC         1.8230   -0.5670   -4.7850 o         1 WRO     -0.666500
     11 CAT         1.3330   -0.1430   -2.4510 cd        1 WRO     -0.295400
     12 CAM        -0.1220   -0.3480   -2.6550 c3        1 WRO      0.010800
     13 CAL        -0.8260    0.9610   -2.9910 c3        1 WRO     -0.041100
     14 CAQ        -2.3030    0.8330   -2.8610 ca        1 WRO     -0.060300
     15 CAK        -3.1330    0.8390   -3.9850 ca        1 WRO     -0.092000
     16 CAR        -4.5180    0.7360   -3.8250 ca        1 WRO     -0.183300
     17 CAW        -5.4200    0.7300   -5.0480 c3        1 WRO      0.688200
     18 FAF        -6.6650    1.2830   -4.8520 f         1 WRO     -0.248967
     19 FAG        -4.9320    1.4100   -6.1390 f         1 WRO     -0.248967
     20 FAE        -5.7030   -0.5210   -5.5480 f         1 WRO     -0.248967
     21 CAJ        -5.0830    0.6230   -2.5540 ca        1 WRO     -0.103000
     22 CAH        -4.2510    0.6150   -1.4340 ca        1 WRO     -0.145000
     23 CAI        -2.8700    0.7200   -1.5820 ca        1 WRO     -0.088000
     24 H2          4.2080   -0.1760   -4.1960 hn        1 WRO      0.332500
     25 H4         -0.5690   -0.7670   -1.7110 hc        1 WRO      0.058200
     26 H5         -0.2840   -1.0860   -3.4850 hc        1 WRO      0.058200
     27 H6         -0.5450    1.2840   -4.0270 hc        1 WRO      0.063700
     28 H7         -0.4700    1.7440   -2.2640 hc        1 WRO      0.063700
     29 H8         -2.7010    0.9280   -4.9940 ha        1 WRO      0.145000
     30 H9         -6.1740    0.5460   -2.4430 ha        1 WRO      0.132000
     31 H10        -4.6890    0.5260   -0.4300 ha        1 WRO      0.133000
     32 H11        -2.1960    0.7170   -0.7000 ha        1 WRO      0.203000
     33 H12         3.6250    0.4510   -0.1750 hn        1 WRO      0.366500
@<TRIPOS>BOND
     1    1    2 1   
     2    2    3 1   
     3    2    4 1   
     4    4    5 1   
     5    4   11 2   
     6    5    6 1   
     7    5   33 1   
     8    6    7 2   
     9    6    8 1   
    10    8    9 1   
    11    8   24 1   
    12    9   10 2   
    13    9   11 1   
    14   11   12 1   
    15   12   13 1   
    16   12   25 1   
    17   12   26 1   
    18   13   14 1   
    19   13   27 1   
    20   13   28 1   
    21   14   15 ar  
    22   14   23 ar  
    23   15   16 ar  
    24   15   29 1   
    25   16   17 1   
    26   16   21 ar  
    27   17   18 1   
    28   17   19 1   
    29   17   20 1   
    30   21   22 ar  
    31   21   30 1   
    32   22   23 ar  
    33   22   31 1   
    34   23   32 1   
@<TRIPOS>SUBSTRUCTURE
     1 WRO         1 TEMP              0 ****  ****    0 ROOT
