@<TRIPOS>MOLECULE
WRO
   33    34     1     0     0
SMALL
bcc


@<TRIPOS>ATOM
      1 OAA        -0.0760    0.8140    0.0200 o         1 WRO     -0.794800
      2 CAP         1.0640    0.2950    0.0920 c         1 WRO      0.922800
      3 OAD         1.6330   -0.1190    1.1330 o         1 WRO     -0.794800
      4 CAS         1.8810    0.1670   -1.2300 cc        1 WRO      0.046400
      5 NAN         3.2460    0.3660   -1.1000 n         1 WRO     -0.436100
      6 CAU         4.1260    0.2230   -2.1810 c         1 WRO      0.791500
      7 OAB         5.3650    0.3720   -2.0400 o         1 WRO     -0.692500
      8 NAO         3.5790   -0.0740   -3.4380 n         1 WRO     -0.592500
      9 CAV         2.1970   -0.2770   -3.6320 c         1 WRO      0.716700
     10 OAC         1.8230   -0.5610   -4.7880 o         1 WRO     -0.666500
     11 CAT         1.3350   -0.1370   -2.4540 cd        1 WRO     -0.295400
     12 CAM        -0.1200   -0.3460   -2.6550 c3        1 WRO      0.010800
     13 CAL        -0.8280    0.9600   -2.9920 c3        1 WRO     -0.041100
     14 CAQ        -2.3040    0.8290   -2.8590 ca        1 WRO     -0.060300
     15 CAK        -3.1360    0.8320   -3.9820 ca        1 WRO     -0.092000
     16 CAR        -4.5200    0.7250   -3.8200 ca        1 WRO     -0.183300
     17 CAW        -5.4240    0.7160   -5.0420 c3        1 WRO      0.688200
     18 FAF        -6.6710    1.2640   -4.8440 f         1 WRO     -0.248967
     19 FAG        -4.9410    1.3980   -6.1330 f         1 WRO     -0.248967
     20 FAE        -5.7030   -0.5360   -5.5410 f         1 WRO     -0.248967
     21 CAJ        -5.0830    0.6120   -2.5480 ca        1 WRO     -0.103000
     22 CAH        -4.2500    0.6070   -1.4300 ca        1 WRO     -0.145000
     23 CAI        -2.8690    0.7150   -1.5790 ca        1 WRO     -0.088000
     24 H2          4.2080   -0.1640   -4.2030 hn        1 WRO      0.332500
     25 H4         -0.5640   -0.7650   -1.7110 hc        1 WRO      0.058200
     26 H5         -0.2810   -1.0850   -3.4850 hc        1 WRO      0.058200
     27 H6         -0.4740    1.7460   -2.2660 hc        1 WRO      0.063700
     28 H7         -0.5490    1.2830   -4.0280 hc        1 WRO      0.063700
     29 H8         -2.7060    0.9210   -4.9920 ha        1 WRO      0.145000
     30 H9         -6.1740    0.5320   -2.4350 ha        1 WRO      0.132000
     31 H10        -4.6860    0.5180   -0.4240 ha        1 WRO      0.133000
     32 H11        -2.1940    0.7150   -0.6990 ha        1 WRO      0.203000
     33 H12         3.6280    0.4650   -0.1810 hn        1 WRO      0.366500
@<TRIPOS>BOND
     1    1    2 1   
     2    2    3 1   
     3    2    4 1   
     4    4    5 1   
     5    4   11 2   
     6    5    6 1   
     7    5   33 1   
     8    6    7 2   
     9    6    8 1   
    10    8    9 1   
    11    8   24 1   
    12    9   10 2   
    13    9   11 1   
    14   11   12 1   
    15   12   13 1   
    16   12   25 1   
    17   12   26 1   
    18   13   14 1   
    19   13   27 1   
    20   13   28 1   
    21   14   15 ar  
    22   14   23 ar  
    23   15   16 ar  
    24   15   29 1   
    25   16   17 1   
    26   16   21 ar  
    27   17   18 1   
    28   17   19 1   
    29   17   20 1   
    30   21   22 ar  
    31   21   30 1   
    32   22   23 ar  
    33   22   31 1   
    34   23   32 1   
@<TRIPOS>SUBSTRUCTURE
     1 WRO         1 TEMP              0 ****  ****    0 ROOT
