@<TRIPOS>MOLECULE
WRO
   33    34     1     0     0
SMALL
bcc


@<TRIPOS>ATOM
      1 OAA        -0.0680    0.7850    0.0220 o         1 WRO     -0.794800
      2 CAP         1.0750    0.2710    0.0830 c         1 WRO      0.922800
      3 OAD         1.6510   -0.1530    1.1160 o         1 WRO     -0.794800
      4 CAS         1.8870    0.1620   -1.2440 cc        1 WRO      0.046400
      5 NAN         3.2520    0.3660   -1.1160 ns        1 WRO     -0.436100
      6 CAU         4.1280    0.2390   -2.2030 c         1 WRO      0.791500
      7 OAB         5.3670    0.3930   -2.0650 o         1 WRO     -0.692500
      8 NAO         3.5780   -0.0450   -3.4610 ns        1 WRO     -0.592500
      9 CAV         2.1960   -0.2510   -3.6520 c         1 WRO      0.716700
     10 OAC         1.8180   -0.5230   -4.8100 o         1 WRO     -0.666500
     11 CAT         1.3380   -0.1290   -2.4690 cd        1 WRO     -0.295400
     12 CAM        -0.1170   -0.3430   -2.6670 c3        1 WRO      0.010800
     13 CAL        -0.8310    0.9650   -2.9850 c3        1 WRO     -0.041100
     14 CAQ        -2.3070    0.8250   -2.8480 ca        1 WRO     -0.060300
     15 CAK        -3.1430    0.8380   -3.9680 ca        1 WRO     -0.092000
     16 CAR        -4.5260    0.7230   -3.8020 ca        1 WRO     -0.183300
     17 CAW        -5.4350    0.7250   -5.0200 c3        1 WRO      0.688200
     18 FAF        -6.6830    1.2650   -4.8110 f         1 WRO     -0.248967
     19 FAG        -4.9590    1.4230   -6.1050 f         1 WRO     -0.248967
     20 FAE        -5.7100   -0.5220   -5.5330 f         1 WRO     -0.248967
     21 CAJ        -5.0830    0.5920   -2.5290 ca        1 WRO     -0.103000
     22 CAH        -4.2460    0.5770   -1.4140 ca        1 WRO     -0.145000
     23 CAI        -2.8660    0.6930   -1.5680 ca        1 WRO     -0.088000
     24 H2          4.2040   -0.1230   -4.2290 hn        1 WRO      0.332500
     25 H4         -0.5560   -0.7740   -1.7260 hc        1 WRO      0.058200
     26 H5         -0.2780   -1.0720   -3.5050 hc        1 WRO      0.058200
     27 H6         -0.4780    1.7430   -2.2510 hc        1 WRO      0.063700
     28 H7         -0.5590    1.3010   -4.0190 hc        1 WRO      0.063700
     29 H8         -2.7180    0.9420   -4.9780 ha        1 WRO      0.145000
     30 H9         -6.1740    0.5060   -2.4130 ha        1 WRO      0.132000
     31 H10        -4.6780    0.4730   -0.4080 ha        1 WRO      0.133000
     32 H11        -2.1880    0.6850   -0.6900 ha        1 WRO      0.203000
     33 H12         3.6380    0.4560   -0.1990 hn        1 WRO      0.366500
@<TRIPOS>BOND
     1    1    2 1   
     2    2    3 1   
     3    2    4 1   
     4    4    5 1   
     5    4   11 2   
     6    5    6 1   
     7    5   33 1   
     8    6    7 2   
     9    6    8 1   
    10    8    9 1   
    11    8   24 1   
    12    9   10 2   
    13    9   11 1   
    14   11   12 1   
    15   12   13 1   
    16   12   25 1   
    17   12   26 1   
    18   13   14 1   
    19   13   27 1   
    20   13   28 1   
    21   14   15 ar  
    22   14   23 ar  
    23   15   16 ar  
    24   15   29 1   
    25   16   17 1   
    26   16   21 ar  
    27   17   18 1   
    28   17   19 1   
    29   17   20 1   
    30   21   22 ar  
    31   21   30 1   
    32   22   23 ar  
    33   22   31 1   
    34   23   32 1   
@<TRIPOS>SUBSTRUCTURE
     1 WRO         1 TEMP              0 ****  ****    0 ROOT
