@<TRIPOS>MOLECULE
WRP
   43    38     1     0     0
SMALL
bcc


@<TRIPOS>ATOM
      1 O          -2.7530    0.6970   -5.2140 o         1 WRP     -0.595000
      2 C          -2.1050    1.4670   -4.4540 c1        1 WRP      0.299000
      3 CA         -2.0350    1.1770   -2.9560 c3        1 WRP     -0.154000
      4 CB         -1.2270   -0.0680   -2.7240 c3        1 WRP      0.111000
      5 CG         -0.4590    0.0660   -1.4110 c2        1 WRP     -0.095000
      6 CD1        -0.8400   -0.4740   -0.2060 c1        1 WRP     -0.071000
      7 NE1         0.1870   -0.2640    0.7000 n2        1 WRP     -0.191000
      8 C1          0.0520   -0.6360    2.1030 c2        1 WRP      0.063000
      9 C3         -1.3080   -1.2890    2.3260 c3        1 WRP     -0.222500
     10 C4          1.1590   -1.6210    2.4750 c3        1 WRP      0.026000
     11 C5          1.2270   -1.7660    3.9940 c3        1 WRP     -0.208000
     12 O6          0.8890   -2.8650    1.9020 oh        1 WRP     -0.337000
     13 C2          0.1660    0.6260    2.9840 c3        1 WRP     -0.222500
     14 CE2         1.2090    0.4120    0.0440 c1        1 WRP      0.001000
     15 CZ2         2.4710    0.8470    0.4710 c1        1 WRP     -0.133250
     16 CH2         3.3230    1.4850   -0.4180 c1        1 WRP     -0.133250
     17 CZ3         2.9230    1.6940   -1.7390 c1        1 WRP     -0.133250
     18 CE3         1.6820    1.2660   -2.1600 c1        1 WRP     -0.133250
     19 CD2         0.8160    0.6170   -1.2550 c1        1 WRP     -0.065000
     20 OB         -2.0860   -1.1830   -2.6560 oh        1 WRP     -0.378000
     21 N          -3.3450    0.9880   -2.4480 n3        1 WRP     -0.316000
     22 OXT        -1.6080    2.5350   -4.9150 os        1 WRP     -0.547000
     23 H2         -1.5970    1.9580   -2.4810 h1        1 WRP      0.099000
     24 H3         -0.6010   -0.1890   -3.4560 h1        1 WRP      0.084000
     25 H4         -1.7280   -0.8580    0.0020 DU        1 WRP      0.178000
     26 H5         -2.0230   -0.6390    2.1250 hc        1 WRP      0.086667
     27 H6         -1.3800   -1.5690    3.2320 hc        1 WRP      0.086667
     28 H7         -1.3970   -2.0660    1.7370 hc        1 WRP      0.086667
     29 H8          2.0120   -1.2890    2.1420 h1        1 WRP      0.081000
     30 H9          1.9430   -2.3790    4.2270 hc        1 WRP      0.080667
     31 H10         1.4050   -0.8770    4.4040 hc        1 WRP      0.080667
     32 H11         0.3750   -2.1170    4.3290 hc        1 WRP      0.080667
     33 H12         1.5570   -3.4450    2.1110 ho        1 WRP      0.217000
     34 H13         1.1260    0.8410    3.1330 hc        1 WRP      0.086667
     35 H14        -0.2650    1.3700    2.5400 hc        1 WRP      0.086667
     36 H15        -0.2770    0.4590    3.8580 hc        1 WRP      0.086667
     37 H16         2.7260    0.7650    1.4270 ha        1 WRP      0.126250
     38 H17         4.2090    1.7900   -0.1180 ha        1 WRP      0.126250
     39 H18         3.5200    2.1410   -2.3620 ha        1 WRP      0.126250
     40 H19         1.3750    1.4520   -3.1130 ha        1 WRP      0.126250
     41 H20        -1.8770   -1.7530   -3.2940 ho        1 WRP      0.252000
     42 H21        -3.9550    1.1350   -3.1100 hn        1 WRP      0.128000
     43 H22        -3.4910    1.5590   -1.7770 hn        1 WRP      0.128000
@<TRIPOS>BOND
     1    1    2 1   
     2    2    3 1   
     3    3    4 1   
     4    3   21 1   
     5    3   23 1   
     6    4    5 1   
     7    4   20 1   
     8    4   24 1   
     9    5    6 1   
    10    5   19 1   
    11    6    7 1   
    12    7   14 1   
    13    8    9 1   
    14    8   10 1   
    15    8   13 1   
    16    9   26 1   
    17    9   27 1   
    18    9   28 1   
    19   10   11 1   
    20   10   12 1   
    21   10   29 1   
    22   11   30 1   
    23   11   31 1   
    24   11   32 1   
    25   12   33 1   
    26   13   34 1   
    27   13   35 1   
    28   13   36 1   
    29   14   19 1   
    30   15   16 1   
    31   15   37 1   
    32   16   38 1   
    33   17   18 1   
    34   17   39 1   
    35   18   40 1   
    36   20   41 1   
    37   21   42 1   
    38   21   43 1   
@<TRIPOS>SUBSTRUCTURE
     1 WRP         1 TEMP              0 ****  ****    0 ROOT
