@<TRIPOS>MOLECULE
WRP
   43    44     1     0     0
SMALL
bcc


@<TRIPOS>ATOM
      1 O          -4.8350   -1.2220   -0.3390 o         1 WRP     -0.835800
      2 C          -4.4110   -0.0990    0.0670 c         1 WRP      0.912600
      3 CA         -2.9290   -0.0500    0.5710 c3        1 WRP     -0.000500
      4 CB         -2.0430   -0.1930   -0.6970 c3        1 WRP      0.190300
      5 CG         -0.6240    0.1320   -0.4240 cc        1 WRP     -0.113400
      6 CD1         0.4460   -0.7520   -0.3530 cd        1 WRP     -0.088100
      7 NE1         1.6440   -0.0550   -0.0960 na        1 WRP     -0.095400
      8 C1          2.9730   -0.6380    0.0070 c3        1 WRP      0.062700
      9 C3          3.5610   -0.4020    1.4120 c3        1 WRP     -0.114100
     10 C4          2.9390   -2.1770   -0.2900 c3        1 WRP      0.130100
     11 C5          4.3240   -2.7920   -0.4080 c3        1 WRP     -0.127100
     12 O6          2.1740   -2.8960    0.6590 oh        1 WRP     -0.586800
     13 C2          3.9370   -0.0160   -1.0240 c3        1 WRP     -0.114100
     14 CE2         1.3330    1.3110    0.0150 ca        1 WRP     -0.039200
     15 CZ2         2.1210    2.4410    0.2840 ca        1 WRP     -0.166000
     16 CH2         1.5000    3.6810    0.3360 ca        1 WRP     -0.128000
     17 CZ3         0.1190    3.8250    0.1350 ca        1 WRP     -0.174000
     18 CE3        -0.6830    2.7220   -0.1240 ca        1 WRP     -0.068000
     19 CD2        -0.0950    1.4610   -0.1910 ca        1 WRP     -0.078800
     20 OB         -2.1010   -1.5180   -1.2200 oh        1 WRP     -0.652800
     21 N          -2.6630   -1.0320    1.6020 n3        1 WRP     -0.885800
     22 OXT        -5.0660    0.9730    0.0560 o         1 WRP     -0.835800
     23 H2         -2.7310    0.9680    1.0120 h1        1 WRP      0.059700
     24 H3         -2.4390    0.5190   -1.4790 h1        1 WRP      0.048700
     25 H4          0.4180   -1.8410   -0.4480 h4        1 WRP      0.191000
     26 H5          4.5560   -0.8970    1.4970 hc        1 WRP      0.045033
     27 H6          3.6940    0.6910    1.5970 hc        1 WRP      0.045033
     28 H7          2.8830   -0.8050    2.2020 hc        1 WRP      0.045033
     29 H8          2.3880   -2.3480   -1.2630 h1        1 WRP      0.089700
     30 H9          4.9600   -2.5600    0.4770 hc        1 WRP      0.042033
     31 H10         4.2160   -3.9030   -0.4760 hc        1 WRP      0.042033
     32 H11         4.8380   -2.4280   -1.3290 hc        1 WRP      0.042033
     33 H12         2.5540   -2.7320    1.5300 ho        1 WRP      0.399000
     34 H13         3.7020   -0.3900   -2.0490 hc        1 WRP      0.045033
     35 H14         3.8600    1.0970   -1.0330 hc        1 WRP      0.045033
     36 H15         4.9870   -0.2920   -0.7650 hc        1 WRP      0.045033
     37 H16         3.2010    2.3600    0.4590 ha        1 WRP      0.114000
     38 H17         2.1060    4.5740    0.5460 ha        1 WRP      0.110000
     39 H18        -0.3310    4.8260    0.1920 ha        1 WRP      0.120000
     40 H19        -1.7720    2.8230   -0.2660 ha        1 WRP      0.159000
     41 H20        -3.0370   -1.7860   -1.1740 ho        1 WRP      0.452000
     42 H21        -3.2890   -1.8090    1.4820 hn        1 WRP      0.334300
     43 H22        -1.7250   -1.3770    1.5000 hn        1 WRP      0.334300
@<TRIPOS>BOND
     1    1    2 1   
     2    2    3 1   
     3    2   22 1   
     4    3    4 1   
     5    3   21 1   
     6    3   23 1   
     7    4    5 1   
     8    4   20 1   
     9    4   24 1   
    10    5    6 2   
    11    5   19 1   
    12    6    7 1   
    13    6   25 1   
    14    7    8 1   
    15    7   14 1   
    16    8    9 1   
    17    8   10 1   
    18    8   13 1   
    19    9   26 1   
    20    9   27 1   
    21    9   28 1   
    22   10   11 1   
    23   10   12 1   
    24   10   29 1   
    25   11   30 1   
    26   11   31 1   
    27   11   32 1   
    28   12   33 1   
    29   13   34 1   
    30   13   35 1   
    31   13   36 1   
    32   14   15 ar  
    33   14   19 ar  
    34   15   16 ar  
    35   15   37 1   
    36   16   17 ar  
    37   16   38 1   
    38   17   18 ar  
    39   17   39 1   
    40   18   19 ar  
    41   18   40 1   
    42   20   41 1   
    43   21   42 1   
    44   21   43 1   
@<TRIPOS>SUBSTRUCTURE
     1 WRP         1 TEMP              0 ****  ****    0 ROOT
