@<TRIPOS>MOLECULE
WRR
   41    43     1     0     0
SMALL
bcc


@<TRIPOS>ATOM
      1 C1         -0.5630    0.6170    2.2950 ca        1 WRR     -0.182800
      2 C2          0.5770   -0.2150   -1.3160 c3        1 WRR      0.039800
      3 C3          1.4990    0.9430   -1.6820 c3        1 WRR     -0.107400
      4 C4          2.9500    0.6560   -1.3020 c3        1 WRR      0.134100
      5 C5          3.8000    1.9030   -1.4710 c3        1 WRR     -0.128100
      6 C6         -0.6660   -0.2190   -2.1580 ca        1 WRR     -0.079300
      7 C7         -1.1550   -1.4370   -2.6480 ca        1 WRR     -0.122000
      8 C8         -2.2980   -1.4660   -3.4460 ca        1 WRR     -0.134500
      9 C9         -2.9630   -0.2810   -3.7610 ca        1 WRR     -0.130000
     10 C10        -2.4830    0.9330   -3.2730 ca        1 WRR     -0.134500
     11 C11         0.4250   -1.5490    0.7890 c         1 WRR      0.732800
     12 C12        -1.3410    0.9650   -2.4740 ca        1 WRR     -0.122000
     13 C13         0.2300   -0.2550    0.1420 cc        1 WRR     -0.226400
     14 C14        -0.2710    0.7830    0.8790 cd        1 WRR      0.219900
     15 C15        -1.0300    1.6470    3.1310 ca        1 WRR     -0.085000
     16 C16        -1.2880    1.4070    4.4710 ca        1 WRR     -0.153000
     17 C17        -1.0840    0.1310    5.0170 ca        1 WRR     -0.080000
     18 C18        -0.6140   -0.9040    4.2260 ca        1 WRR     -0.145000
     19 C19        -0.3510   -0.6540    2.8630 ca        1 WRR      0.168100
     20 O1          0.1240   -1.7210    2.1440 os        1 WRR     -0.325200
     21 O2          0.8260   -2.6090    0.3110 o         1 WRR     -0.560500
     22 O3          3.4820   -0.4220   -2.0570 oh        1 WRR     -0.592800
     23 O4         -0.4660    1.9960    0.2690 oh        1 WRR     -0.484100
     24 HC2         1.1540   -1.1660   -1.5520 hc        1 WRR      0.099700
     25 HC31        1.1730    1.8890   -1.1780 hc        1 WRR      0.057700
     26 HC32        1.4390    1.1130   -2.7900 hc        1 WRR      0.057700
     27 HC4         3.0060    0.2850   -0.2380 h1        1 WRR      0.077700
     28 HC1         4.8710    1.6600   -1.2730 hc        1 WRR      0.042367
     29 HA2         3.7120    2.2990   -2.5110 hc        1 WRR      0.042367
     30 HC3         3.4680    2.6930   -0.7580 hc        1 WRR      0.042367
     31 HC7        -0.6330   -2.3750   -2.3990 ha        1 WRR      0.141500
     32 HC8        -2.6740   -2.4270   -3.8260 ha        1 WRR      0.130000
     33 HC9        -3.8620   -0.3060   -4.3930 ha        1 WRR      0.129000
     34 HC01       -3.0050    1.8690   -3.5180 ha        1 WRR      0.130000
     35 HC21       -0.9690    1.9230   -2.0780 ha        1 WRR      0.141500
     36 HC51       -1.1850    2.6620    2.7330 ha        1 WRR      0.130000
     37 HC61       -1.6540    2.2210    5.1150 ha        1 WRR      0.143000
     38 HC71       -1.2960   -0.0470    6.0830 ha        1 WRR      0.145000
     39 HC81       -0.4400   -1.9120    4.6290 ha        1 WRR      0.164000
     40 HO3         3.4370   -0.1710   -2.9880 ho        1 WRR      0.395000
     41 HO4        -1.0680    2.5250    0.8130 ho        1 WRR      0.429000
@<TRIPOS>BOND
     1    1   14 1   
     2    1   15 ar  
     3    1   19 ar  
     4    2    3 1   
     5    2    6 1   
     6    2   13 1   
     7    2   24 1   
     8    3    4 1   
     9    3   25 1   
    10    3   26 1   
    11    4    5 1   
    12    4   22 1   
    13    4   27 1   
    14    5   28 1   
    15    5   29 1   
    16    5   30 1   
    17    6    7 ar  
    18    6   12 ar  
    19    7    8 ar  
    20    7   31 1   
    21    8    9 ar  
    22    8   32 1   
    23    9   10 ar  
    24    9   33 1   
    25   10   12 ar  
    26   10   34 1   
    27   11   13 1   
    28   11   20 1   
    29   11   21 2   
    30   12   35 1   
    31   13   14 2   
    32   14   23 1   
    33   15   16 ar  
    34   15   36 1   
    35   16   17 ar  
    36   16   37 1   
    37   17   18 ar  
    38   17   38 1   
    39   18   19 ar  
    40   18   39 1   
    41   19   20 1   
    42   22   40 1   
    43   23   41 1   
@<TRIPOS>SUBSTRUCTURE
     1 WRR         1 TEMP              0 ****  ****    0 ROOT
