@<TRIPOS>MOLECULE
WRR
   41    43     1     0     0
SMALL
bcc


@<TRIPOS>ATOM
      1 C1         -0.1140    0.0700   -0.1480 ca        1 WRR     -0.181800
      2 C2          3.5420    0.0340    1.1360 c3        1 WRR      0.039800
      3 C3          4.1790    1.2550    0.4800 c3        1 WRR     -0.070400
      4 C4          3.9880    2.5100    1.3280 c3        1 WRR      0.138100
      5 C5          4.2640    3.7660    0.5200 c3        1 WRR     -0.129100
      6 C6          4.1310   -1.2460    0.6190 ca        1 WRR     -0.074300
      7 C7          4.3830   -2.2920    1.5180 ca        1 WRR     -0.121000
      8 C8          4.9430   -3.4860    1.0680 ca        1 WRR     -0.134500
      9 C9          5.2600   -3.6480   -0.2800 ca        1 WRR     -0.131000
     10 C10         5.0110   -2.6110   -1.1790 ca        1 WRR     -0.134500
     11 C11         1.3190   -0.1180    2.2690 c         1 WRR      0.731800
     12 C12         4.4480   -1.4170   -0.7320 ca        1 WRR     -0.121000
     13 C13         2.0480    0.0230    1.0130 cc        1 WRR     -0.227400
     14 C14         1.3400    0.1100   -0.1540 cd        1 WRR      0.219900
     15 C15        -0.9120    0.1900   -1.3000 ca        1 WRR     -0.085000
     16 C16        -2.2940    0.1320   -1.2110 ca        1 WRR     -0.153000
     17 C17        -2.9200   -0.0440    0.0320 ca        1 WRR     -0.081000
     18 C18        -2.1650   -0.1530    1.1880 ca        1 WRR     -0.145000
     19 C19        -0.7600   -0.0890    1.0930 ca        1 WRR      0.166100
     20 O1         -0.0770   -0.1860    2.2800 os        1 WRR     -0.326200
     21 O2          1.7500   -0.2050    3.4190 o         1 WRR     -0.564500
     22 O3          4.9000    2.4050    2.4170 oh        1 WRR     -0.598800
     23 O4          2.0220    0.2710   -1.3330 oh        1 WRR     -0.483100
     24 HC2         3.7940    0.1020    2.2420 hc        1 WRR      0.100700
     25 HC31        3.7420    1.4360   -0.5350 hc        1 WRR      0.064700
     26 HC32        5.2780    1.0660    0.3590 hc        1 WRR      0.064700
     27 HC4         2.9350    2.5430    1.7300 h1        1 WRR      0.033700
     28 HC1         4.1590    4.6710    1.1650 hc        1 WRR      0.041700
     29 HA2         5.3030    3.7410    0.1120 hc        1 WRR      0.041700
     30 HC3         3.5440    3.8440   -0.3280 hc        1 WRR      0.041700
     31 HC7         4.1380   -2.1660    2.5840 ha        1 WRR      0.140500
     32 HC8         5.1380   -4.3000    1.7810 ha        1 WRR      0.129000
     33 HC9         5.7060   -4.5890   -0.6330 ha        1 WRR      0.129000
     34 HC01        5.2610   -2.7340   -2.2430 ha        1 WRR      0.129000
     35 HC21        4.2440   -0.6020   -1.4450 ha        1 WRR      0.140500
     36 HC51       -0.4460    0.3440   -2.2860 ha        1 WRR      0.131000
     37 HC61       -2.9070    0.2260   -2.1190 ha        1 WRR      0.143000
     38 HC71       -4.0180   -0.0920    0.0870 ha        1 WRR      0.145000
     39 HC81       -2.6300   -0.2860    2.1760 ha        1 WRR      0.164000
     40 HO3         4.7460    3.1710    2.9820 ho        1 WRR      0.399000
     41 HO4         1.4500   -0.0070   -2.0640 ho        1 WRR      0.429000
@<TRIPOS>BOND
     1    1   14 1   
     2    1   15 ar  
     3    1   19 ar  
     4    2    3 1   
     5    2    6 1   
     6    2   13 1   
     7    2   24 1   
     8    3    4 1   
     9    3   25 1   
    10    3   26 1   
    11    4    5 1   
    12    4   22 1   
    13    4   27 1   
    14    5   28 1   
    15    5   29 1   
    16    5   30 1   
    17    6    7 ar  
    18    6   12 ar  
    19    7    8 ar  
    20    7   31 1   
    21    8    9 ar  
    22    8   32 1   
    23    9   10 ar  
    24    9   33 1   
    25   10   12 ar  
    26   10   34 1   
    27   11   13 1   
    28   11   20 1   
    29   11   21 2   
    30   12   35 1   
    31   13   14 2   
    32   14   23 1   
    33   15   16 ar  
    34   15   36 1   
    35   16   17 ar  
    36   16   37 1   
    37   17   18 ar  
    38   17   38 1   
    39   18   19 ar  
    40   18   39 1   
    41   19   20 1   
    42   22   40 1   
    43   23   41 1   
@<TRIPOS>SUBSTRUCTURE
     1 WRR         1 TEMP              0 ****  ****    0 ROOT
