@<TRIPOS>MOLECULE
WRR
   41    43     1     0     0
SMALL
bcc


@<TRIPOS>ATOM
      1 C1         -0.1140    0.0670   -0.1460 ca        1 WRR     -0.181800
      2 C2          3.5430    0.0360    1.1360 c3        1 WRR      0.039800
      3 C3          4.1770    1.2580    0.4800 c3        1 WRR     -0.070400
      4 C4          3.9850    2.5130    1.3290 c3        1 WRR      0.138100
      5 C5          4.2590    3.7690    0.5210 c3        1 WRR     -0.129100
      6 C6          4.1330   -1.2430    0.6180 ca        1 WRR     -0.074300
      7 C7          4.3860   -2.2890    1.5160 ca        1 WRR     -0.121000
      8 C8          4.9490   -3.4820    1.0660 ca        1 WRR     -0.134500
      9 C9          5.2650   -3.6430   -0.2830 ca        1 WRR     -0.131000
     10 C10         5.0150   -2.6060   -1.1810 ca        1 WRR     -0.134500
     11 C11         1.3200   -0.1200    2.2700 c         1 WRR      0.731800
     12 C12         4.4500   -1.4120   -0.7340 ca        1 WRR     -0.121000
     13 C13         2.0480    0.0230    1.0140 cc        1 WRR     -0.227400
     14 C14         1.3400    0.1090   -0.1530 cd        1 WRR      0.219900
     15 C15        -0.9130    0.1860   -1.2980 ca        1 WRR     -0.085000
     16 C16        -2.2940    0.1260   -1.2090 ca        1 WRR     -0.153000
     17 C17        -2.9200   -0.0520    0.0340 ca        1 WRR     -0.081000
     18 C18        -2.1650   -0.1600    1.1900 ca        1 WRR     -0.145000
     19 C19        -0.7590   -0.0940    1.0950 ca        1 WRR      0.166100
     20 O1         -0.0760   -0.1900    2.2820 os        1 WRR     -0.326200
     21 O2          1.7520   -0.2060    3.4190 o         1 WRR     -0.564500
     22 O3          4.8980    2.4090    2.4170 oh        1 WRR     -0.598800
     23 O4          2.0210    0.2710   -1.3330 oh        1 WRR     -0.483100
     24 HC2         3.7950    0.1040    2.2420 hc        1 WRR      0.100700
     25 HC31        5.2770    1.0710    0.3580 hc        1 WRR      0.064700
     26 HC32        3.7390    1.4390   -0.5350 hc        1 WRR      0.064700
     27 HC4         2.9320    2.5430    1.7320 h1        1 WRR      0.033700
     28 HC1         3.5370    3.8460   -0.3260 hc        1 WRR      0.041700
     29 HA2         4.1530    4.6730    1.1670 hc        1 WRR      0.041700
     30 HC3         5.2970    3.7460    0.1130 hc        1 WRR      0.041700
     31 HC7         4.1410   -2.1650    2.5830 ha        1 WRR      0.140500
     32 HC8         5.1450   -4.2970    1.7780 ha        1 WRR      0.129000
     33 HC9         5.7120   -4.5830   -0.6360 ha        1 WRR      0.129000
     34 HC01        5.2640   -2.7280   -2.2450 ha        1 WRR      0.129000
     35 HC21        4.2450   -0.5980   -1.4460 ha        1 WRR      0.140500
     36 HC51       -0.4480    0.3400   -2.2840 ha        1 WRR      0.131000
     37 HC61       -2.9090    0.2190   -2.1170 ha        1 WRR      0.143000
     38 HC71       -4.0180   -0.1020    0.0900 ha        1 WRR      0.145000
     39 HC81       -2.6290   -0.2930    2.1790 ha        1 WRR      0.164000
     40 HO3         4.7430    3.1740    2.9830 ho        1 WRR      0.399000
     41 HO4         1.4490   -0.0070   -2.0630 ho        1 WRR      0.429000
@<TRIPOS>BOND
     1    1   14 1   
     2    1   15 ar  
     3    1   19 ar  
     4    2    3 1   
     5    2    6 1   
     6    2   13 1   
     7    2   24 1   
     8    3    4 1   
     9    3   25 1   
    10    3   26 1   
    11    4    5 1   
    12    4   22 1   
    13    4   27 1   
    14    5   28 1   
    15    5   29 1   
    16    5   30 1   
    17    6    7 ar  
    18    6   12 ar  
    19    7    8 ar  
    20    7   31 1   
    21    8    9 ar  
    22    8   32 1   
    23    9   10 ar  
    24    9   33 1   
    25   10   12 ar  
    26   10   34 1   
    27   11   13 1   
    28   11   20 1   
    29   11   21 2   
    30   12   35 1   
    31   13   14 2   
    32   14   23 1   
    33   15   16 ar  
    34   15   36 1   
    35   16   17 ar  
    36   16   37 1   
    37   17   18 ar  
    38   17   38 1   
    39   18   19 ar  
    40   18   39 1   
    41   19   20 1   
    42   22   40 1   
    43   23   41 1   
@<TRIPOS>SUBSTRUCTURE
     1 WRR         1 TEMP              0 ****  ****    0 ROOT
