@<TRIPOS>MOLECULE
WRS
   41    43     1     0     0
SMALL
bcc


@<TRIPOS>ATOM
      1 C1          0.4090    0.2470   -2.3330 ca        1 WRS     -0.182800
      2 C2          0.1880   -0.3820    1.4860 c3        1 WRS      0.039800
      3 C3          1.5960   -0.0760    1.9870 c3        1 WRS     -0.107400
      4 C4          2.4860   -1.3160    1.9710 c3        1 WRS      0.134100
      5 C5          3.9290   -0.9370    2.2590 c3        1 WRS     -0.128100
      6 C6         -0.8130    0.6030    2.0170 ca        1 WRS     -0.079300
      7 C7         -2.0620    0.1400    2.4510 ca        1 WRS     -0.122000
      8 C8         -3.0030    1.0310    2.9630 ca        1 WRS     -0.134500
      9 C9         -2.7080    2.3920    3.0460 ca        1 WRS     -0.130000
     10 C10        -1.4680    2.8590    2.6110 ca        1 WRS     -0.134500
     11 C11        -0.5640   -1.6720   -0.5150 c         1 WRS      0.732800
     12 C12        -0.5250    1.9700    2.0970 ca        1 WRS     -0.122000
     13 C13         0.1010   -0.4750   -0.0070 cc        1 WRS     -0.226400
     14 C14         0.5490    0.4600   -0.9000 cd        1 WRS      0.219900
     15 C15         0.8890    1.1340   -3.3140 ca        1 WRS     -0.085000
     16 C16         0.7120    0.8610   -4.6610 ca        1 WRS     -0.153000
     17 C17         0.0540   -0.3090   -5.0690 ca        1 WRS     -0.080000
     18 C18        -0.4220   -1.2100   -4.1310 ca        1 WRS     -0.145000
     19 C19        -0.2370   -0.9280   -2.7610 ca        1 WRS      0.168100
     20 O1         -0.7230   -1.8710   -1.8900 os        1 WRS     -0.325200
     21 O2         -1.0650   -2.6090    0.1040 o         1 WRS     -0.560500
     22 O3          2.0310   -2.2960    2.8900 oh        1 WRS     -0.592800
     23 O4          1.1630    1.5900   -0.4240 oh        1 WRS     -0.484100
     24 HC2        -0.0810   -1.4040    1.9050 hc        1 WRS      0.099700
     25 HC31        1.5260    0.3090    3.0390 hc        1 WRS      0.057700
     26 HC32        2.0760    0.7240    1.3670 hc        1 WRS      0.057700
     27 HC4         2.4110   -1.8350    0.9730 h1        1 WRS      0.077700
     28 HC1         4.5550   -1.8590    2.3280 hc        1 WRS      0.042367
     29 HA2         4.3260   -0.2890    1.4430 hc        1 WRS      0.042367
     30 HC3         4.0030   -0.3840    3.2250 hc        1 WRS      0.042367
     31 HC7        -2.2990   -0.9340    2.3850 ha        1 WRS      0.141500
     32 HC8        -3.9810    0.6590    3.3020 ha        1 WRS      0.130000
     33 HC9        -3.4500    3.0940    3.4520 ha        1 WRS      0.129000
     34 HC01       -1.2310    3.9310    2.6730 ha        1 WRS      0.130000
     35 HC21        0.4500    2.3400    1.7430 ha        1 WRS      0.141500
     36 HC51        1.4230    2.0520   -3.0220 ha        1 WRS      0.130000
     37 HC61        1.0920    1.5630   -5.4180 ha        1 WRS      0.143000
     38 HC71       -0.0820   -0.5110   -6.1420 ha        1 WRS      0.145000
     39 HC81       -0.9360   -2.1370   -4.4230 ha        1 WRS      0.164000
     40 HO3         2.0500   -1.8980    3.7690 ho        1 WRS      0.395000
     41 HO4         1.1650    2.2620   -1.1220 ho        1 WRS      0.429000
@<TRIPOS>BOND
     1    1   14 1   
     2    1   15 ar  
     3    1   19 ar  
     4    2    3 1   
     5    2    6 1   
     6    2   13 1   
     7    2   24 1   
     8    3    4 1   
     9    3   25 1   
    10    3   26 1   
    11    4    5 1   
    12    4   22 1   
    13    4   27 1   
    14    5   28 1   
    15    5   29 1   
    16    5   30 1   
    17    6    7 ar  
    18    6   12 ar  
    19    7    8 ar  
    20    7   31 1   
    21    8    9 ar  
    22    8   32 1   
    23    9   10 ar  
    24    9   33 1   
    25   10   12 ar  
    26   10   34 1   
    27   11   13 1   
    28   11   20 1   
    29   11   21 2   
    30   12   35 1   
    31   13   14 2   
    32   14   23 1   
    33   15   16 ar  
    34   15   36 1   
    35   16   17 ar  
    36   16   37 1   
    37   17   18 ar  
    38   17   38 1   
    39   18   19 ar  
    40   18   39 1   
    41   19   20 1   
    42   22   40 1   
    43   23   41 1   
@<TRIPOS>SUBSTRUCTURE
     1 WRS         1 TEMP              0 ****  ****    0 ROOT
