@<TRIPOS>MOLECULE
WRS
   41    43     1     0     0
SMALL
bcc


@<TRIPOS>ATOM
      1 C1          0.0070    0.2520   -0.0070 ca        1 WRS     -0.182800
      2 C2          3.7620    0.2850    0.9470 c3        1 WRS      0.046800
      3 C3          4.4140    0.2110   -0.4290 c3        1 WRS     -0.070400
      4 C4          5.9240    0.0070   -0.3230 c3        1 WRS      0.139100
      5 C5          6.2960   -1.4500   -0.1220 c3        1 WRS     -0.132100
      6 C6          4.0530    1.5780    1.6540 ca        1 WRS     -0.079300
      7 C7          4.5690    1.5420    2.9560 ca        1 WRS     -0.119000
      8 C8          4.8550    2.7270    3.6340 ca        1 WRS     -0.134000
      9 C9          4.6270    3.9580    3.0200 ca        1 WRS     -0.129000
     10 C10         4.1060    4.0000    1.7270 ca        1 WRS     -0.134000
     11 C11         1.7580   -0.8550    1.9040 c         1 WRS      0.736800
     12 C12         3.8180    2.8170    1.0480 ca        1 WRS     -0.119000
     13 C13         2.2860    0.0330    0.8750 cc        1 WRS     -0.238400
     14 C14         1.4280    0.5580   -0.0530 cd        1 WRS      0.226900
     15 C15        -0.9440    0.7540   -0.9150 ca        1 WRS     -0.085000
     16 C16        -2.2830    0.4180   -0.7950 ca        1 WRS     -0.153000
     17 C17        -2.7150   -0.4290    0.2370 ca        1 WRS     -0.079000
     18 C18        -1.8070   -0.9410    1.1480 ca        1 WRS     -0.145000
     19 C19        -0.4460   -0.5970    1.0210 ca        1 WRS      0.168100
     20 O1          0.3930   -1.1470    1.9590 os        1 WRS     -0.324200
     21 O2          2.3530   -1.4510    2.8020 o         1 WRS     -0.570500
     22 O3          6.4680    0.5020   -1.5450 oh        1 WRS     -0.603800
     23 O4          1.9440    1.3780   -1.0210 oh        1 WRS     -0.476100
     24 HC2         4.2050   -0.5540    1.5700 hc        1 WRS      0.077700
     25 HC31        4.2180    1.1520   -1.0090 hc        1 WRS      0.064700
     26 HC32        3.9650   -0.6360   -1.0090 hc        1 WRS      0.064700
     27 HC4         6.3290    0.6250    0.5300 h1        1 WRS      0.041700
     28 HC1         7.4010   -1.5540   -0.0010 hc        1 WRS      0.043700
     29 HA2         5.7960   -1.8550    0.7890 hc        1 WRS      0.043700
     30 HC3         5.9800   -2.0560   -1.0060 hc        1 WRS      0.043700
     31 HC7         4.7420    0.5740    3.4510 ha        1 WRS      0.141000
     32 HC8         5.2600    2.6870    4.6550 ha        1 WRS      0.130000
     33 HC9         4.8540    4.8910    3.5540 ha        1 WRS      0.129000
     34 HC01        3.9220    4.9680    1.2390 ha        1 WRS      0.130000
     35 HC21        3.4000    2.8570    0.0290 ha        1 WRS      0.141000
     36 HC51       -0.6400    1.4220   -1.7350 ha        1 WRS      0.130000
     37 HC61       -3.0160    0.8170   -1.5120 ha        1 WRS      0.143000
     38 HC71       -3.7820   -0.6870    0.3200 ha        1 WRS      0.145000
     39 HC81       -2.1180   -1.6070    1.9670 ha        1 WRS      0.164000
     40 HO3         7.4150    0.3250   -1.5180 ho        1 WRS      0.398000
     41 HO4         1.2360    1.6540   -1.6210 ho        1 WRS      0.429000
@<TRIPOS>BOND
     1    1   14 1   
     2    1   15 ar  
     3    1   19 ar  
     4    2    3 1   
     5    2    6 1   
     6    2   13 1   
     7    2   24 1   
     8    3    4 1   
     9    3   25 1   
    10    3   26 1   
    11    4    5 1   
    12    4   22 1   
    13    4   27 1   
    14    5   28 1   
    15    5   29 1   
    16    5   30 1   
    17    6    7 ar  
    18    6   12 ar  
    19    7    8 ar  
    20    7   31 1   
    21    8    9 ar  
    22    8   32 1   
    23    9   10 ar  
    24    9   33 1   
    25   10   12 ar  
    26   10   34 1   
    27   11   13 1   
    28   11   20 1   
    29   11   21 2   
    30   12   35 1   
    31   13   14 2   
    32   14   23 1   
    33   15   16 ar  
    34   15   36 1   
    35   16   17 ar  
    36   16   37 1   
    37   17   18 ar  
    38   17   38 1   
    39   18   19 ar  
    40   18   39 1   
    41   19   20 1   
    42   22   40 1   
    43   23   41 1   
@<TRIPOS>SUBSTRUCTURE
     1 WRS         1 TEMP              0 ****  ****    0 ROOT
