@<TRIPOS>MOLECULE
WRS
   41    43     1     0     0
SMALL
bcc


@<TRIPOS>ATOM
      1 C1          0.0110    0.2590   -0.0280 ca        1 WRS     -0.182800
      2 C2          3.7630    0.2830    0.9380 c3        1 WRS      0.046800
      3 C3          4.4200    0.2540   -0.4370 c3        1 WRS     -0.070400
      4 C4          5.9300    0.0560   -0.3320 c3        1 WRS      0.139100
      5 C5          6.3100   -1.4060   -0.1770 c3        1 WRS     -0.132100
      6 C6          4.0450    1.5540    1.6860 ca        1 WRS     -0.079300
      7 C7          4.5580    1.4810    2.9880 ca        1 WRS     -0.119000
      8 C8          4.8350    2.6460    3.7030 ca        1 WRS     -0.134000
      9 C9          4.6020    3.8940    3.1270 ca        1 WRS     -0.129000
     10 C10         4.0850    3.9730    1.8340 ca        1 WRS     -0.134000
     11 C11         1.7630   -0.8970    1.8530 c         1 WRS      0.736800
     12 C12         3.8060    2.8110    1.1180 ca        1 WRS     -0.119000
     13 C13         2.2890    0.0250    0.8540 cc        1 WRS     -0.238400
     14 C14         1.4310    0.5740   -0.0600 cd        1 WRS      0.226900
     15 C15        -0.9400    0.7830   -0.9230 ca        1 WRS     -0.085000
     16 C16        -2.2770    0.4370   -0.8180 ca        1 WRS     -0.153000
     17 C17        -2.7080   -0.4440    0.1860 ca        1 WRS     -0.079000
     18 C18        -1.8000   -0.9790    1.0840 ca        1 WRS     -0.145000
     19 C19        -0.4390   -0.6240    0.9720 ca        1 WRS      0.168100
     20 O1          0.3990   -1.1980    1.8950 os        1 WRS     -0.324200
     21 O2          2.3580   -1.5180    2.7340 o         1 WRS     -0.570500
     22 O3          6.4750    0.5910   -1.5370 oh        1 WRS     -0.603800
     23 O4          1.9460    1.4270   -1.0010 oh        1 WRS     -0.476100
     24 HC2         4.2090   -0.5730    1.5370 hc        1 WRS      0.077700
     25 HC31        3.9770   -0.5770   -1.0440 hc        1 WRS      0.064700
     26 HC32        4.2210    1.2120   -0.9890 hc        1 WRS      0.064700
     27 HC4         6.3300    0.6480    0.5400 h1        1 WRS      0.041700
     28 HC1         7.4150   -1.5070   -0.0540 hc        1 WRS      0.043700
     29 HA2         5.9990   -1.9850   -1.0790 hc        1 WRS      0.043700
     30 HC3         5.8100   -1.8410    0.7210 hc        1 WRS      0.043700
     31 HC7         4.7340    0.4990    3.4530 ha        1 WRS      0.141000
     32 HC8         5.2370    2.5770    4.7240 ha        1 WRS      0.130000
     33 HC9         4.8220    4.8120    3.6900 ha        1 WRS      0.129000
     34 HC01        3.8970    4.9550    1.3760 ha        1 WRS      0.130000
     35 HC21        3.3900    2.8790    0.0990 ha        1 WRS      0.141000
     36 HC51       -0.6360    1.4790   -1.7210 ha        1 WRS      0.130000
     37 HC61       -3.0100    0.8540   -1.5240 ha        1 WRS      0.143000
     38 HC71       -3.7730   -0.7100    0.2590 ha        1 WRS      0.145000
     39 HC81       -2.1090   -1.6710    1.8810 ha        1 WRS      0.164000
     40 HO3         7.4230    0.4180   -1.5120 ho        1 WRS      0.398000
     41 HO4         1.2380    1.7160   -1.5940 ho        1 WRS      0.429000
@<TRIPOS>BOND
     1    1   14 1   
     2    1   15 ar  
     3    1   19 ar  
     4    2    3 1   
     5    2    6 1   
     6    2   13 1   
     7    2   24 1   
     8    3    4 1   
     9    3   25 1   
    10    3   26 1   
    11    4    5 1   
    12    4   22 1   
    13    4   27 1   
    14    5   28 1   
    15    5   29 1   
    16    5   30 1   
    17    6    7 ar  
    18    6   12 ar  
    19    7    8 ar  
    20    7   31 1   
    21    8    9 ar  
    22    8   32 1   
    23    9   10 ar  
    24    9   33 1   
    25   10   12 ar  
    26   10   34 1   
    27   11   13 1   
    28   11   20 1   
    29   11   21 2   
    30   12   35 1   
    31   13   14 2   
    32   14   23 1   
    33   15   16 ar  
    34   15   36 1   
    35   16   17 ar  
    36   16   37 1   
    37   17   18 ar  
    38   17   38 1   
    39   18   19 ar  
    40   18   39 1   
    41   19   20 1   
    42   22   40 1   
    43   23   41 1   
@<TRIPOS>SUBSTRUCTURE
     1 WRS         1 TEMP              0 ****  ****    0 ROOT
