@<TRIPOS>MOLECULE
WS1
   66    64     1     0     0
SMALL
bcc


@<TRIPOS>ATOM
      1 O4          4.3460   -0.4430   -8.0500 o         1 WS1     -0.332000
      2 C4          4.3880   -0.9350   -6.9420 c1        1 WS1      0.351000
      3 N3          3.8320   -2.2200   -6.7160 n2        1 WS1     -0.365000
      4 C2          4.0760   -2.9180   -5.4320 c1        1 WS1      0.401000
      5 O2          3.7730   -4.0790   -5.3110 o         1 WS1     -0.369000
      6 C5          5.1050   -0.2350   -5.8460 c2        1 WS1     -0.289000
      7 C6          5.2810   -0.9010   -4.5400 c1        1 WS1      0.034000
      8 N1          4.7420   -2.2160   -4.3290 n1        1 WS1     -0.286000
      9 C1'         5.0230   -2.9300   -3.0760 c3        1 WS1      0.113000
     10 O4'         3.9900   -3.5930   -2.7000 os        1 WS1     -0.263000
     11 C2'         5.2970   -1.9180   -1.9240 c3        1 WS1     -0.033000
     12 O2'         6.3830   -2.2890   -1.2260 oh        1 WS1     -0.317000
     13 C3'         4.0450   -1.9650   -1.0260 c3        1 WS1      0.012000
     14 O3'         4.3480   -2.6870    0.2440 oh        1 WS1     -0.301000
     15 C4'         3.1650   -2.6170   -1.7140 c3        1 WS1     -0.040000
     16 C5'         2.3170   -1.6510   -2.5210 c3        1 WS1     -0.042000
     17 N11         0.9850   -1.5920   -1.9590 n         1 WS1     -0.351000
     18 C12         0.5030   -0.3530   -1.3670 c2        1 WS1      0.361000
     19 O13         1.2680    0.5800   -1.2000 o         1 WS1     -0.406000
     20 C14        -0.9800   -0.2050   -0.9910 c2        1 WS1     -0.068000
     21 C15        -1.9140    0.1860   -1.9650 c2        1 WS1     -0.115000
     22 C16        -3.2190    0.4180   -1.6100 c1        1 WS1     -0.109000
     23 C17        -3.6120    0.2670   -0.3020 c1        1 WS1     -0.128000
     24 C18        -2.6820   -0.1220    0.6670 c1        1 WS1     -0.027000
     25 N19        -1.3720   -0.3540    0.3090 n1        1 WS1     -0.125000
     26 C20        -3.1550   -0.4110    2.1330 c3        1 WS1      0.031000
     27 O21        -3.1960    0.8290    2.8860 os        1 WS1     -0.307000
     28 H1          3.3390   -2.6410   -7.3910 hn        1 WS1      0.266000
     29 H2          5.4720    0.6630   -5.9940 ha        1 WS1      0.184000
     30 H3          5.7560   -0.4410   -3.8130 ha        1 WS1      0.190000
     31 H4          5.7790   -3.5230   -3.1890 h2        1 WS1      0.177000
     32 H5          5.4180   -1.0210   -2.2850 h1        1 WS1      0.116000
     33 H6          7.0780   -2.3630   -1.7770 ho        1 WS1      0.223000
     34 H7          3.7290   -1.0620   -0.8380 h1        1 WS1      0.150000
     35 H8          4.4610   -2.0930    0.9060 ho        1 WS1      0.223000
     36 H9          2.5990   -3.1440   -1.1200 h1        1 WS1      0.120000
     37 H10         2.2680   -1.9540   -3.4440 h1        1 WS1      0.112500
     38 H11         2.7190   -0.7660   -2.4910 h1        1 WS1      0.112500
     39 H12         0.4090   -2.3100   -2.0590 hn        1 WS1      0.250000
     40 H13        -1.6290    0.2950   -2.9140 ha        1 WS1      0.171000
     41 H14        -3.8690    0.6900   -2.2880 ha        1 WS1      0.149000
     42 H15        -4.5420    0.4320   -0.0490 ha        1 WS1      0.180000
     43 H16        -2.5260   -1.0340    2.5620 h1        1 WS1      0.099500
     44 H17        -4.0560   -0.8140    2.1160 h1        1 WS1      0.099500
     45 C22        -3.4750    0.6560    4.2320 c3        1 WS1      0.111000
     46 C23        -2.5200    1.4950    5.0420 c3        1 WS1     -0.024000
     47 C24        -2.7840    2.9570    4.8940 c3        1 WS1      0.014000
     48 C25        -4.2300    3.3050    5.1540 c3        1 WS1      0.007000
     49 C26        -5.1840    2.4540    4.3430 c3        1 WS1     -0.038000
     50 O27        -4.9170    1.0140    4.4880 os        1 WS1     -0.285000
     51 C28        -5.0620    2.8220    2.9110 c3        1 WS1     -0.050000
     52 O29        -5.7670    4.0470    2.6680 oh        1 WS1     -0.325000
     53 O30        -4.5110    3.1080    6.5590 oh        1 WS1     -0.309000
     54 O31        -2.4400    3.3590    3.5600 oh        1 WS1     -0.316000
     55 O32        -2.6470    1.1420    6.4130 oh        1 WS1     -0.327000
     56 H18        -3.3370   -0.3040    4.4680 h2        1 WS1      0.127000
     57 H19        -1.6040    1.3070    4.7480 h1        1 WS1      0.116000
     58 H20        -2.2260    3.4430    5.5250 h1        1 WS1      0.102000
     59 H21        -4.3740    4.2450    4.9310 h1        1 WS1      0.150000
     60 H22        -6.0980    2.6370    4.6390 h1        1 WS1      0.131000
     61 H23        -4.1010    2.9410    2.6790 h1        1 WS1      0.106000
     62 H24        -5.4390    2.1240    2.3690 h1        1 WS1      0.106000
     63 H25        -5.7750    4.2140    1.8080 ho        1 WS1      0.201000
     64 H26        -4.9310    3.8320    6.8860 ho        1 WS1      0.204000
     65 H27        -1.7870    3.9730    3.5930 ho        1 WS1      0.221000
     66 H28        -1.9320    0.6720    6.6670 ho        1 WS1      0.223000
@<TRIPOS>BOND
     1    1    2 1   
     2    2    6 1   
     3    3    4 1   
     4    3   28 1   
     5    4    5 1   
     6    6    7 1   
     7    6   29 1   
     8    7   30 1   
     9    8    9 1   
    10    9   10 1   
    11    9   11 1   
    12    9   31 1   
    13   10   15 1   
    14   11   12 1   
    15   11   13 1   
    16   11   32 1   
    17   12   33 1   
    18   13   14 1   
    19   13   15 1   
    20   13   34 1   
    21   14   35 1   
    22   15   16 1   
    23   15   36 1   
    24   16   17 1   
    25   16   37 1   
    26   16   38 1   
    27   17   18 1   
    28   17   39 1   
    29   18   19 1   
    30   18   20 1   
    31   20   21 1   
    32   20   25 1   
    33   21   22 1   
    34   21   40 1   
    35   22   41 1   
    36   23   24 1   
    37   23   42 1   
    38   24   26 1   
    39   26   27 1   
    40   26   43 1   
    41   26   44 1   
    42   27   45 1   
    43   45   46 1   
    44   45   50 1   
    45   45   56 1   
    46   46   47 1   
    47   46   55 1   
    48   46   57 1   
    49   47   48 1   
    50   47   54 1   
    51   47   58 1   
    52   48   49 1   
    53   48   53 1   
    54   48   59 1   
    55   49   50 1   
    56   49   51 1   
    57   49   60 1   
    58   51   52 1   
    59   51   61 1   
    60   51   62 1   
    61   52   63 1   
    62   53   64 1   
    63   54   65 1   
    64   55   66 1   
@<TRIPOS>SUBSTRUCTURE
     1 WS1         1 TEMP              0 ****  ****    0 ROOT
