@<TRIPOS>MOLECULE
WS1
   66    69     1     0     0
SMALL
bcc


@<TRIPOS>ATOM
      1 O4         -5.5190   -4.0720    1.9650 o         1 WS1     -0.602500
      2 C4         -5.4400   -3.0900    1.2100 c         1 WS1      0.714700
      3 N3         -5.0860   -3.2900   -0.1360 n         1 WS1     -0.585500
      4 C2         -4.9620   -2.2430   -1.0610 c         1 WS1      0.814500
      5 O2         -4.6360   -2.4800   -2.2430 o         1 WS1     -0.628500
      6 C5         -5.6870   -1.6980    1.6100 cc        1 WS1     -0.307200
      7 C6         -5.5660   -0.6930    0.7090 cd        1 WS1      0.042600
      8 N1         -5.2490   -0.9150   -0.6250 n         1 WS1     -0.387000
      9 C1'        -4.9790    0.1840   -1.5400 c3        1 WS1      0.297500
     10 O4'        -3.7300    0.8180   -1.2220 os        1 WS1     -0.417600
     11 C2'        -6.0780    1.2890   -1.5260 c3        1 WS1      0.075100
     12 O2'        -6.4690    1.4610   -2.8740 oh        1 WS1     -0.584800
     13 C3'        -5.3830    2.5610   -0.9900 c3        1 WS1      0.086100
     14 O3'        -5.5480    3.6370   -1.8840 oh        1 WS1     -0.581800
     15 C4'        -3.9060    2.1740   -0.7950 c3        1 WS1      0.070100
     16 C5'        -3.4670    2.3270    0.6720 c3        1 WS1      0.076000
     17 N11        -2.1040    1.9550    0.9170 n         1 WS1     -0.537900
     18 C12        -1.1500    2.8970    1.2490 c         1 WS1      0.567600
     19 O13        -1.4590    4.0750    1.5200 o         1 WS1     -0.607100
     20 C14         0.2880    2.4550    1.3660 ca        1 WS1      0.356800
     21 C15         1.1240    3.2270    2.2000 ca        1 WS1     -0.184300
     22 C16         2.4660    2.8600    2.3180 ca        1 WS1     -0.105000
     23 C17         2.9290    1.7510    1.6140 ca        1 WS1     -0.196300
     24 C18         2.0240    1.0360    0.7960 ca        1 WS1      0.399600
     25 N19         0.7230    1.3790    0.6690 nb        1 WS1     -0.654000
     26 C20         2.5110   -0.1820    0.0520 c3        1 WS1      0.082100
     27 O21         3.8440    0.1030   -0.3910 os        1 WS1     -0.448600
     28 H1         -4.8960   -4.2110   -0.4690 hn        1 WS1      0.354500
     29 H2         -5.9670   -1.5280    2.6570 ha        1 WS1      0.181000
     30 H3         -5.7330    0.3670    0.9840 h4        1 WS1      0.157000
     31 H4         -4.8460   -0.2450   -2.5830 h2        1 WS1      0.153700
     32 H5         -6.9690    1.0160   -0.9020 h1        1 WS1      0.068700
     33 H6         -7.1230    2.1750   -2.8860 ho        1 WS1      0.426000
     34 H7         -5.8510    2.9160   -0.0320 h1        1 WS1      0.097700
     35 H8         -5.1290    3.3920   -2.7230 ho        1 WS1      0.421000
     36 H9         -3.2400    2.7860   -1.4680 h1        1 WS1      0.093700
     37 H10        -3.6290    3.4030    0.9730 h1        1 WS1      0.068200
     38 H11        -4.1220    1.6700    1.3140 h1        1 WS1      0.068200
     39 H12        -1.8170    1.0780    0.5440 hn        1 WS1      0.337500
     40 H13         0.7120    4.1020    2.7260 ha        1 WS1      0.172000
     41 H14         3.1460    3.4400    2.9590 ha        1 WS1      0.148000
     42 H15         3.9780    1.4270    1.6710 ha        1 WS1      0.156000
     43 H16         2.5340   -1.0640    0.7490 h1        1 WS1      0.063200
     44 H17         1.8710   -0.4190   -0.8400 h1        1 WS1      0.063200
     45 C22         4.4540   -0.9900   -1.0480 c3        1 WS1      0.302900
     46 C23         5.6740   -0.4560   -1.8190 c3        1 WS1      0.101100
     47 C24         6.7700    0.0280   -0.8590 c3        1 WS1      0.082100
     48 C25         7.0700   -1.0320    0.2180 c3        1 WS1      0.084100
     49 C26         5.7720   -1.4830    0.8940 c3        1 WS1      0.107100
     50 O27         4.7940   -1.9300   -0.0500 os        1 WS1     -0.444600
     51 C28         6.0080   -2.6730    1.8300 c3        1 WS1      0.141400
     52 O29         4.8360   -2.9880    2.5490 oh        1 WS1     -0.596800
     53 O30         7.6920   -2.1670   -0.3710 oh        1 WS1     -0.603800
     54 O31         7.9650    0.3310   -1.5540 oh        1 WS1     -0.596800
     55 O32         6.1770   -1.4610   -2.6750 oh        1 WS1     -0.598800
     56 H18         3.7490   -1.5430   -1.7320 h2        1 WS1      0.097700
     57 H19         5.3590    0.3810   -2.5030 h1        1 WS1      0.107700
     58 H20         6.4490    0.9870   -0.3660 h1        1 WS1      0.096700
     59 H21         7.7560   -0.5900    0.9940 h1        1 WS1      0.061700
     60 H22         5.3440   -0.6090    1.4620 h1        1 WS1      0.066700
     61 H23         6.3650   -3.5560    1.2360 h1        1 WS1      0.064700
     62 H24         6.7680   -2.3960    2.6070 h1        1 WS1      0.064700
     63 H25         4.1670   -3.2450    1.9000 ho        1 WS1      0.412000
     64 H26         8.5470   -1.8640   -0.7060 ho        1 WS1      0.416000
     65 H27         8.0320   -0.2780   -2.3040 ho        1 WS1      0.420000
     66 H28         6.3830   -2.2350   -2.1260 ho        1 WS1      0.431000
@<TRIPOS>BOND
     1    1    2 2   
     2    2    3 1   
     3    2    6 1   
     4    3    4 1   
     5    3   28 1   
     6    4    5 2   
     7    4    8 1   
     8    6    7 2   
     9    6   29 1   
    10    7    8 1   
    11    7   30 1   
    12    8    9 1   
    13    9   10 1   
    14    9   11 1   
    15    9   31 1   
    16   10   15 1   
    17   11   12 1   
    18   11   13 1   
    19   11   32 1   
    20   12   33 1   
    21   13   14 1   
    22   13   15 1   
    23   13   34 1   
    24   14   35 1   
    25   15   16 1   
    26   15   36 1   
    27   16   17 1   
    28   16   37 1   
    29   16   38 1   
    30   17   18 1   
    31   17   39 1   
    32   18   19 2   
    33   18   20 1   
    34   20   21 ar  
    35   20   25 ar  
    36   21   22 ar  
    37   21   40 1   
    38   22   23 ar  
    39   22   41 1   
    40   23   24 ar  
    41   23   42 1   
    42   24   25 ar  
    43   24   26 1   
    44   26   27 1   
    45   26   43 1   
    46   26   44 1   
    47   27   45 1   
    48   45   46 1   
    49   45   50 1   
    50   45   56 1   
    51   46   47 1   
    52   46   55 1   
    53   46   57 1   
    54   47   48 1   
    55   47   54 1   
    56   47   58 1   
    57   48   49 1   
    58   48   53 1   
    59   48   59 1   
    60   49   50 1   
    61   49   51 1   
    62   49   60 1   
    63   51   52 1   
    64   51   61 1   
    65   51   62 1   
    66   52   63 1   
    67   53   64 1   
    68   54   65 1   
    69   55   66 1   
@<TRIPOS>SUBSTRUCTURE
     1 WS1         1 TEMP              0 ****  ****    0 ROOT
