@<TRIPOS>MOLECULE
WS2
   66    69     1     0     0
SMALL
bcc


@<TRIPOS>ATOM
      1 O4         -5.6350   -3.7540    2.9330 o         1 WS2     -0.600500
      2 C4         -5.4090   -2.9490    2.0160 c         1 WS2      0.714700
      3 N3         -6.3210   -2.8750    0.9420 n         1 WS2     -0.580500
      4 C2         -6.1500   -2.0020   -0.1360 c         1 WS2      0.812500
      5 O2         -6.9810   -1.9590   -1.0750 o         1 WS2     -0.673500
      6 C5         -4.2550   -2.0460    1.9440 cc        1 WS2     -0.321200
      7 C6         -4.0980   -1.2030    0.8900 cd        1 WS2      0.060600
      8 N1         -5.0160   -1.1460   -0.1450 n         1 WS2     -0.401000
      9 C1'        -4.8290   -0.3250   -1.3420 c3        1 WS2      0.276500
     10 O4'        -3.6080    0.4100   -1.2830 os        1 WS2     -0.418600
     11 C2'        -5.9970    0.6890   -1.5810 c3        1 WS2      0.088100
     12 O2'        -6.5660    0.4440   -2.8460 oh        1 WS2     -0.594800
     13 C3'        -5.3350    2.0830   -1.5900 c3        1 WS2      0.134100
     14 O3'        -5.4760    2.7760   -2.8040 oh        1 WS2     -0.569800
     15 C4'        -3.8510    1.8270   -1.2540 c3        1 WS2      0.068100
     16 C5'        -3.4900    2.3810    0.1350 c3        1 WS2      0.067000
     17 N11        -2.1130    2.1950    0.4950 n         1 WS2     -0.545900
     18 C12        -1.2880    3.2710    0.7640 c         1 WS2      0.567600
     19 O13        -1.7390    4.4280    0.8800 o         1 WS2     -0.602100
     20 C14         0.1800    3.0110    1.0030 ca        1 WS2      0.353800
     21 C15         0.8770    3.9700    1.7660 ca        1 WS2     -0.184300
     22 C16         2.2410    3.7740    1.9930 ca        1 WS2     -0.106000
     23 C17         2.8620    2.6460    1.4610 ca        1 WS2     -0.192300
     24 C18         2.0880    1.7380    0.7020 ca        1 WS2      0.393600
     25 N19         0.7670    1.9130    0.4730 nb        1 WS2     -0.663000
     26 C20         2.7370    0.4980    0.1370 c3        1 WS2      0.085100
     27 O1'         4.1310    0.7930   -0.0280 os        1 WS2     -0.403600
     28 H1         -7.1240   -3.4670    0.9270 hn        1 WS2      0.354500
     29 H2         -3.5390   -2.0930    2.7750 ha        1 WS2      0.183000
     30 H3         -3.2350   -0.5140    0.7980 h4        1 WS2      0.182000
     31 H4         -4.7290   -1.0270   -2.2270 h2        1 WS2      0.103700
     32 H5         -6.7800    0.6260   -0.7800 h1        1 WS2      0.077700
     33 H6         -7.0960   -0.3640   -2.7570 ho        1 WS2      0.446000
     34 H7         -5.8140    2.7550   -0.8250 h1        1 WS2      0.097700
     35 H8         -5.3560    2.1480   -3.5300 ho        1 WS2      0.426000
     36 H9         -3.1810    2.2540   -2.0500 h1        1 WS2      0.100700
     37 H10        -3.7450    3.4810    0.1540 h1        1 WS2      0.073700
     38 H11        -4.1250    1.8510    0.9040 h1        1 WS2      0.073700
     39 H12        -1.7070    1.3230    0.2420 hn        1 WS2      0.328500
     40 H13         0.3440    4.8510    2.1540 ha        1 WS2      0.172000
     41 H14         2.8160    4.5030    2.5830 ha        1 WS2      0.149000
     42 H15         3.9360    2.4560    1.6100 ha        1 WS2      0.172000
     43 H16         2.6320   -0.3510    0.8640 h1        1 WS2      0.061700
     44 H17         2.2900    0.2070   -0.8510 h1        1 WS2      0.061700
     45 C11         4.8190   -0.1700   -0.7920 c3        1 WS2      0.309900
     46 C22         6.2680    0.3190   -0.9620 c3        1 WS2      0.100100
     47 C33         7.1110   -0.8260   -1.5550 c3        1 WS2      0.076100
     48 C44         6.9540   -2.1130   -0.7210 c3        1 WS2      0.082100
     49 C55         5.4720   -2.4390   -0.4990 c3        1 WS2      0.111100
     50 O66         4.7520   -1.3270    0.0370 os        1 WS2     -0.452600
     51 H18         4.3260   -0.3670   -1.7840 h2        1 WS2      0.051700
     52 H19         6.2970    1.2240   -1.6290 h1        1 WS2      0.102700
     53 H21         6.8140   -1.0250   -2.6210 h1        1 WS2      0.083700
     54 H23         7.4430   -2.9690   -1.2640 h1        1 WS2      0.062700
     55 H25         5.0150   -2.7230   -1.4890 h1        1 WS2      0.057700
     56 C77         5.2920   -3.5720    0.5170 c3        1 WS2      0.142400
     57 O70         3.9330   -3.9340    0.6290 oh        1 WS2     -0.595800
     58 H26         5.8170   -4.4920    0.1490 h1        1 WS2      0.067700
     59 H27         5.7090   -3.2570    1.5100 h1        1 WS2      0.067700
     60 H28         3.4640   -3.1630    0.9740 ho        1 WS2      0.411000
     61 O71         7.5640   -1.9510    0.5510 oh        1 WS2     -0.598800
     62 O72         8.4790   -0.4710   -1.6020 oh        1 WS2     -0.594800
     63 O73         6.8430    0.7450    0.2540 oh        1 WS2     -0.588800
     64 H20         8.5040   -1.7930    0.3870 ho        1 WS2      0.417000
     65 H22         8.6610    0.0990   -0.8390 ho        1 WS2      0.424000
     66 H24         6.6330    0.0730    0.9220 ho        1 WS2      0.434000
@<TRIPOS>BOND
     1    1    2 2   
     2    2    3 1   
     3    2    6 1   
     4    3    4 1   
     5    3   28 1   
     6    4    5 2   
     7    4    8 1   
     8    6    7 2   
     9    6   29 1   
    10    7    8 1   
    11    7   30 1   
    12    8    9 1   
    13    9   10 1   
    14    9   11 1   
    15    9   31 1   
    16   10   15 1   
    17   11   12 1   
    18   11   13 1   
    19   11   32 1   
    20   12   33 1   
    21   13   14 1   
    22   13   15 1   
    23   13   34 1   
    24   14   35 1   
    25   15   16 1   
    26   15   36 1   
    27   16   17 1   
    28   16   37 1   
    29   16   38 1   
    30   17   18 1   
    31   17   39 1   
    32   18   19 2   
    33   18   20 1   
    34   20   21 ar  
    35   20   25 ar  
    36   21   22 ar  
    37   21   40 1   
    38   22   23 ar  
    39   22   41 1   
    40   23   24 ar  
    41   23   42 1   
    42   24   25 ar  
    43   24   26 1   
    44   26   27 1   
    45   26   43 1   
    46   26   44 1   
    47   27   45 1   
    48   45   46 1   
    49   45   50 1   
    50   45   51 1   
    51   46   47 1   
    52   46   52 1   
    53   46   63 1   
    54   47   48 1   
    55   47   53 1   
    56   47   62 1   
    57   48   49 1   
    58   48   54 1   
    59   48   61 1   
    60   49   50 1   
    61   49   55 1   
    62   49   56 1   
    63   56   57 1   
    64   56   58 1   
    65   56   59 1   
    66   57   60 1   
    67   61   64 1   
    68   62   65 1   
    69   63   66 1   
@<TRIPOS>SUBSTRUCTURE
     1 WS2         1 TEMP              0 ****  ****    0 ROOT
