@<TRIPOS>MOLECULE
WS6
   32    34     1     0     0
SMALL
bcc


@<TRIPOS>ATOM
      1 O04        -0.0400   -0.4750    0.1000 o         1 WS6     -0.503500
      2 C04         1.1630   -0.2520   -0.0180 c         1 WS6      0.745700
      3 N03         1.9290   -0.3810    1.2010 ns        1 WS6     -0.499400
      4 C02         3.2900   -0.1560    1.1680 cc        1 WS6      0.567800
      5 N02         4.0580   -0.2940    2.4580 nz        1 WS6     -0.810600
      6 N01         4.0230    0.1770    0.1140 nd        1 WS6     -0.628300
      7 C01         3.3380    0.3210   -1.1150 cd        1 WS6      0.407600
      8 C4A         1.9360    0.1220   -1.2030 cc        1 WS6     -0.096600
      9 N05         1.2360    0.2650   -2.4050 ne        1 WS6     -0.445300
     10 N10         4.0640    0.6300   -2.2330 nu        1 WS6     -0.727000
     11 C9A         3.4080    0.9200   -3.5200 c3        1 WS6      0.175900
     12 C09         4.0340    0.0300   -4.6230 c3        1 WS6     -0.092400
     13 C11         3.5920    2.4030   -3.8840 c3        1 WS6     -0.122100
     14 C5A         1.9040    0.6220   -3.4590 cf        1 WS6      0.336300
     15 C06         1.2130    0.7590   -4.7920 c         1 WS6      0.496800
     16 O06         0.2410    1.4890   -4.9510 o         1 WS6     -0.455100
     17 C07         1.8490   -0.0660   -5.8700 c3        1 WS6     -0.178400
     18 C08         3.3370    0.1960   -5.9560 c3        1 WS6     -0.076400
     19 H021        3.9560   -1.2510    2.8170 hn        1 WS6      0.484133
     20 H022        3.6960    0.3790    3.1450 hn        1 WS6      0.484133
     21 H10         5.0420    0.8070   -2.1790 hn        1 WS6      0.465800
     22 H091        5.1170    0.2980   -4.7400 hc        1 WS6      0.062200
     23 H092        3.9770   -1.0460   -4.3090 hc        1 WS6      0.062200
     24 H111        3.2360    3.0680   -3.0610 hc        1 WS6      0.064367
     25 H112        4.6660    2.6250   -4.0930 hc        1 WS6      0.064367
     26 H113        2.9930    2.6330   -4.7990 hc        1 WS6      0.064367
     27 H081        3.7900   -0.5260   -6.6880 hc        1 WS6      0.067200
     28 H082        3.5170    1.2280   -6.3580 hc        1 WS6      0.067200
     29 H071        1.6550   -1.1490   -5.6400 hc        1 WS6      0.090700
     30 H072        1.3620    0.1650   -6.8550 hc        1 WS6      0.090700
     31 H03         1.4370   -0.6320    2.0340 hn        1 WS6      0.352500
     32 H023        5.0580   -0.1010    2.2910 hn        1 WS6      0.484133
@<TRIPOS>BOND
     1    1    2 2   
     2    2    3 1   
     3    2    8 1   
     4    3    4 1   
     5    3   31 1   
     6    4    5 1   
     7    4    6 2   
     8    5   19 1   
     9    5   20 1   
    10    5   32 1   
    11    6    7 1   
    12    7    8 2   
    13    7   10 1   
    14    8    9 1   
    15    9   14 2   
    16   10   11 1   
    17   10   21 1   
    18   11   12 1   
    19   11   13 1   
    20   11   14 1   
    21   12   18 1   
    22   12   22 1   
    23   12   23 1   
    24   13   24 1   
    25   13   25 1   
    26   13   26 1   
    27   14   15 1   
    28   15   16 2   
    29   15   17 1   
    30   17   18 1   
    31   17   29 1   
    32   17   30 1   
    33   18   27 1   
    34   18   28 1   
@<TRIPOS>SUBSTRUCTURE
     1 WS6         1 TEMP              0 ****  ****    0 ROOT
