@<TRIPOS>MOLECULE
WS6
   32    34     1     0     0
SMALL
bcc


@<TRIPOS>ATOM
      1 O04        -0.0090   -0.6840    0.0520 o         1 WS6     -0.503500
      2 C04         1.1810   -0.3950   -0.0510 c         1 WS6      0.745700
      3 N03         1.9440   -0.5080    1.1720 n         1 WS6     -0.499400
      4 C02         3.2910   -0.2090    1.1550 cc        1 WS6      0.567800
      5 N02         4.0550   -0.3330    2.4490 n4        1 WS6     -0.810600
      6 N01         4.0120    0.1840    0.1150 nd        1 WS6     -0.628300
      7 C01         3.3300    0.3160   -1.1170 cd        1 WS6      0.407600
      8 C4A         1.9410    0.0440   -1.2210 cc        1 WS6     -0.096600
      9 N05         1.2440    0.1750   -2.4260 ne        1 WS6     -0.445300
     10 N10         4.0470    0.6870   -2.2220 nh        1 WS6     -0.727000
     11 C9A         3.3860    0.9680   -3.5090 c3        1 WS6      0.175900
     12 C09         4.0670    0.1360   -4.6240 c3        1 WS6     -0.092400
     13 C11         3.4930    2.4660   -3.8410 c3        1 WS6     -0.122100
     14 C5A         1.8990    0.5880   -3.4670 cf        1 WS6      0.336300
     15 C06         1.2120    0.7160   -4.8020 c         1 WS6      0.496800
     16 O06         0.2040    1.3970   -4.9550 o         1 WS6     -0.455100
     17 C07         1.8990   -0.0520   -5.8910 c3        1 WS6     -0.178400
     18 C08         3.3720    0.2910   -5.9590 c3        1 WS6     -0.076400
     19 H021        3.6520    0.3050    3.1460 hn        1 WS6      0.484133
     20 H022        4.0020   -1.3010    2.7870 hn        1 WS6      0.484133
     21 H10         5.0130    0.9150   -2.1560 hn        1 WS6      0.465800
     22 H091        5.1350    0.4630   -4.7260 hc        1 WS6      0.062200
     23 H092        4.0650   -0.9480   -4.3330 hc        1 WS6      0.062200
     24 H111        2.8890    2.6820   -4.7570 hc        1 WS6      0.064367
     25 H112        4.5550    2.7490   -4.0370 hc        1 WS6      0.064367
     26 H113        3.0960    3.0940   -3.0080 hc        1 WS6      0.064367
     27 H081        3.8680   -0.3900   -6.7020 hc        1 WS6      0.067200
     28 H082        3.5000    1.3390   -6.3390 hc        1 WS6      0.067200
     29 H071        1.7620   -1.1480   -5.6850 hc        1 WS6      0.090700
     30 H072        1.4080    0.1740   -6.8760 hc        1 WS6      0.090700
     31 H03         1.4590   -0.8020    1.9950 hn        1 WS6      0.352500
     32 H023        5.0440   -0.0820    2.2940 hn        1 WS6      0.484133
@<TRIPOS>BOND
     1    1    2 2   
     2    2    3 1   
     3    2    8 1   
     4    3    4 1   
     5    3   31 1   
     6    4    5 1   
     7    4    6 2   
     8    5   19 1   
     9    5   20 1   
    10    5   32 1   
    11    6    7 1   
    12    7    8 2   
    13    7   10 1   
    14    8    9 1   
    15    9   14 2   
    16   10   11 1   
    17   10   21 1   
    18   11   12 1   
    19   11   13 1   
    20   11   14 1   
    21   12   18 1   
    22   12   22 1   
    23   12   23 1   
    24   13   24 1   
    25   13   25 1   
    26   13   26 1   
    27   14   15 1   
    28   15   16 2   
    29   15   17 1   
    30   17   18 1   
    31   17   29 1   
    32   17   30 1   
    33   18   27 1   
    34   18   28 1   
@<TRIPOS>SUBSTRUCTURE
     1 WS6         1 TEMP              0 ****  ****    0 ROOT
