@<TRIPOS>MOLECULE
WS6
   32    34     1     0     0
SMALL
bcc


@<TRIPOS>ATOM
      1 O04        -0.0360   -0.5980    0.0580 o         1 WS6     -0.503500
      2 C04         1.1610   -0.3420   -0.0460 c         1 WS6      0.745700
      3 N03         1.9210   -0.4740    1.1780 n         1 WS6     -0.499400
      4 C02         3.2760   -0.2140    1.1600 cc        1 WS6      0.567800
      5 N02         4.0360   -0.3560    2.4540 n4        1 WS6     -0.810600
      6 N01         4.0080    0.1570    0.1190 nd        1 WS6     -0.628300
      7 C01         3.3290    0.3060   -1.1130 cd        1 WS6      0.407600
      8 C4A         1.9340    0.0730   -1.2160 cc        1 WS6     -0.096600
      9 N05         1.2400    0.2210   -2.4220 ne        1 WS6     -0.445300
     10 N10         4.0570    0.6550   -2.2190 nh        1 WS6     -0.727000
     11 C9A         3.4040    0.9520   -3.5060 c3        1 WS6      0.175900
     12 C09         4.0610    0.0990   -4.6200 c3        1 WS6     -0.092400
     13 C11         3.5530    2.4460   -3.8410 c3        1 WS6     -0.122100
     14 C5A         1.9070    0.6150   -3.4630 cf        1 WS6      0.336300
     15 C06         1.2230    0.7590   -4.7990 c         1 WS6      0.496800
     16 O06         0.2340    1.4670   -4.9520 o         1 WS6     -0.455100
     17 C07         1.8880   -0.0290   -5.8870 c3        1 WS6     -0.178400
     18 C08         3.3700    0.2720   -5.9550 c3        1 WS6     -0.076400
     19 H021        3.9570   -1.3220    2.7940 hn        1 WS6      0.484133
     20 H022        3.6520    0.2930    3.1500 hn        1 WS6      0.484133
     21 H10         5.0290    0.8560   -2.1540 hn        1 WS6      0.465800
     22 H091        5.1380    0.3960   -4.7230 hc        1 WS6      0.062200
     23 H092        4.0290   -0.9840   -4.3270 hc        1 WS6      0.062200
     24 H111        2.9550    2.6780   -4.7570 hc        1 WS6      0.064367
     25 H112        4.6220    2.6990   -4.0370 hc        1 WS6      0.064367
     26 H113        3.1730    3.0860   -3.0090 hc        1 WS6      0.064367
     27 H081        3.5270    1.3160   -6.3370 hc        1 WS6      0.067200
     28 H082        3.8470   -0.4240   -6.6970 hc        1 WS6      0.067200
     29 H071        1.7210   -1.1210   -5.6790 hc        1 WS6      0.090700
     30 H072        1.4030    0.2090   -6.8720 hc        1 WS6      0.090700
     31 H03         1.4290   -0.7530    2.0010 hn        1 WS6      0.352500
     32 H023        5.0320   -0.1350    2.2980 hn        1 WS6      0.484133
@<TRIPOS>BOND
     1    1    2 2   
     2    2    3 1   
     3    2    8 1   
     4    3    4 1   
     5    3   31 1   
     6    4    5 1   
     7    4    6 2   
     8    5   19 1   
     9    5   20 1   
    10    5   32 1   
    11    6    7 1   
    12    7    8 2   
    13    7   10 1   
    14    8    9 1   
    15    9   14 2   
    16   10   11 1   
    17   10   21 1   
    18   11   12 1   
    19   11   13 1   
    20   11   14 1   
    21   12   18 1   
    22   12   22 1   
    23   12   23 1   
    24   13   24 1   
    25   13   25 1   
    26   13   26 1   
    27   14   15 1   
    28   15   16 2   
    29   15   17 1   
    30   17   18 1   
    31   17   29 1   
    32   17   30 1   
    33   18   27 1   
    34   18   28 1   
@<TRIPOS>SUBSTRUCTURE
     1 WS6         1 TEMP              0 ****  ****    0 ROOT
