@<TRIPOS>MOLECULE
WS7
   33    35     1     0     0
SMALL
bcc


@<TRIPOS>ATOM
      1 O04        -0.1170    0.1240    0.1850 o         1 WS7     -0.514500
      2 C04         1.1000    0.0640    0.0240 c         1 WS7      0.742700
      3 N03         1.8760    0.0650    1.2420 ns        1 WS7     -0.498400
      4 C02         3.2540    0.0090    1.1620 cc        1 WS7      0.552800
      5 N02         4.0320    0.0020    2.4530 nz        1 WS7     -0.807600
      6 N01         3.9920   -0.0380    0.0620 nd        1 WS7     -0.621300
      7 C1A         3.2960   -0.0430   -1.1680 cd        1 WS7      0.389600
      8 C4A         1.8790   -0.0070   -1.2130 cc        1 WS7     -0.071600
      9 N05         1.1710   -0.0640   -2.4150 ne        1 WS7     -0.504300
     10 N10         4.0170   -0.1210   -2.3300 nu        1 WS7     -0.734000
     11 C9A         3.3700    0.0320   -3.6460 c3        1 WS7      0.167900
     12 C09         3.8870   -1.0900   -4.5800 c3        1 WS7     -0.086400
     13 C10         3.7290    1.4040   -4.2440 c3        1 WS7     -0.120100
     14 C5A         1.8370   -0.0620   -3.5330 c2        1 WS7      0.432300
     15 C06         1.1090   -0.1400   -4.8470 c3        1 WS7     -0.120700
     16 C07         1.6570   -1.2620   -5.7030 c3        1 WS7     -0.082400
     17 C08         3.1500   -1.1300   -5.9010 c3        1 WS7     -0.082400
     18 H021        3.8300    0.8600    2.9790 hn        1 WS7      0.482133
     19 H022        5.0430   -0.0380    2.2480 hn        1 WS7      0.482133
     20 H10         5.0110   -0.1380   -2.3170 hn        1 WS7      0.462800
     21 H091        4.9810   -0.9290   -4.7710 hc        1 WS7      0.057700
     22 H092        3.7690   -2.0830   -4.0700 hc        1 WS7      0.057700
     23 H101        3.3330    2.2310   -3.6080 hc        1 WS7      0.059700
     24 H102        4.8370    1.5150   -4.3350 hc        1 WS7      0.059700
     25 H103        3.2830    1.4950   -5.2630 hc        1 WS7      0.059700
     26 H081        3.5270   -2.0060   -6.4930 hc        1 WS7      0.058700
     27 H082        3.3760   -0.2080   -6.4990 hc        1 WS7      0.058700
     28 H061        0.0070   -0.2950   -4.6880 hc        1 WS7      0.080700
     29 H062        1.2350    0.8470   -5.3700 hc        1 WS7      0.080700
     30 H071        1.4230   -2.2500   -5.2250 hc        1 WS7      0.063200
     31 H072        1.1420   -1.2430   -6.7000 hc        1 WS7      0.063200
     32 H03         1.3810    0.1010    2.1080 hn        1 WS7      0.350500
     33 H023        3.7680   -0.8210    3.0070 hn        1 WS7      0.482133
@<TRIPOS>BOND
     1    1    2 2   
     2    2    3 1   
     3    2    8 1   
     4    3    4 1   
     5    3   32 1   
     6    4    5 1   
     7    4    6 2   
     8    5   18 1   
     9    5   19 1   
    10    5   33 1   
    11    6    7 1   
    12    7    8 2   
    13    7   10 1   
    14    8    9 1   
    15    9   14 2   
    16   10   11 1   
    17   10   20 1   
    18   11   12 1   
    19   11   13 1   
    20   11   14 1   
    21   12   17 1   
    22   12   21 1   
    23   12   22 1   
    24   13   23 1   
    25   13   24 1   
    26   13   25 1   
    27   14   15 1   
    28   15   16 1   
    29   15   28 1   
    30   15   29 1   
    31   16   17 1   
    32   16   30 1   
    33   16   31 1   
    34   17   26 1   
    35   17   27 1   
@<TRIPOS>SUBSTRUCTURE
     1 WS7         1 TEMP              0 ****  ****    0 ROOT
