@<TRIPOS>MOLECULE
WS7
   33    35     1     0     0
SMALL
bcc


@<TRIPOS>ATOM
      1 O04        -0.1140    0.1280    0.1880 o         1 WS7     -0.514500
      2 C04         1.1030    0.0670    0.0260 c         1 WS7      0.742700
      3 N03         1.8810    0.0670    1.2430 n         1 WS7     -0.498400
      4 C02         3.2590    0.0090    1.1620 cc        1 WS7      0.552800
      5 N02         4.0380    0.0020    2.4510 n4        1 WS7     -0.807600
      6 N01         3.9950   -0.0390    0.0610 nd        1 WS7     -0.621300
      7 C1A         3.2970   -0.0430   -1.1680 cd        1 WS7      0.389600
      8 C4A         1.8810   -0.0050   -1.2120 cc        1 WS7     -0.071600
      9 N05         1.1710   -0.0620   -2.4130 ne        1 WS7     -0.504300
     10 N10         4.0170   -0.1220   -2.3310 nh        1 WS7     -0.734000
     11 C9A         3.3690    0.0310   -3.6470 c3        1 WS7      0.167900
     12 C09         3.8830   -1.0920   -4.5810 c3        1 WS7     -0.086400
     13 C10         3.7290    1.4020   -4.2450 c3        1 WS7     -0.120100
     14 C5A         1.8360   -0.0610   -3.5320 c2        1 WS7      0.432300
     15 C06         1.1070   -0.1380   -4.8450 c3        1 WS7     -0.120700
     16 C07         1.6520   -1.2610   -5.7020 c3        1 WS7     -0.082400
     17 C08         3.1450   -1.1310   -5.9010 c3        1 WS7     -0.082400
     18 H021        3.8370    0.8590    2.9780 hn        1 WS7      0.482133
     19 H022        5.0480   -0.0400    2.2460 hn        1 WS7      0.482133
     20 H10         5.0110   -0.1410   -2.3200 hn        1 WS7      0.462800
     21 H091        3.7640   -2.0850   -4.0710 hc        1 WS7      0.057700
     22 H092        4.9770   -0.9330   -4.7740 hc        1 WS7      0.057700
     23 H101        4.8370    1.5120   -4.3380 hc        1 WS7      0.059700
     24 H102        3.3350    2.2300   -3.6100 hc        1 WS7      0.059700
     25 H103        3.2820    1.4940   -5.2640 hc        1 WS7      0.059700
     26 H081        3.5200   -2.0080   -6.4940 hc        1 WS7      0.058700
     27 H082        3.3710   -0.2100   -6.5000 hc        1 WS7      0.058700
     28 H061        0.0050   -0.2920   -4.6850 hc        1 WS7      0.080700
     29 H062        1.2330    0.8490   -5.3690 hc        1 WS7      0.080700
     30 H071        1.4170   -2.2480   -5.2230 hc        1 WS7      0.063200
     31 H072        1.1360   -1.2410   -6.6980 hc        1 WS7      0.063200
     32 H03         1.3860    0.1040    2.1100 hn        1 WS7      0.350500
     33 H023        3.7740   -0.8210    3.0060 hn        1 WS7      0.482133
@<TRIPOS>BOND
     1    1    2 2   
     2    2    3 1   
     3    2    8 1   
     4    3    4 1   
     5    3   32 1   
     6    4    5 1   
     7    4    6 2   
     8    5   18 1   
     9    5   19 1   
    10    5   33 1   
    11    6    7 1   
    12    7    8 2   
    13    7   10 1   
    14    8    9 1   
    15    9   14 2   
    16   10   11 1   
    17   10   20 1   
    18   11   12 1   
    19   11   13 1   
    20   11   14 1   
    21   12   17 1   
    22   12   21 1   
    23   12   22 1   
    24   13   23 1   
    25   13   24 1   
    26   13   25 1   
    27   14   15 1   
    28   15   16 1   
    29   15   28 1   
    30   15   29 1   
    31   16   17 1   
    32   16   30 1   
    33   16   31 1   
    34   17   26 1   
    35   17   27 1   
@<TRIPOS>SUBSTRUCTURE
     1 WS7         1 TEMP              0 ****  ****    0 ROOT
