@<TRIPOS>MOLECULE
WSA
   61    65     1     0     0
SMALL
bcc


@<TRIPOS>ATOM
      1 CD2        -4.1920    2.0620   -0.1300 ca        1 WSA     -0.094800
      2 CE3        -3.0950    2.8310    0.2640 ca        1 WSA     -0.103000
      3 CZ3        -3.2970    4.1560    0.6190 ca        1 WSA     -0.160000
      4 CH2        -4.5800    4.7340    0.5880 ca        1 WSA     -0.112000
      5 CZ2        -5.6950    4.0080    0.1990 ca        1 WSA     -0.139000
      6 CE2        -5.5060    2.6660   -0.1650 ca        1 WSA     -0.046200
      7 N11        -6.4160    1.6950   -0.5930 na        1 WSA     -0.189400
      8 CD1        -5.7160    0.5130   -0.8390 cc        1 WSA     -0.090100
      9 CG         -4.3590    0.6880   -0.5610 cd        1 WSA     -0.156400
     10 CB         -3.2970   -0.3130   -0.7090 c3        1 WSA     -0.041200
     11 CA         -2.9690   -0.9940    0.6350 c3        1 WSA      0.106500
     12 NH3        -2.5390   -0.1090    1.6980 n3        1 WSA     -0.911800
     13 C          -1.9190   -2.0910    0.3680 c         1 WSA      0.687100
     14 O          -1.5050   -2.3510   -0.7700 o         1 WSA     -0.558100
     15 NS         -1.4440   -2.8230    1.4620 n         1 WSA     -0.702300
     16 S          -0.4780   -4.1390    1.4560 s6        1 WSA      1.702100
     17 O1S        -0.0520   -4.3640    2.7620 o         1 WSA     -0.636300
     18 O2S        -0.9510   -5.1760    0.6810 o         1 WSA     -0.636300
     19 O5'         0.9120   -3.6530    0.6580 os        1 WSA     -0.549500
     20 C5'         1.8760   -2.8260    1.2620 c3        1 WSA      0.165400
     21 C4'         3.1110   -2.8310    0.3590 c3        1 WSA      0.093100
     22 O4'         2.8420   -2.1240   -0.8590 os        1 WSA     -0.385600
     23 C3'         4.3110   -2.1490    1.0540 c3        1 WSA      0.128100
     24 O3'         5.4500   -2.9700    1.0440 oh        1 WSA     -0.570800
     25 C2'         4.5000   -0.8090    0.3080 c3        1 WSA      0.081100
     26 O2'         5.7890   -0.7940   -0.2640 oh        1 WSA     -0.590800
     27 C1'         3.4360   -0.8260   -0.8410 c3        1 WSA      0.217800
     28 N9          2.4170    0.1930   -0.7060 na        1 WSA     -0.291000
     29 C8          1.0110    0.0430   -0.7650 cc        1 WSA      0.426700
     30 N7          0.3490    1.2090   -0.6920 nd        1 WSA     -0.572100
     31 C5          1.3430    2.1950   -0.6020 ca        1 WSA     -0.223200
     32 C4          2.6620    1.5710   -0.6150 ca        1 WSA      0.447800
     33 N3          3.8370    2.2680   -0.5530 nb        1 WSA     -0.755000
     34 C2          3.6420    3.6070   -0.4880 ca        1 WSA      0.688900
     35 N1          2.4870    4.3230   -0.4770 nb        1 WSA     -0.790000
     36 C6          1.3010    3.6280   -0.5250 ca        1 WSA      0.753200
     37 N6          0.0970    4.2850   -0.4530 nh        1 WSA     -0.949500
     38 HE3        -2.0900    2.3820    0.2830 ha        1 WSA      0.143000
     39 HZ3        -2.4430    4.7720    0.9390 ha        1 WSA      0.131000
     40 HH2        -4.6970    5.7880    0.8800 ha        1 WSA      0.133000
     41 HZ2        -6.6920    4.4670    0.1740 ha        1 WSA      0.135000
     42 HN11       -7.3770    1.8420   -0.7490 hn        1 WSA      0.302700
     43 HD1        -6.2370   -0.3770   -1.2000 h4        1 WSA      0.170000
     44 HB1        -3.6050   -1.1080   -1.4410 hc        1 WSA      0.077200
     45 HB2        -2.3670    0.1710   -1.1160 hc        1 WSA      0.077200
     46 HA         -3.9020   -1.5270    0.9950 h1        1 WSA      0.081700
     47 HH31       -1.7460    0.4320    1.4040 hn        1 WSA      0.369300
     48 HH32       -3.2850    0.5200    1.9300 hn        1 WSA      0.369300
     49 HNS        -1.7330   -2.4490    2.3450 hn        1 WSA      0.360500
     50 H5'1        1.4620   -1.7850    1.3510 h1        1 WSA      0.050200
     51 H5'2        2.1410   -3.2330    2.2770 h1        1 WSA      0.050200
     52 H4'         3.3490   -3.8820    0.0360 h1        1 WSA      0.115700
     53 H3'         4.1050   -1.9680    2.1450 h1        1 WSA      0.093700
     54 HO3'        5.8180   -2.9680    0.1490 ho        1 WSA      0.426000
     55 H2'         4.3640    0.0550    1.0090 h1        1 WSA      0.083700
     56 HO2'        5.9800    0.1250   -0.4990 ho        1 WSA      0.434000
     57 H1'         3.9350   -0.7050   -1.8510 h2        1 WSA      0.106700
     58 H8          0.5560   -0.9550   -0.8800 h5        1 WSA      0.105800
     59 H2          4.5670    4.2210   -0.4430 h5        1 WSA      0.053100
     60 HN61       -0.7260    3.7770   -0.6770 hn        1 WSA      0.442800
     61 HN62        0.0750    5.2730   -0.5410 hn        1 WSA      0.442800
@<TRIPOS>BOND
     1    1    2 ar  
     2    1    6 ar  
     3    1    9 1   
     4    2    3 ar  
     5    2   38 1   
     6    3    4 ar  
     7    3   39 1   
     8    4    5 ar  
     9    4   40 1   
    10    5    6 ar  
    11    5   41 1   
    12    6    7 1   
    13    7    8 1   
    14    7   42 1   
    15    8    9 2   
    16    8   43 1   
    17    9   10 1   
    18   10   11 1   
    19   10   44 1   
    20   10   45 1   
    21   11   12 1   
    22   11   13 1   
    23   11   46 1   
    24   12   47 1   
    25   12   48 1   
    26   13   14 2   
    27   13   15 1   
    28   15   16 1   
    29   15   49 1   
    30   16   17 2   
    31   16   18 2   
    32   16   19 1   
    33   19   20 1   
    34   20   21 1   
    35   20   50 1   
    36   20   51 1   
    37   21   22 1   
    38   21   23 1   
    39   21   52 1   
    40   22   27 1   
    41   23   24 1   
    42   23   25 1   
    43   23   53 1   
    44   24   54 1   
    45   25   26 1   
    46   25   27 1   
    47   25   55 1   
    48   26   56 1   
    49   27   28 1   
    50   27   57 1   
    51   28   29 1   
    52   28   32 1   
    53   29   30 2   
    54   29   58 1   
    55   30   31 1   
    56   31   32 ar  
    57   31   36 ar  
    58   32   33 ar  
    59   33   34 ar  
    60   34   35 ar  
    61   34   59 1   
    62   35   36 ar  
    63   36   37 1   
    64   37   60 1   
    65   37   61 1   
@<TRIPOS>SUBSTRUCTURE
     1 WSA         1 TEMP              0 ****  ****    0 ROOT
