@<TRIPOS>MOLECULE
WSA
   63    66     1     0     0
SMALL
bcc


@<TRIPOS>ATOM
      1 CD2         0.3410    2.2560    0.5040 ca        1 WSA     -0.119800
      2 CE3         1.6480    1.8870    0.8410 ca        1 WSA     -0.153000
      3 CZ3         2.3570    2.6750    1.7320 ca        1 WSA     -0.112000
      4 CH2         1.7900    3.8340    2.2990 ca        1 WSA     -0.101000
      5 CZ2         0.5060    4.2450    1.9800 ca        1 WSA     -0.108000
      6 CE2        -0.2230    3.4570    1.0730 ca        1 WSA     -0.047200
      7 N11        -1.5160    3.6160    0.5550 na        1 WSA     -0.160400
      8 CD1        -1.7720    2.5760   -0.3220 cc        1 WSA     -0.038100
      9 CG         -0.6740    1.7040   -0.3710 cd        1 WSA     -0.265400
     10 CB         -0.5330    0.5090   -1.2030 c3        1 WSA     -0.001200
     11 CA         -0.8410   -0.7830   -0.4200 c3        1 WSA      0.033500
     12 NH3        -0.1060   -0.8230    0.8870 nz        1 WSA     -0.831600
     13 C          -0.4420   -2.0120   -1.2760 c         1 WSA      0.643100
     14 O           0.5440   -2.6990   -0.9310 o         1 WSA     -0.616100
     15 NS         -1.1920   -2.2940   -2.3690 nt        1 WSA     -0.626000
     16 S          -1.6240   -5.7640   -5.0970 s6        1 WSA      1.832000
     17 O1S        -1.7230   -7.0050   -4.5640 o         1 WSA     -0.640800
     18 O2S        -1.2420   -4.6460   -4.4240 o         1 WSA     -0.640800
     19 O5'        -2.9130   -5.3930   -6.0510 os        1 WSA     -0.542500
     20 C5'        -2.6730   -5.2460   -7.4360 c3        1 WSA      0.145400
     21 C4'        -1.2090   -5.6700   -7.6980 c3        1 WSA      0.094100
     22 O4'        -0.6240   -5.9690   -6.4470 os        1 WSA     -0.597500
     23 C3'        -1.1500   -6.9190   -8.5980 c3        1 WSA      0.147100
     24 O3'        -1.8080   -6.6750   -9.8140 oh        1 WSA     -0.553800
     25 C2'         0.3170   -7.3340   -8.8900 c3        1 WSA      0.014800
     26 O2'         0.9240   -6.2370   -9.5460 oh        1 WSA     -0.586800
     27 C1'         1.0650   -7.5560   -7.5960 c2        1 WSA      0.445200
     28 N9          1.0540   -8.6300   -6.8560 na        1 WSA     -0.222000
     29 C8          1.8100   -8.8440   -5.5930 cc        1 WSA      0.384700
     30 N7          1.6370  -10.0390   -5.0810 nd        1 WSA     -0.394100
     31 C5          0.7570  -10.7350   -5.9400 ca        1 WSA     -0.273200
     32 C4          0.3620   -9.8980   -7.0580 ca        1 WSA      0.467800
     33 N3         -0.4630  -10.2620   -8.0410 nb        1 WSA     -0.725000
     34 C2         -0.9200  -11.5670   -7.8890 ca        1 WSA      0.732900
     35 N1         -0.6480  -12.4460   -6.9270 nb        1 WSA     -0.714000
     36 C6          0.2180  -12.0630   -5.8910 ca        1 WSA      0.801200
     37 N6          0.5240  -12.9210   -4.8950 nv        1 WSA     -0.893500
     38 HE3         2.1210    1.0160    0.3650 ha        1 WSA      0.120000
     39 HZ3         3.3920    2.4070    2.0000 ha        1 WSA      0.152000
     40 HH2         2.3920    4.4340    3.0020 ha        1 WSA      0.160000
     41 HZ2         0.0750    5.1600    2.4130 ha        1 WSA      0.160000
     42 HN11       -2.1060    4.3910    0.7270 hn        1 WSA      0.324700
     43 HD1        -2.7220    2.5190   -0.8640 h4        1 WSA      0.181000
     44 HB1        -1.2450    0.5450   -2.0720 hc        1 WSA      0.086200
     45 HB2         0.5120    0.4520   -1.6180 hc        1 WSA      0.086200
     46 HA         -1.9430   -0.8190   -0.1740 hx        1 WSA      0.116700
     47 HH31        0.8660   -1.1210    0.7150 hn        1 WSA      0.473133
     48 HH32       -0.1050    0.1170    1.3140 hn        1 WSA      0.473133
     49 HNS        -0.9420   -3.0670   -2.9510 hn        1 WSA      0.347500
     50 H5'1       -2.8430   -4.1690   -7.7000 h1        1 WSA      0.108200
     51 H5'2       -3.4060   -5.9040   -7.9780 h1        1 WSA      0.108200
     52 H4'        -0.6160   -4.8330   -8.1620 h1        1 WSA      0.111700
     53 H3'        -1.7020   -7.7840   -8.1330 h1        1 WSA      0.118700
     54 HO3'       -1.3320   -5.9710  -10.2830 ho        1 WSA      0.432000
     55 H2'         0.3080   -8.2580   -9.5400 h1        1 WSA      0.137700
     56 HO2'        1.4990   -6.5800  -10.2450 ho        1 WSA      0.448000
     57 H1'         1.6840   -6.6870   -7.2520 h4        1 WSA      0.085800
     58 H8          2.4320   -8.0260   -5.2000 h5        1 WSA      0.113800
     59 H2         -1.6130  -11.9110   -8.6950 h5        1 WSA      0.099100
     60 HN61        0.1460  -13.8430   -4.8760 hn        1 WSA      0.478300
     61 HN62        1.1410  -12.6360   -4.1690 hn        1 WSA      0.478300
     62 HH33       -0.5450   -1.4990    1.5150 hn        1 WSA      0.473133
     63 HS2        -1.9480   -1.7170   -2.6420 hn        1 WSA      0.347500
@<TRIPOS>BOND
     1    1    2 ar  
     2    1    6 ar  
     3    1    9 1   
     4    2    3 ar  
     5    2   38 1   
     6    3    4 ar  
     7    3   39 1   
     8    4    5 ar  
     9    4   40 1   
    10    5    6 ar  
    11    5   41 1   
    12    6    7 1   
    13    7    8 1   
    14    7   42 1   
    15    8    9 2   
    16    8   43 1   
    17    9   10 1   
    18   10   11 1   
    19   10   44 1   
    20   10   45 1   
    21   11   12 1   
    22   11   13 1   
    23   11   46 1   
    24   12   47 1   
    25   12   48 1   
    26   12   62 1   
    27   13   14 2   
    28   13   15 1   
    29   15   49 1   
    30   15   63 1   
    31   16   17 2   
    32   16   18 2   
    33   16   19 1   
    34   16   22 1   
    35   19   20 1   
    36   20   21 1   
    37   20   50 1   
    38   20   51 1   
    39   21   22 1   
    40   21   23 1   
    41   21   52 1   
    42   23   24 1   
    43   23   25 1   
    44   23   53 1   
    45   24   54 1   
    46   25   26 1   
    47   25   27 1   
    48   25   55 1   
    49   26   56 1   
    50   27   28 2   
    51   27   57 1   
    52   28   29 1   
    53   28   32 1   
    54   29   30 2   
    55   29   58 1   
    56   30   31 1   
    57   31   32 ar  
    58   31   36 ar  
    59   32   33 ar  
    60   33   34 ar  
    61   34   35 ar  
    62   34   59 1   
    63   35   36 ar  
    64   36   37 1   
    65   37   60 1   
    66   37   61 1   
@<TRIPOS>SUBSTRUCTURE
     1 WSA         1 TEMP              0 ****  ****    0 ROOT
