@<TRIPOS>MOLECULE
WSA
   63    66     1     0     0
SMALL
bcc


@<TRIPOS>ATOM
      1 CD2         0.5720    2.1360    0.6350 ca        1 WSA     -0.119800
      2 CE3         1.6680    1.5080    1.2370 ca        1 WSA     -0.153000
      3 CZ3         2.3120    2.1450    2.2860 ca        1 WSA     -0.112000
      4 CH2         1.8850    3.4040    2.7520 ca        1 WSA     -0.101000
      5 CZ2         0.8150    4.0680    2.1750 ca        1 WSA     -0.108000
      6 CE2         0.1560    3.4360    1.1070 ca        1 WSA     -0.047200
      7 N11        -0.9300    3.8530    0.3250 na        1 WSA     -0.160400
      8 CD1        -1.1960    2.8770   -0.6200 cc        1 WSA     -0.038100
      9 CG         -0.3180    1.7950   -0.4570 cd        1 WSA     -0.265400
     10 CB         -0.2470    0.5850   -1.2760 c3        1 WSA     -0.001200
     11 CA         -0.9780   -0.6040   -0.6200 c3        1 WSA      0.033500
     12 NH3        -0.5710   -0.7770    0.8130 n4        1 WSA     -0.831600
     13 C          -0.6630   -1.9010   -1.4080 c         1 WSA      0.643100
     14 O           0.0640   -2.7710   -0.8800 o         1 WSA     -0.615100
     15 NS         -1.1990   -2.0380   -2.6450 n         1 WSA     -0.627000
     16 S          -1.6140   -5.6870   -5.1370 s6        1 WSA      1.832000
     17 O1S        -1.5840   -6.8910   -4.5180 o         1 WSA     -0.640300
     18 O2S        -1.2290   -4.5050   -4.5850 o         1 WSA     -0.640300
     19 O5'        -3.0160   -5.4510   -5.9670 os        1 WSA     -0.542500
     20 C5'        -2.9320   -5.3880   -7.3760 c3        1 WSA      0.145400
     21 C4'        -1.4810   -5.7530   -7.7680 c3        1 WSA      0.094100
     22 O4'        -0.7510   -5.9340   -6.5720 os        1 WSA     -0.597500
     23 C3'        -1.4430   -7.0560   -8.5900 c3        1 WSA      0.147100
     24 O3'        -2.2400   -6.9310   -9.7390 oh        1 WSA     -0.553800
     25 C2'         0.0060   -7.4130   -9.0130 c3        1 WSA      0.014800
     26 O2'         0.4750   -6.3340   -9.7980 oh        1 WSA     -0.586800
     27 C1'         0.8980   -7.5060   -7.7970 c2        1 WSA      0.445200
     28 N9          1.0300   -8.5270   -6.9950 na        1 WSA     -0.222000
     29 C8          1.9260   -8.6140   -5.8100 cc        1 WSA      0.384700
     30 N7          1.8800   -9.7790   -5.2100 nd        1 WSA     -0.394100
     31 C5          0.9580  -10.5770   -5.9230 ca        1 WSA     -0.273200
     32 C4          0.3980   -9.8400   -7.0410 ca        1 WSA      0.467800
     33 N3         -0.5040  -10.3130   -7.9040 nb        1 WSA     -0.725000
     34 C2         -0.8630  -11.6270   -7.6220 ca        1 WSA      0.732900
     35 N1         -0.4390  -12.4240   -6.6430 nb        1 WSA     -0.714000
     36 C6          0.5070  -11.9250   -5.7340 ca        1 WSA      0.801200
     37 N6          0.9680  -12.6960   -4.7250 nh        1 WSA     -0.893500
     38 HE3         2.0450    0.5520    0.8470 ha        1 WSA      0.120000
     39 HZ3         3.1850    1.6710    2.7630 ha        1 WSA      0.152000
     40 HH2         2.4280    3.8750    3.5880 ha        1 WSA      0.160000
     41 HZ2         0.4980    5.0590    2.5330 ha        1 WSA      0.160000
     42 HN11       -1.3710    4.7360    0.3900 hn        1 WSA      0.324700
     43 HD1        -1.9950    3.0110   -1.3570 h4        1 WSA      0.181000
     44 HB1        -0.7290    0.7560   -2.2770 hc        1 WSA      0.086200
     45 HB2         0.8290    0.3060   -1.4550 hc        1 WSA      0.086200
     46 HA         -2.0910   -0.4060   -0.6200 hx        1 WSA      0.116700
     47 HH31        0.3330   -1.2720    0.8470 hn        1 WSA      0.473133
     48 HH32       -0.4710    0.1490    1.2600 hn        1 WSA      0.473133
     49 HNS        -1.7440   -1.3220   -3.0560 hn        1 WSA      0.347000
     50 H5'1       -3.1920   -4.3420   -7.6880 h1        1 WSA      0.107700
     51 H5'2       -3.6770   -6.1180   -7.7930 h1        1 WSA      0.107700
     52 H4'        -0.9900   -4.9200   -8.3470 h1        1 WSA      0.111700
     53 H3'        -1.8910   -7.9140   -8.0130 h1        1 WSA      0.118700
     54 HO3'       -1.8590   -6.2380  -10.3000 ho        1 WSA      0.432000
     55 H2'        -0.0170   -8.3790   -9.5990 h1        1 WSA      0.137700
     56 HO2'        0.9930   -6.6940  -10.5330 ho        1 WSA      0.448000
     57 H1'         1.4970   -6.5850   -7.5770 h4        1 WSA      0.085800
     58 H8          2.5360   -7.7390   -5.5400 h5        1 WSA      0.112800
     59 H2         -1.6150  -12.0620   -8.3250 h5        1 WSA      0.098100
     60 HN61        0.6500  -13.6340   -4.6080 hn        1 WSA      0.478300
     61 HN62        1.6400  -12.3300   -4.0900 hn        1 WSA      0.478300
     62 HH33       -1.2660   -1.3380    1.3090 hn        1 WSA      0.473133
     63 HS2        -0.9910   -2.8530   -3.1840 hn        1 WSA      0.347000
@<TRIPOS>BOND
     1    1    2 ar  
     2    1    6 ar  
     3    1    9 1   
     4    2    3 ar  
     5    2   38 1   
     6    3    4 ar  
     7    3   39 1   
     8    4    5 ar  
     9    4   40 1   
    10    5    6 ar  
    11    5   41 1   
    12    6    7 1   
    13    7    8 1   
    14    7   42 1   
    15    8    9 2   
    16    8   43 1   
    17    9   10 1   
    18   10   11 1   
    19   10   44 1   
    20   10   45 1   
    21   11   12 1   
    22   11   13 1   
    23   11   46 1   
    24   12   47 1   
    25   12   48 1   
    26   12   62 1   
    27   13   14 2   
    28   13   15 1   
    29   15   49 1   
    30   15   63 1   
    31   16   17 2   
    32   16   18 2   
    33   16   19 1   
    34   16   22 1   
    35   19   20 1   
    36   20   21 1   
    37   20   50 1   
    38   20   51 1   
    39   21   22 1   
    40   21   23 1   
    41   21   52 1   
    42   23   24 1   
    43   23   25 1   
    44   23   53 1   
    45   24   54 1   
    46   25   26 1   
    47   25   27 1   
    48   25   55 1   
    49   26   56 1   
    50   27   28 2   
    51   27   57 1   
    52   28   29 1   
    53   28   32 1   
    54   29   30 2   
    55   29   58 1   
    56   30   31 1   
    57   31   32 ar  
    58   31   36 ar  
    59   32   33 ar  
    60   33   34 ar  
    61   34   35 ar  
    62   34   59 1   
    63   35   36 ar  
    64   36   37 1   
    65   37   60 1   
    66   37   61 1   
@<TRIPOS>SUBSTRUCTURE
     1 WSA         1 TEMP              0 ****  ****    0 ROOT
