@<TRIPOS>MOLECULE
WSA
   61    65     1     0     0
SMALL
bcc


@<TRIPOS>ATOM
      1 CD2         0.7360   -1.4410   -0.4760 ca        1 WSA     -0.094800
      2 CE3         0.7340   -2.8280   -0.3190 ca        1 WSA     -0.103000
      3 CZ3         0.9870   -3.3610    0.9360 ca        1 WSA     -0.160000
      4 CH2         1.2450   -2.5330    2.0440 ca        1 WSA     -0.112000
      5 CZ2         1.2620   -1.1520    1.9310 ca        1 WSA     -0.139000
      6 CE2         1.0080   -0.5970    0.6660 ca        1 WSA     -0.046200
      7 N11         0.9570    0.7330    0.2430 na        1 WSA     -0.189400
      8 CD1         0.6760    0.7510   -1.1240 cc        1 WSA     -0.090100
      9 CG          0.5240   -0.5530   -1.6020 cd        1 WSA     -0.156400
     10 CB          0.2390   -0.9520   -2.9840 c3        1 WSA     -0.041200
     11 CA         -1.2620   -1.2370   -3.1950 c3        1 WSA      0.106500
     12 NH3        -1.8270   -2.2730   -2.3550 n3        1 WSA     -0.911800
     13 C          -1.4810   -1.5530   -4.6870 c         1 WSA      0.687100
     14 O          -0.5630   -1.5090   -5.5180 o         1 WSA     -0.558100
     15 NS         -2.7770   -1.8780   -5.1040 n         1 WSA     -0.702300
     16 S          -3.3270   -2.0830   -6.6280 s6        1 WSA      1.702100
     17 O1S        -4.5950   -2.6550   -6.5520 o         1 WSA     -0.636300
     18 O2S        -3.0890   -1.0080   -7.4570 o         1 WSA     -0.636300
     19 O5'        -2.3750   -3.3000   -7.2730 os        1 WSA     -0.549500
     20 C5'        -2.5440   -4.6520   -6.9250 c3        1 WSA      0.165400
     21 C4'        -1.7130   -5.4830   -7.9050 c3        1 WSA      0.093100
     22 O4'        -0.3130   -5.2910   -7.6610 os        1 WSA     -0.385600
     23 C3'        -2.0230   -6.9890   -7.7600 c3        1 WSA      0.128100
     24 O3'        -2.3520   -7.5710   -8.9950 oh        1 WSA     -0.570800
     25 C2'        -0.7650   -7.5960   -7.0980 c3        1 WSA      0.081100
     26 O2'        -0.2230   -8.5620   -7.9710 oh        1 WSA     -0.590800
     27 C1'         0.2440   -6.4070   -6.9670 c3        1 WSA      0.217800
     28 N9          0.5490   -6.0490   -5.5980 na        1 WSA     -0.291000
     29 C8          0.5150   -4.7690   -4.9950 cc        1 WSA      0.426700
     30 N7          0.9440   -4.7690   -3.7240 nd        1 WSA     -0.572100
     31 C5          1.3080   -6.0980   -3.4550 ca        1 WSA     -0.223200
     32 C4          1.0700   -6.9240   -4.6330 ca        1 WSA      0.447800
     33 N3          1.3360   -8.2640   -4.6920 nb        1 WSA     -0.755000
     34 C2          1.8560   -8.7390   -3.5360 ca        1 WSA      0.688900
     35 N1          2.1390   -8.0950   -2.3730 nb        1 WSA     -0.790000
     36 C6          1.8600   -6.7500   -2.3020 ca        1 WSA      0.753200
     37 N6          2.0620   -6.0510   -1.1370 nh        1 WSA     -0.949500
     38 HE3         0.5370   -3.4780   -1.1850 ha        1 WSA      0.143000
     39 HZ3         0.9810   -4.4520    1.0770 ha        1 WSA      0.131000
     40 HH2         1.4380   -2.9970    3.0230 ha        1 WSA      0.133000
     41 HZ2         1.4670   -0.5120    2.8000 ha        1 WSA      0.135000
     42 HN11        1.1450    1.5200    0.8050 hn        1 WSA      0.302700
     43 HD1         0.6050    1.6960   -1.6660 h4        1 WSA      0.170000
     44 HB1         0.8310   -1.8710   -3.2490 hc        1 WSA      0.077200
     45 HB2         0.5470   -0.1420   -3.6990 hc        1 WSA      0.077200
     46 HA         -1.8330   -0.2810   -2.9830 h1        1 WSA      0.081700
     47 HH31       -1.3140   -3.1290   -2.4620 hn        1 WSA      0.369300
     48 HH32       -1.7740   -1.9890   -1.3930 hn        1 WSA      0.369300
     49 HNS        -3.4140   -2.0200   -4.3440 hn        1 WSA      0.360500
     50 H5'1       -3.6310   -4.9320   -7.0100 h1        1 WSA      0.050200
     51 H5'2       -2.1790   -4.8080   -5.8740 h1        1 WSA      0.050200
     52 H4'        -1.8750   -5.1150   -8.9560 h1        1 WSA      0.115700
     53 H3'        -2.9310   -7.1610   -7.1170 h1        1 WSA      0.093700
     54 HO3'       -1.5390   -7.6690   -9.5100 ho        1 WSA      0.426000
     55 H2'        -1.0240   -8.0530   -6.1070 h1        1 WSA      0.083700
     56 HO2'        0.3900   -9.0970   -7.4490 ho        1 WSA      0.434000
     57 H1'         1.2140   -6.6440   -7.5020 h2        1 WSA      0.106700
     58 H8          0.1770   -3.8870   -5.5660 h5        1 WSA      0.105800
     59 H2          2.0970   -9.8250   -3.5330 h5        1 WSA      0.053100
     60 HN61        2.5710   -6.4730   -0.3970 hn        1 WSA      0.442800
     61 HN62        2.0300   -5.0590   -1.1770 hn        1 WSA      0.442800
@<TRIPOS>BOND
     1    1    2 ar  
     2    1    6 ar  
     3    1    9 1   
     4    2    3 ar  
     5    2   38 1   
     6    3    4 ar  
     7    3   39 1   
     8    4    5 ar  
     9    4   40 1   
    10    5    6 ar  
    11    5   41 1   
    12    6    7 1   
    13    7    8 1   
    14    7   42 1   
    15    8    9 2   
    16    8   43 1   
    17    9   10 1   
    18   10   11 1   
    19   10   44 1   
    20   10   45 1   
    21   11   12 1   
    22   11   13 1   
    23   11   46 1   
    24   12   47 1   
    25   12   48 1   
    26   13   14 2   
    27   13   15 1   
    28   15   16 1   
    29   15   49 1   
    30   16   17 2   
    31   16   18 2   
    32   16   19 1   
    33   19   20 1   
    34   20   21 1   
    35   20   50 1   
    36   20   51 1   
    37   21   22 1   
    38   21   23 1   
    39   21   52 1   
    40   22   27 1   
    41   23   24 1   
    42   23   25 1   
    43   23   53 1   
    44   24   54 1   
    45   25   26 1   
    46   25   27 1   
    47   25   55 1   
    48   26   56 1   
    49   27   28 1   
    50   27   57 1   
    51   28   29 1   
    52   28   32 1   
    53   29   30 2   
    54   29   58 1   
    55   30   31 1   
    56   31   32 ar  
    57   31   36 ar  
    58   32   33 ar  
    59   33   34 ar  
    60   34   35 ar  
    61   34   59 1   
    62   35   36 ar  
    63   36   37 1   
    64   37   60 1   
    65   37   61 1   
@<TRIPOS>SUBSTRUCTURE
     1 WSA         1 TEMP              0 ****  ****    0 ROOT
