@<TRIPOS>MOLECULE
WSA
   61    52     1     0     0
SMALL
bcc


@<TRIPOS>ATOM
      1 CD2         3.7920    5.2830    3.8840 c1        1 WSA     -0.042500
      2 CE3         2.9910    6.3750    4.3110 c1        1 WSA     -0.123500
      3 CZ3         3.4760    7.2610    5.2930 c1        1 WSA     -0.123500
      4 CH2         4.7570    7.0610    5.8520 c1        1 WSA     -0.123500
      5 CZ2         5.5480    5.9780    5.4260 c1        1 WSA     -0.123500
      6 CE2         5.0580    5.0870    4.4370 c1        1 WSA     -0.042500
      7 N11         5.5450    3.8640    3.9750 n1        1 WSA     -0.209000
      8 CD1         4.5890    3.3070    3.1420 c1        1 WSA     -0.055000
      9 CG          3.5000    4.1870    3.0850 c1        1 WSA     -0.180000
     10 CB          2.1510    3.7400    2.4650 c2        1 WSA     -0.095000
     11 CA          2.3110    3.5660    0.9940 c3        1 WSA     -0.029000
     12 NH3         2.0990    4.8340    0.3330 n3        1 WSA     -0.369000
     13 C           1.2850    2.5500    0.4830 c2        1 WSA      0.337000
     14 O           0.3930    2.9130   -0.2360 o         1 WSA     -0.349000
     15 NS          1.5090    1.1200    0.6910 n         1 WSA     -0.854000
     16 S           0.2020    0.0770    0.7830 s4        1 WSA      2.015800
     17 O1S        -0.4210    0.0890    2.1810 o         1 WSA     -0.540400
     18 O2S        -0.9400    0.5650   -0.0510 o         1 WSA     -0.540400
     19 O5'         0.6080   -1.2950    0.3890 o         1 WSA     -0.706000
     20 C5'        -0.4180   -2.2230    0.2980 c3        1 WSA      0.028000
     21 C4'        -0.6230   -2.6350   -1.2100 c3        1 WSA     -0.059000
     22 O4'        -1.2420   -3.7630   -1.2890 os        1 WSA     -0.259000
     23 C3'        -1.5490   -1.6170   -1.9260 c3        1 WSA     -0.018000
     24 O3'        -0.8390   -0.8760   -2.8220 oh        1 WSA     -0.324000
     25 C2'        -2.6070   -2.4630   -2.6580 c3        1 WSA      0.015000
     26 O2'        -2.7290   -2.0090   -4.0960 oh        1 WSA     -0.298000
     27 C1'        -2.1610   -3.6760   -2.6060 c3        1 WSA      0.114000
     28 N9         -3.2450   -4.5860   -2.5080 n3        1 WSA     -0.197000
     29 C8         -3.6650   -5.3010   -1.4320 c1        1 WSA     -0.059000
     30 N7         -4.4740   -6.3030   -1.8800 n2        1 WSA     -0.111000
     31 C5         -4.5540   -6.2050   -3.2480 c1        1 WSA     -0.248000
     32 C4         -3.7970   -5.1490   -3.6350 c1        1 WSA      0.084000
     33 N3         -3.7010   -4.8200   -4.9830 n1        1 WSA     -0.206000
     34 C2         -4.3780   -5.5700   -5.9270 c1        1 WSA      0.026000
     35 N1         -5.1380   -6.6330   -5.5370 n1        1 WSA     -0.271000
     36 C6         -5.2350   -6.9610   -4.2050 c1        1 WSA      0.243000
     37 N6         -6.2510   -7.9550   -4.0470 n3        1 WSA     -0.360000
     38 HE3         2.0930    6.5160    3.9190 ha        1 WSA      0.134750
     39 HZ3         2.9240    8.0150    5.5880 ha        1 WSA      0.134750
     40 HH2         5.0970    7.6780    6.5360 ha        1 WSA      0.134750
     41 HZ2         6.4560    5.8350    5.8220 ha        1 WSA      0.134750
     42 HN11        6.3920    3.4760    4.1960 DU        1 WSA      0.207667
     43 HD1         4.7050    2.4670    2.5790 DU        1 WSA      0.207667
     44 HB1         1.4680    4.4250    2.6400 ha        1 WSA      0.107000
     45 HB2         1.8830    2.9190    2.8520 ha        1 WSA      0.107000
     46 HA          3.2210    3.2410    0.8000 h1        1 WSA      0.111000
     47 HH31        2.8980    5.3380    0.3520 hn        1 WSA      0.173500
     48 HH32        1.8450    4.6850   -0.5560 hn        1 WSA      0.173500
     49 HNS         2.3660    0.7810    0.6620 hn        1 WSA      0.279000
     50 H5'1       -0.1850   -3.0330    0.8380 h1        1 WSA      0.107500
     51 H5'2       -1.2330   -1.8320    0.6400 h1        1 WSA      0.107500
     52 H4'         0.2270   -2.6890   -1.6620 h1        1 WSA      0.146000
     53 H3'        -1.9730   -1.0370   -1.2760 h1        1 WSA      0.115000
     54 HO3'       -0.7580   -0.0360   -2.5180 ho        1 WSA      0.245000
     55 H2'        -3.4640   -2.3980   -2.2100 h1        1 WSA      0.136000
     56 HO2'       -3.2900   -1.3060   -4.1400 ho        1 WSA      0.228000
     57 H1'        -1.6120   -3.8770   -3.4220 h2        1 WSA      0.174000
     58 H8         -3.4170   -5.1180   -0.4520 DU        1 WSA      0.207667
     59 H2         -4.3100   -5.3290   -6.9140 ha        1 WSA      0.189000
     60 HN61       -6.1270   -8.6420   -3.4680 hn        1 WSA      0.244500
     61 HN62       -7.0520   -7.8920   -4.5370 hn        1 WSA      0.244500
@<TRIPOS>BOND
     1    1    6 1   
     2    2    3 1   
     3    2   38 1   
     4    3   39 1   
     5    4    5 1   
     6    4   40 1   
     7    5   41 1   
     8    7    8 1   
     9    8    9 1   
    10   10   11 1   
    11   10   44 1   
    12   10   45 1   
    13   11   12 1   
    14   11   13 1   
    15   11   46 1   
    16   12   47 1   
    17   12   48 1   
    18   13   14 1   
    19   13   15 1   
    20   15   16 1   
    21   15   49 1   
    22   16   17 1   
    23   16   18 1   
    24   19   20 1   
    25   20   21 1   
    26   20   50 1   
    27   20   51 1   
    28   21   22 1   
    29   21   23 1   
    30   21   52 1   
    31   22   27 1   
    32   23   24 1   
    33   23   25 1   
    34   23   53 1   
    35   24   54 1   
    36   25   26 1   
    37   25   27 1   
    38   25   55 1   
    39   26   56 1   
    40   27   28 1   
    41   27   57 1   
    42   28   29 1   
    43   28   32 1   
    44   29   30 1   
    45   30   31 1   
    46   31   36 1   
    47   32   33 1   
    48   34   35 1   
    49   34   59 1   
    50   36   37 1   
    51   37   60 1   
    52   37   61 1   
@<TRIPOS>SUBSTRUCTURE
     1 WSA         1 TEMP              0 ****  ****    0 ROOT
