@<TRIPOS>MOLECULE
WSD
   31    32     1     0     0
SMALL
bcc


@<TRIPOS>ATOM
      1 O4A        -0.1160    0.2740   -0.2860 o         1 WSD     -0.510500
      2 C04         1.0990    0.1950   -0.1170 c         1 WSD      0.745700
      3 C4A         1.8790    0.2570    1.1180 cc        1 WSD     -0.095600
      4 N05         1.1730    0.3920    2.3180 ne        1 WSD     -0.467300
      5 N03         1.8730    0.0100   -1.3240 n         1 WSD     -0.498400
      6 C02         3.2470   -0.0870   -1.2350 cc        1 WSD      0.567800
      7 N02         4.0230   -0.2820   -2.5130 n4        1 WSD     -0.810600
      8 N01         3.9850   -0.0250   -0.1360 nd        1 WSD     -0.626300
      9 C8A         3.2940    0.1550    1.0850 cd        1 WSD      0.404600
     10 N08         4.0110    0.1770    2.2500 nh        1 WSD     -0.719000
     11 C07         3.3840    0.6050    3.5160 c3        1 WSD      0.174900
     12 C12         3.8570   -0.3110    4.6550 c3        1 WSD     -0.122600
     13 C11         3.7810    2.0520    3.8520 c3        1 WSD     -0.122600
     14 C06         1.8500    0.5330    3.4180 cf        1 WSD      0.338300
     15 C09         1.1000    0.6450    4.7260 c         1 WSD      0.507800
     16 O09         1.2700    1.6150    5.4640 o         1 WSD     -0.492100
     17 C10         0.1760   -0.4840    5.0180 c3        1 WSD     -0.194100
     18 H021        3.7260   -1.1560   -2.9630 hn        1 WSD      0.484133
     19 H022        3.8530    0.5120   -3.1410 hn        1 WSD      0.484133
     20 H08         5.0060    0.1440    2.2390 hn        1 WSD      0.464800
     21 H121        4.9700   -0.2870    4.7460 hc        1 WSD      0.067033
     22 H122        3.5290   -1.3650    4.4880 hc        1 WSD      0.067033
     23 H123        3.4180    0.0590    5.6150 hc        1 WSD      0.067033
     24 H111        3.4540    2.7560    3.0500 hc        1 WSD      0.067033
     25 H112        3.2870    2.3550    4.8090 hc        1 WSD      0.067033
     26 H113        4.8870    2.1330    3.9800 hc        1 WSD      0.067033
     27 H101       -0.6840   -0.4520    4.3010 hc        1 WSD      0.083367
     28 H102        0.7050   -1.4610    4.8980 hc        1 WSD      0.083367
     29 H103       -0.2200   -0.4050    6.0610 hc        1 WSD      0.083367
     30 H03         1.3760   -0.0430   -2.1890 hn        1 WSD      0.352500
     31 H023        5.0320   -0.3370   -2.3020 hn        1 WSD      0.484133
@<TRIPOS>BOND
     1    1    2 2   
     2    2    3 1   
     3    2    5 1   
     4    3    4 1   
     5    3    9 2   
     6    4   14 2   
     7    5    6 1   
     8    5   30 1   
     9    6    7 1   
    10    6    8 2   
    11    7   18 1   
    12    7   19 1   
    13    7   31 1   
    14    8    9 1   
    15    9   10 1   
    16   10   11 1   
    17   10   20 1   
    18   11   12 1   
    19   11   13 1   
    20   11   14 1   
    21   12   21 1   
    22   12   22 1   
    23   12   23 1   
    24   13   24 1   
    25   13   25 1   
    26   13   26 1   
    27   14   15 1   
    28   15   16 2   
    29   15   17 1   
    30   17   27 1   
    31   17   28 1   
    32   17   29 1   
@<TRIPOS>SUBSTRUCTURE
     1 WSD         1 TEMP              0 ****  ****    0 ROOT
