@<TRIPOS>MOLECULE
WSD
   31    32     1     0     0
SMALL
bcc


@<TRIPOS>ATOM
      1 O4A        -0.1250    0.2900   -0.2750 o         1 WSD     -0.510500
      2 C04         1.0900    0.2050   -0.1120 c         1 WSD      0.745700
      3 C4A         1.8750    0.2620    1.1210 cc        1 WSD     -0.095600
      4 N05         1.1750    0.3990    2.3230 ne        1 WSD     -0.467300
      5 N03         1.8580    0.0180   -1.3220 n         1 WSD     -0.498400
      6 C02         3.2320   -0.0860   -1.2380 cc        1 WSD      0.567800
      7 N02         4.0020   -0.2830   -2.5190 n4        1 WSD     -0.810600
      8 N01         3.9750   -0.0280   -0.1420 nd        1 WSD     -0.626300
      9 C8A         3.2890    0.1530    1.0820 cd        1 WSD      0.404600
     10 N08         4.0110    0.1700    2.2450 nh        1 WSD     -0.719000
     11 C07         3.3900    0.6000    3.5130 c3        1 WSD      0.174900
     12 C12         3.8640   -0.3200    4.6490 c3        1 WSD     -0.122600
     13 C11         3.7960    2.0450    3.8490 c3        1 WSD     -0.122600
     14 C06         1.8570    0.5350    3.4210 cf        1 WSD      0.338300
     15 C09         1.1120    0.6500    4.7320 c         1 WSD      0.507800
     16 O09         1.2880    1.6180    5.4700 o         1 WSD     -0.492100
     17 C10         0.1850   -0.4760    5.0280 c3        1 WSD     -0.194100
     18 H021        5.0110   -0.3430   -2.3120 hn        1 WSD      0.484133
     19 H022        3.8340    0.5130   -3.1450 hn        1 WSD      0.484133
     20 H08         5.0060    0.1330    2.2300 hn        1 WSD      0.464800
     21 H121        3.4310    0.0510    5.6110 hc        1 WSD      0.067033
     22 H122        3.5300   -1.3720    4.4830 hc        1 WSD      0.067033
     23 H123        4.9770   -0.3010    4.7360 hc        1 WSD      0.067033
     24 H111        4.9030    2.1200    3.9740 hc        1 WSD      0.067033
     25 H112        3.3070    2.3490    4.8090 hc        1 WSD      0.067033
     26 H113        3.4700    2.7510    3.0490 hc        1 WSD      0.067033
     27 H101       -0.2070   -0.3960    6.0720 hc        1 WSD      0.083367
     28 H102        0.7100   -1.4550    4.9050 hc        1 WSD      0.083367
     29 H103       -0.6770   -0.4410    4.3130 hc        1 WSD      0.083367
     30 H03         1.3580   -0.0320   -2.1850 hn        1 WSD      0.352500
     31 H023        3.6990   -1.1540   -2.9700 hn        1 WSD      0.484133
@<TRIPOS>BOND
     1    1    2 2   
     2    2    3 1   
     3    2    5 1   
     4    3    4 1   
     5    3    9 2   
     6    4   14 2   
     7    5    6 1   
     8    5   30 1   
     9    6    7 1   
    10    6    8 2   
    11    7   18 1   
    12    7   19 1   
    13    7   31 1   
    14    8    9 1   
    15    9   10 1   
    16   10   11 1   
    17   10   20 1   
    18   11   12 1   
    19   11   13 1   
    20   11   14 1   
    21   12   21 1   
    22   12   22 1   
    23   12   23 1   
    24   13   24 1   
    25   13   25 1   
    26   13   26 1   
    27   14   15 1   
    28   15   16 2   
    29   15   17 1   
    30   17   27 1   
    31   17   28 1   
    32   17   29 1   
@<TRIPOS>SUBSTRUCTURE
     1 WSD         1 TEMP              0 ****  ****    0 ROOT
