@<TRIPOS>MOLECULE
WSD
   31    32     1     0     0
SMALL
bcc


@<TRIPOS>ATOM
      1 O4A        -0.1310    0.3130   -0.2680 o         1 WSD     -0.510500
      2 C04         1.0850    0.2270   -0.1080 c         1 WSD      0.745700
      3 C4A         1.8720    0.2720    1.1230 cc        1 WSD     -0.095600
      4 N05         1.1750    0.3960    2.3290 ne        1 WSD     -0.467300
      5 N03         1.8490    0.0530   -1.3220 ns        1 WSD     -0.498400
      6 C02         3.2240   -0.0510   -1.2430 cc        1 WSD      0.567800
      7 N02         3.9900   -0.2340   -2.5280 nz        1 WSD     -0.810600
      8 N01         3.9690   -0.0040   -0.1480 nd        1 WSD     -0.626300
      9 C8A         3.2870    0.1650    1.0790 cd        1 WSD      0.404600
     10 N08         4.0110    0.1690    2.2400 nu        1 WSD     -0.719000
     11 C07         3.3940    0.5860    3.5150 c3        1 WSD      0.174900
     12 C12         3.8710   -0.3450    4.6400 c3        1 WSD     -0.122600
     13 C11         3.8000    2.0280    3.8650 c3        1 WSD     -0.122600
     14 C06         1.8600    0.5210    3.4260 cf        1 WSD      0.338300
     15 C09         1.1190    0.6210    4.7400 c         1 WSD      0.507800
     16 O09         1.2970    1.5820    5.4880 o         1 WSD     -0.492100
     17 C10         0.1930   -0.5080    5.0260 c3        1 WSD     -0.194100
     18 H021        3.6870   -1.1010   -2.9870 hn        1 WSD      0.484133
     19 H022        3.8210    0.5690   -3.1450 hn        1 WSD      0.484133
     20 H08         5.0060    0.1330    2.2220 hn        1 WSD      0.464800
     21 H121        3.4400    0.0150    5.6070 hc        1 WSD      0.067033
     22 H122        4.9840   -0.3270    4.7240 hc        1 WSD      0.067033
     23 H123        3.5370   -1.3950    4.4630 hc        1 WSD      0.067033
     24 H111        4.9070    2.1020    3.9870 hc        1 WSD      0.067033
     25 H112        3.4700    2.7420    3.0730 hc        1 WSD      0.067033
     26 H113        3.3130    2.3210    4.8290 hc        1 WSD      0.067033
     27 H101       -0.1970   -0.4390    6.0720 hc        1 WSD      0.083367
     28 H102        0.7180   -1.4850    4.8910 hc        1 WSD      0.083367
     29 H103       -0.6710   -0.4660    4.3140 hc        1 WSD      0.083367
     30 H03         1.3470    0.0120   -2.1840 hn        1 WSD      0.352500
     31 H023        5.0000   -0.2950   -2.3240 hn        1 WSD      0.484133
@<TRIPOS>BOND
     1    1    2 2   
     2    2    3 1   
     3    2    5 1   
     4    3    4 1   
     5    3    9 2   
     6    4   14 2   
     7    5    6 1   
     8    5   30 1   
     9    6    7 1   
    10    6    8 2   
    11    7   18 1   
    12    7   19 1   
    13    7   31 1   
    14    8    9 1   
    15    9   10 1   
    16   10   11 1   
    17   10   20 1   
    18   11   12 1   
    19   11   13 1   
    20   11   14 1   
    21   12   21 1   
    22   12   22 1   
    23   12   23 1   
    24   13   24 1   
    25   13   25 1   
    26   13   26 1   
    27   14   15 1   
    28   15   16 2   
    29   15   17 1   
    30   17   27 1   
    31   17   28 1   
    32   17   29 1   
@<TRIPOS>SUBSTRUCTURE
     1 WSD         1 TEMP              0 ****  ****    0 ROOT
