@<TRIPOS>MOLECULE
WSH
   54    57     1     0     0
SMALL
bcc


@<TRIPOS>ATOM
      1 C17        -1.4570   -2.0110   -0.2740 c2        1 WSH     -0.095000
      2 C10         1.5660   -6.2920   10.5720 c1        1 WSH     -0.049000
      3 C18        -0.6310   -1.7620    0.7040 c1        1 WSH     -0.115000
      4 C16         0.1650   -1.5220    1.6540 c1        1 WSH     -0.099000
      5 C22         6.2170   -1.4220    1.2800 c2        1 WSH     -0.030000
      6 C11         1.0490   -4.9760   10.7660 c2        1 WSH     -0.211000
      7 C9          1.7810   -6.7500    9.2050 c3        1 WSH     -0.231000
      8 C23         5.5350   -0.8600    2.2860 c2        1 WSH     -0.137000
      9 C19         0.7490    1.1590    2.7590 c2        1 WSH     -0.126000
     10 C15         0.9970   -1.3020    2.6430 c2        1 WSH     -0.087000
     11 C21         4.0780   -0.8940    2.4930 c2        1 WSH     -0.011000
     12 C12         0.7900   -4.1370    9.7270 c2        1 WSH     -0.040000
     13 C8          1.4970   -5.8040    8.1050 c2        1 WSH     -0.057000
     14 C24         6.0850   -0.0640    3.3940 c2        1 WSH     -0.114000
     15 C14         1.3440    0.0190    3.1390 c2        1 WSH     -0.087000
     16 C20         3.7680   -0.1940    3.6340 c2        1 WSH     -0.189000
     17 C7          1.0280   -4.5560    8.3630 c2        1 WSH     -0.211000
     18 C25         5.0370    0.3420    4.1960 c2        1 WSH     -0.004000
     19 C3          4.2050    1.1570    6.4170 c2        1 WSH     -0.250000
     20 C2          6.1060    2.0710    5.6880 c2        1 WSH     -0.011000
     21 C13         2.4340    0.0460    4.1660 c2        1 WSH      0.202000
     22 C4          2.9180    0.4080    6.5320 c3        1 WSH      0.149000
     23 C6          0.6950   -3.6110    7.2670 c3        1 WSH      0.048000
     24 N2          4.6800    2.0390    7.3610 n2        1 WSH     -0.005000
     25 N1          5.7870    2.5750    6.9360 n2        1 WSH     -0.061000
     26 N4          2.0710    0.2770    5.3910 n2        1 WSH     -0.238000
     27 N5          5.1070    1.1430    5.3310 na        1 WSH     -0.074000
     28 N3          3.2870   -0.9640    7.1970 n4        1 WSH     -0.106000
     29 O1          1.3330   -1.2570    8.5270 o         1 WSH     -0.242000
     30 O2          1.8590   -2.7960    6.9130 os        1 WSH     -0.250000
     31 H17        -1.6940   -3.0390   -0.5910 ha        1 WSH      0.149500
     32 H18         1.0160    2.1380    3.1790 ha        1 WSH      0.141000
     33 H16        -1.9610   -1.2070   -0.8330 ha        1 WSH      0.149500
     34 H9          1.1470   -7.6830    9.0760 hc        1 WSH      0.182000
     35 H19        -0.0430    1.1650    1.9960 ha        1 WSH      0.141000
     36 H15         1.4600   -2.1600    3.1640 ha        1 WSH      0.132000
     37 H22         3.3820   -1.4040    1.8210 ha        1 WSH      0.180000
     38 H23         7.3110   -1.3330    1.1940 ha        1 WSH      0.146000
     39 H21         5.7170   -1.9970    0.4850 ha        1 WSH      0.146000
     40 H12         0.3950   -3.1180    9.8820 ha        1 WSH      0.147000
     41 H8          1.6720   -6.1540    7.0750 ha        1 WSH      0.135000
     42 H24         7.1480    0.1470    3.5120 ha        1 WSH      0.172000
     43 H61C        0.5030   -4.1350    6.2890 h1        1 WSH      0.138000
     44 H62C       -0.1580   -2.9330    7.5350 h1        1 WSH      0.138000
     45 H4          2.2590    0.9170    7.3220 hx        1 WSH      0.208000
     46 H3          3.8210   -1.5500    6.5500 hn        1 WSH      0.265500
     47 C5          2.0570   -1.6730    7.6330 c2        1 WSH      0.347000
     48 H10         2.8520   -7.1100    9.1350 hc        1 WSH      0.182000
     49 H32         3.8590   -0.7560    8.0260 hn        1 WSH      0.265500
     50 C1          7.2790    2.4410    4.8660 c3        1 WSH     -0.166000
     51 H11         0.8630   -4.6600   11.8070 ha        1 WSH      0.165000
     52 H11C        7.6560    3.4490    5.1790 hc        1 WSH      0.122000
     53 H12C        8.0980    1.6930    5.0180 hc        1 WSH      0.122000
     54 H13C        7.0090    2.4780    3.7810 hc        1 WSH      0.122000
@<TRIPOS>BOND
     1    1    3 1   
     2    1   31 1   
     3    1   33 1   
     4    2    6 1   
     5    2    7 1   
     6    3    4 1   
     7    4   10 1   
     8    5    8 1   
     9    5   38 1   
    10    5   39 1   
    11    6   12 1   
    12    6   51 1   
    13    7   13 1   
    14    7   34 1   
    15    7   48 1   
    16    8   11 1   
    17    8   14 1   
    18    9   15 1   
    19    9   32 1   
    20    9   35 1   
    21   10   15 1   
    22   10   36 1   
    23   11   16 1   
    24   11   37 1   
    25   12   17 1   
    26   12   40 1   
    27   13   17 1   
    28   13   41 1   
    29   14   18 1   
    30   14   42 1   
    31   15   21 1   
    32   16   18 1   
    33   16   21 1   
    34   17   23 1   
    35   18   27 1   
    36   19   22 1   
    37   19   24 1   
    38   19   27 1   
    39   20   25 1   
    40   20   27 1   
    41   20   50 1   
    42   21   26 1   
    43   22   26 1   
    44   22   28 1   
    45   22   45 1   
    46   23   30 1   
    47   23   43 1   
    48   23   44 1   
    49   24   25 1   
    50   28   46 1   
    51   28   47 1   
    52   28   49 1   
    53   29   47 1   
    54   30   47 1   
    55   50   52 1   
    56   50   53 1   
    57   50   54 1   
@<TRIPOS>SUBSTRUCTURE
     1 WSH         1 TEMP              0 ****  ****    0 ROOT
