@<TRIPOS>MOLECULE
WSH
   53    57     1     0     0
SMALL
bcc


@<TRIPOS>ATOM
      1 C17         4.5800   -4.1230   -0.0510 ca        1 WSH     -0.113000
      2 C10        -7.0990   -0.8850    1.5590 ca        1 WSH     -0.124000
      3 C18         4.9290   -2.9100    0.5430 ca        1 WSH     -0.136500
      4 C16         3.3720   -4.2400   -0.7380 ca        1 WSH     -0.136500
      5 C22         1.2850   -0.2540    3.3440 ca        1 WSH     -0.133000
      6 C11        -6.1870    0.1660    1.6480 ca        1 WSH     -0.132500
      7 C9         -7.0120   -1.7950    0.5060 ca        1 WSH     -0.132500
      8 C23         1.2980    1.1350    3.4660 ca        1 WSH     -0.099000
      9 C19         4.0710   -1.8160    0.4580 ca        1 WSH     -0.095500
     10 C15         2.5100   -3.1470   -0.8340 ca        1 WSH     -0.095500
     11 C21         1.4980   -0.8390    2.1010 ca        1 WSH     -0.083000
     12 C12        -5.1910    0.3110    0.6830 ca        1 WSH     -0.111500
     13 C8         -6.0140   -1.6580   -0.4570 ca        1 WSH     -0.111500
     14 C24         1.5120    1.9360    2.3500 ca        1 WSH     -0.146000
     15 C14         2.8550   -1.9340   -0.2270 ca        1 WSH     -0.151900
     16 C20         1.7220   -0.0580    0.9590 ca        1 WSH     -0.201900
     17 C7         -5.1020   -0.6000   -0.3740 ca        1 WSH     -0.096300
     18 C25         1.7230    1.3550    1.0790 ca        1 WSH      0.024800
     19 C3          1.3670    1.9700   -1.3330 cc        1 WSH      0.343800
     20 C2          2.5810    3.4240   -0.1420 cc        1 WSH      0.387800
     21 C13         1.9530   -0.7570   -0.3320 ce        1 WSH      0.550500
     22 C4          0.6020    0.7100   -1.7020 c3        1 WSH      0.273600
     23 C6         -4.0730   -0.4420   -1.4410 c3        1 WSH      0.196700
     24 N2          1.7010    3.0260   -2.1230 nd        1 WSH     -0.307000
     25 N1          2.4190    3.8810   -1.4230 nd        1 WSH     -0.346000
     26 N4          1.4550   -0.4580   -1.4860 n2        1 WSH     -0.591900
     27 N5          1.9120    2.1800   -0.0430 na        1 WSH     -0.270800
     28 N3         -0.6870    0.7170   -1.0230 n         1 WSH     -0.546900
     29 O1         -1.9380   -0.0680   -2.8700 o         1 WSH     -0.569000
     30 O2         -2.8530   -0.0080   -0.8020 os        1 WSH     -0.444900
     31 H17         5.2600   -4.9850    0.0180 ha        1 WSH      0.136000
     32 H18         5.8860   -2.8140    1.0770 ha        1 WSH      0.137000
     33 H16         3.0980   -5.1940   -1.2130 ha        1 WSH      0.137000
     34 H11        -6.2530    0.8840    2.4790 ha        1 WSH      0.132500
     35 H9         -7.7310   -2.6250    0.4350 ha        1 WSH      0.132500
     36 H19         4.3490   -0.8590    0.9230 ha        1 WSH      0.144500
     37 H15         1.5660   -3.2390   -1.3930 ha        1 WSH      0.144500
     38 H22         1.1060   -0.8860    4.2270 ha        1 WSH      0.147000
     39 H23         1.1330    1.6050    4.4480 ha        1 WSH      0.146000
     40 H21         1.4970   -1.9380    2.0020 ha        1 WSH      0.156000
     41 H12        -4.4660    1.1360    0.7490 ha        1 WSH      0.138500
     42 H8         -5.9440   -2.3810   -1.2840 ha        1 WSH      0.138500
     43 H24         1.5030    3.0330    2.4610 ha        1 WSH      0.152000
     44 H61C       -3.8700   -1.4070   -1.9780 h1        1 WSH      0.066200
     45 H62C       -4.3810    0.3390   -2.1880 h1        1 WSH      0.066200
     46 H4          0.4000    0.7190   -2.8270 h2        1 WSH      0.155700
     47 H3         -0.7010    0.7470   -0.0290 hn        1 WSH      0.322500
     48 C1          3.3370    4.0850    0.9440 c3        1 WSH     -0.125400
     49 C5         -1.7930    0.1900   -1.6650 c         1 WSH      0.742100
     50 H10        -7.8870   -0.9960    2.3190 ha        1 WSH      0.132000
     51 H11C        2.6670    4.7960    1.4900 hc        1 WSH      0.065367
     52 H12C        3.7420    3.3360    1.6680 hc        1 WSH      0.065367
     53 H13C        4.1900    4.6660    0.5100 hc        1 WSH      0.065367
@<TRIPOS>BOND
     1    1    3 ar  
     2    1    4 ar  
     3    1   31 1   
     4    2    6 ar  
     5    2    7 ar  
     6    2   50 1   
     7    3    9 ar  
     8    3   32 1   
     9    4   10 ar  
    10    4   33 1   
    11    5    8 ar  
    12    5   11 ar  
    13    5   38 1   
    14    6   12 ar  
    15    6   34 1   
    16    7   13 ar  
    17    7   35 1   
    18    8   14 ar  
    19    8   39 1   
    20    9   15 ar  
    21    9   36 1   
    22   10   15 ar  
    23   10   37 1   
    24   11   16 ar  
    25   11   40 1   
    26   12   17 ar  
    27   12   41 1   
    28   13   17 ar  
    29   13   42 1   
    30   14   18 ar  
    31   14   43 1   
    32   15   21 1   
    33   16   18 ar  
    34   16   21 1   
    35   17   23 1   
    36   18   27 1   
    37   19   22 1   
    38   19   24 2   
    39   19   27 1   
    40   20   25 2   
    41   20   27 1   
    42   20   48 1   
    43   21   26 2   
    44   22   26 1   
    45   22   28 1   
    46   22   46 1   
    47   23   30 1   
    48   23   44 1   
    49   23   45 1   
    50   24   25 1   
    51   28   47 1   
    52   28   49 1   
    53   29   49 2   
    54   30   49 1   
    55   48   51 1   
    56   48   52 1   
    57   48   53 1   
@<TRIPOS>SUBSTRUCTURE
     1 WSH         1 TEMP              0 ****  ****    0 ROOT
