@<TRIPOS>MOLECULE
WSH
   54    58     1     0     0
SMALL
bcc


@<TRIPOS>ATOM
      1 C17        -1.5490   -2.8860    0.6330 c2        1 WSH     -0.097000
      2 C10         1.5010   -6.5900    9.8590 c1        1 WSH     -0.048000
      3 C18        -0.7250   -2.3950    1.5160 c1        1 WSH     -0.115000
      4 C16         0.0690   -1.9200    2.3750 c1        1 WSH     -0.104000
      5 C22         5.1450   -1.5060    1.7370 cx        1 WSH     -0.044000
      6 C11         1.0130   -5.3050   10.2390 c2        1 WSH     -0.211000
      7 C9          1.7420   -6.8410    8.4430 c3        1 WSH     -0.231000
      8 C23         5.7180   -0.2680    2.2130 cu        1 WSH     -0.085000
      9 C19         1.1070    0.8570    2.4050 c2        1 WSH     -0.151000
     10 C15         0.8930   -1.4500    3.2810 c2        1 WSH     -0.073000
     11 C21         4.2160   -0.3860    2.2800 cx        1 WSH     -0.174000
     12 C12         0.8030   -4.3110    9.3350 c2        1 WSH     -0.040000
     13 C8          1.5120   -5.7310    7.4940 c2        1 WSH     -0.057000
     14 C24         6.2520    0.3300    3.3050 c2        1 WSH     -0.121000
     15 C14         1.4920   -0.1270    3.2300 c2        1 WSH     -0.069000
     16 C20         3.9270    0.0770    3.6600 c2        1 WSH     -0.176000
     17 C7          1.0670   -4.5240    7.9280 c2        1 WSH     -0.210000
     18 C25         5.0970    0.6540    4.1790 c2        1 WSH      0.083000
     19 C3          4.3300    1.2680    6.4860 c2        1 WSH     -0.235000
     20 C2          6.2170    2.2480    5.7860 c2        1 WSH      0.001000
     21 C13         2.5930    0.1020    4.2210 c2        1 WSH      0.205000
     22 C4          3.0450    0.5110    6.5930 c3        1 WSH      0.152000
     23 C6          0.7870   -3.4140    6.9820 c3        1 WSH      0.047000
     24 N2          4.8280    2.0720    7.4810 n2        1 WSH     -0.012000
     25 N1          5.9270    2.6460    7.0730 n2        1 WSH     -0.054000
     26 N4          2.2240    0.2770    5.4570 n2        1 WSH     -0.253000
     27 N5          5.2120    1.3390    5.3780 na        1 WSH     -0.097000
     28 N3          3.4050   -0.8150    7.3590 n4        1 WSH     -0.109000
     29 O1          1.4290   -1.2860    8.5980 o         1 WSH     -0.244000
     30 O2          1.9800   -2.5850    6.7910 os        1 WSH     -0.248000
     31 H17        -1.9820   -3.8930    0.7340 ha        1 WSH      0.149500
     32 H18         1.5670    1.8540    2.4110 ha        1 WSH      0.141000
     33 H16        -1.8580   -2.3170   -0.2580 ha        1 WSH      0.149500
     34 H9          1.0900   -7.7250    8.1580 hc        1 WSH      0.182000
     35 H19         0.2930    0.7110    1.6800 ha        1 WSH      0.141000
     36 H15         1.1550   -2.0750    4.1560 ha        1 WSH      0.133000
     37 H22         3.4920   -0.0100    1.5310 hc        1 WSH      0.191000
     38 H23         5.3910   -2.4310    2.2960 hc        1 WSH      0.147500
     39 H21         4.9970   -1.7010    0.6540 hc        1 WSH      0.147500
     40 H12         0.4290   -3.3160    9.6330 ha        1 WSH      0.147000
     41 H8          1.7060   -5.9260    6.4270 ha        1 WSH      0.135000
     42 H24         7.2960    0.4930    3.5710 ha        1 WSH      0.188000
     43 H61C        0.6160   -3.7750    5.9290 h1        1 WSH      0.138000
     44 H62C       -0.0590   -2.7650    7.3280 h1        1 WSH      0.138000
     45 H4          2.3610    1.0580    7.3350 hx        1 WSH      0.205000
     46 H3          3.8580   -0.5470    8.2420 hn        1 WSH      0.264500
     47 C5          2.1660   -1.5780    7.6660 c2        1 WSH      0.351000
     48 H10         2.8060   -7.2170    8.3440 hc        1 WSH      0.182000
     49 H32         4.0410   -1.3920    6.8040 hn        1 WSH      0.264500
     50 C1          7.3640    2.7000    4.9680 c3        1 WSH     -0.170000
     51 H11         0.8070   -5.1450   11.3110 ha        1 WSH      0.165000
     52 H11C        8.2060    1.9660    5.0580 hc        1 WSH      0.126333
     53 H12C        7.7230    3.6950    5.3400 hc        1 WSH      0.126333
     54 H13C        7.0750    2.8020    3.8920 hc        1 WSH      0.126333
@<TRIPOS>BOND
     1    1    3 1   
     2    1   31 1   
     3    1   33 1   
     4    2    6 1   
     5    2    7 1   
     6    3    4 1   
     7    4   10 1   
     8    5    8 1   
     9    5   11 1   
    10    5   38 1   
    11    5   39 1   
    12    6   12 1   
    13    6   51 1   
    14    7   13 1   
    15    7   34 1   
    16    7   48 1   
    17    8   11 1   
    18    8   14 1   
    19    9   15 1   
    20    9   32 1   
    21    9   35 1   
    22   10   15 1   
    23   10   36 1   
    24   11   16 1   
    25   11   37 1   
    26   12   17 1   
    27   12   40 1   
    28   13   17 1   
    29   13   41 1   
    30   14   18 1   
    31   14   42 1   
    32   15   21 1   
    33   16   18 1   
    34   16   21 1   
    35   17   23 1   
    36   18   27 1   
    37   19   22 1   
    38   19   24 1   
    39   19   27 1   
    40   20   25 1   
    41   20   27 1   
    42   20   50 1   
    43   21   26 1   
    44   22   26 1   
    45   22   28 1   
    46   22   45 1   
    47   23   30 1   
    48   23   43 1   
    49   23   44 1   
    50   24   25 1   
    51   28   46 1   
    52   28   47 1   
    53   28   49 1   
    54   29   47 1   
    55   30   47 1   
    56   50   52 1   
    57   50   53 1   
    58   50   54 1   
@<TRIPOS>SUBSTRUCTURE
     1 WSH         1 TEMP              0 ****  ****    0 ROOT
