@<TRIPOS>MOLECULE
WSK
   40    42     1     0     0
SMALL
bcc


@<TRIPOS>ATOM
      1 C0         -0.0130    3.4510   -0.7220 ca        1 WSK     -0.060400
      2 N0          1.1570   -0.5560   -0.8600 na        1 WSK     -0.079300
      3 O0          2.7660   -3.1750    0.1160 oh        1 WSK     -0.592800
      4 C1          1.3090    3.1870   -1.1070 ca        1 WSK     -0.074500
      5 N1          5.5620   -2.4850    0.4310 n3        1 WSK     -0.739600
      6 C2          1.8000    1.8870   -1.1830 ca        1 WSK     -0.156000
      7 C3          0.9380    0.8320   -0.8630 ca        1 WSK      0.015300
      8 C4         -0.4280    1.1050   -0.4640 cp        1 WSK     -0.081500
      9 C5         -0.8890    2.4110   -0.3980 ca        1 WSK     -0.047500
     10 C6         -1.0470   -0.1820   -0.2040 cp        1 WSK     -0.081500
     11 C7         -0.0340   -1.1830   -0.4490 ca        1 WSK      0.015300
     12 C8         -0.3190   -2.5410   -0.2640 ca        1 WSK     -0.156000
     13 C9         -1.6020   -2.8910    0.1410 ca        1 WSK     -0.074500
     14 C10        -2.5910   -1.9220    0.3670 ca        1 WSK     -0.060400
     15 C11        -2.3180   -0.5620    0.2000 ca        1 WSK     -0.047500
     16 C12         2.3660   -1.2170   -1.2420 c3        1 WSK      0.023300
     17 C13         3.1770   -1.8350   -0.0710 c3        1 WSK      0.117100
     18 C14         4.6740   -1.6810   -0.3930 c3        1 WSK      0.136800
     19 C15         6.9510   -2.2740    0.0840 c3        1 WSK      0.150600
     20 C16         5.3080   -2.3780    1.8490 c3        1 WSK      0.150600
     21 BR1        -4.3030   -2.4610    0.9060 br        1 WSK     -0.091600
     22 BR2        -0.6120    5.2240   -0.6390 br        1 WSK     -0.091600
     23 H13         3.3070   -3.7370   -0.4530 ho        1 WSK      0.413000
     24 H1          1.9830    4.0220   -1.3570 ha        1 WSK      0.147000
     25 H2          2.8400    1.7060   -1.4850 ha        1 WSK      0.150000
     26 H3         -1.9280    2.6130   -0.0950 ha        1 WSK      0.152000
     27 H4          0.4610   -3.3050   -0.4100 ha        1 WSK      0.150000
     28 H5         -1.8380   -3.9580    0.2900 ha        1 WSK      0.147000
     29 H6         -3.0890    0.2020    0.3840 ha        1 WSK      0.152000
     30 H8          3.0100   -0.4700   -1.7880 h1        1 WSK      0.064200
     31 H9          2.1040   -2.0540   -1.9530 h1        1 WSK      0.064200
     32 H10         2.9350   -1.3270    0.9060 h1        1 WSK      0.090700
     33 H11         4.9160   -0.5790   -0.3230 h1        1 WSK      0.037200
     34 H12         4.8450   -2.0030   -1.4600 h1        1 WSK      0.037200
     35 H17         7.5790   -3.0000    0.6640 h1        1 WSK      0.037200
     36 H18         7.0910   -2.4720   -1.0110 h1        1 WSK      0.037200
     37 H19         7.3110   -1.2320    0.3070 h1        1 WSK      0.037200
     38 H14         4.2810   -2.7810    2.0580 h1        1 WSK      0.037200
     39 H15         6.0570   -3.0020    2.4040 h1        1 WSK      0.037200
     40 H16         5.3700   -1.3230    2.2330 h1        1 WSK      0.037200
@<TRIPOS>BOND
     1    1    4 ar  
     2    1    9 ar  
     3    1   22 1   
     4    2    7 1   
     5    2   11 1   
     6    2   16 1   
     7    3   17 1   
     8    3   23 1   
     9    4    6 ar  
    10    4   24 1   
    11    5   18 1   
    12    5   19 1   
    13    5   20 1   
    14    6    7 ar  
    15    6   25 1   
    16    7    8 ar  
    17    8    9 ar  
    18    8   10 1   
    19    9   26 1   
    20   10   11 ar  
    21   10   15 ar  
    22   11   12 ar  
    23   12   13 ar  
    24   12   27 1   
    25   13   14 ar  
    26   13   28 1   
    27   14   15 ar  
    28   14   21 1   
    29   15   29 1   
    30   16   17 1   
    31   16   30 1   
    32   16   31 1   
    33   17   18 1   
    34   17   32 1   
    35   18   33 1   
    36   18   34 1   
    37   19   35 1   
    38   19   36 1   
    39   19   37 1   
    40   20   38 1   
    41   20   39 1   
    42   20   40 1   
@<TRIPOS>SUBSTRUCTURE
     1 WSK         1 TEMP              0 ****  ****    0 ROOT
