@<TRIPOS>MOLECULE
WSK
   41    43     1     0     0
SMALL
bcc


@<TRIPOS>ATOM
      1 C0          0.1410    0.0510    0.0100 ca        1 WSK     -0.044900
      2 N0          1.9070   -0.3980    3.7870 na        1 WSK     -0.062300
      3 O0          3.1950    1.9690    5.4690 oh        1 WSK     -0.637800
      4 C1          1.5140   -0.2260    0.0450 ca        1 WSK     -0.072000
      5 N1          5.6930    2.8120    4.6350 n4        1 WSK     -0.676400
      6 C2          2.1990   -0.3680    1.2520 ca        1 WSK     -0.163000
      7 C3          1.4800   -0.2270    2.4390 ca        1 WSK     -0.033700
      8 C4          0.0650    0.0520    2.4060 cp        1 WSK     -0.065000
      9 C5         -0.5940    0.1840    1.1950 ca        1 WSK     -0.044500
     10 C6         -0.3810    0.1190    3.7890 cp        1 WSK     -0.065000
     11 C7          0.7810   -0.1190    4.6120 ca        1 WSK     -0.033700
     12 C8          0.6710   -0.1290    6.0030 ca        1 WSK     -0.163000
     13 C9         -0.5860    0.0970    6.5660 ca        1 WSK     -0.072000
     14 C10        -1.7140    0.3310    5.7710 ca        1 WSK     -0.044900
     15 C11        -1.6190    0.3370    4.3730 ca        1 WSK     -0.044500
     16 C12         3.2470   -0.1430    4.2040 c3        1 WSK      0.009300
     17 C13         3.6520    1.3520    4.2770 c3        1 WSK      0.087100
     18 C14         5.1910    1.4350    4.3180 c3        1 WSK      0.105800
     19 C15         7.0970    2.7610    5.1190 c3        1 WSK      0.082600
     20 C16         5.5720    3.7190    3.4640 c3        1 WSK      0.082600
     21 BR1        -3.3710    0.6320    6.5830 br        1 WSK     -0.050100
     22 BR2        -0.7220    0.2370   -1.6380 br        1 WSK     -0.050100
     23 H13         2.2550    1.7550    5.5790 ho        1 WSK      0.462000
     24 H1          2.0740   -0.3440   -0.8980 ha        1 WSK      0.158500
     25 H2          3.2700   -0.6100    1.2520 ha        1 WSK      0.138000
     26 H3         -1.6780    0.3840    1.1720 ha        1 WSK      0.165000
     27 H4          1.5360   -0.3350    6.6480 ha        1 WSK      0.138000
     28 H5         -0.6820    0.0830    7.6650 ha        1 WSK      0.158500
     29 H6         -2.5070    0.5050    3.7430 ha        1 WSK      0.165000
     30 H8          3.3850   -0.5910    5.2300 h1        1 WSK      0.084700
     31 H9          3.9380   -0.6630    3.4800 h1        1 WSK      0.084700
     32 H10         3.2520    1.9170    3.3880 h1        1 WSK      0.072700
     33 H11         5.6090    1.1180    3.3230 hx        1 WSK      0.108700
     34 H12         5.5700    0.7410    5.1230 hx        1 WSK      0.108700
     35 H17         7.4530    3.8060    5.3300 hx        1 WSK      0.105700
     36 H18         7.7490    2.2950    4.3340 hx        1 WSK      0.105700
     37 H19         7.1450    2.1520    6.0620 hx        1 WSK      0.105700
     38 H14         5.8990    4.7520    3.7610 hx        1 WSK      0.105700
     39 H15         4.5000    3.7490    3.1300 hx        1 WSK      0.105700
     40 H16         6.2200    3.3470    2.6270 hx        1 WSK      0.105700
     41 H111        5.0950    3.1840    5.3940 hn        1 WSK      0.476800
@<TRIPOS>BOND
     1    1    4 ar  
     2    1    9 ar  
     3    1   22 1   
     4    2    7 1   
     5    2   11 1   
     6    2   16 1   
     7    3   17 1   
     8    3   23 1   
     9    4    6 ar  
    10    4   24 1   
    11    5   18 1   
    12    5   19 1   
    13    5   20 1   
    14    5   41 1   
    15    6    7 ar  
    16    6   25 1   
    17    7    8 ar  
    18    8    9 ar  
    19    8   10 1   
    20    9   26 1   
    21   10   11 ar  
    22   10   15 ar  
    23   11   12 ar  
    24   12   13 ar  
    25   12   27 1   
    26   13   14 ar  
    27   13   28 1   
    28   14   15 ar  
    29   14   21 1   
    30   15   29 1   
    31   16   17 1   
    32   16   30 1   
    33   16   31 1   
    34   17   18 1   
    35   17   32 1   
    36   18   33 1   
    37   18   34 1   
    38   19   35 1   
    39   19   36 1   
    40   19   37 1   
    41   20   38 1   
    42   20   39 1   
    43   20   40 1   
@<TRIPOS>SUBSTRUCTURE
     1 WSK         1 TEMP              0 ****  ****    0 ROOT
