@<TRIPOS>MOLECULE
WSK
   41    43     1     0     0
SMALL
bcc


@<TRIPOS>ATOM
      1 C0          0.1430    0.0380    0.0120 ca        1 WSK     -0.044900
      2 N0          1.9090   -0.3990    3.7890 na        1 WSK     -0.062300
      3 O0          3.1920    1.9750    5.4660 oh        1 WSK     -0.637800
      4 C1          1.5160   -0.2350    0.0480 ca        1 WSK     -0.072000
      5 N1          5.6900    2.8210    4.6310 n4        1 WSK     -0.676400
      6 C2          2.2020   -0.3730    1.2550 ca        1 WSK     -0.163000
      7 C3          1.4820   -0.2310    2.4420 ca        1 WSK     -0.033700
      8 C4          0.0670    0.0440    2.4080 cp        1 WSK     -0.065000
      9 C5         -0.5930    0.1720    1.1960 ca        1 WSK     -0.044500
     10 C6         -0.3790    0.1130    3.7910 cp        1 WSK     -0.065000
     11 C7          0.7830   -0.1200    4.6140 ca        1 WSK     -0.033700
     12 C8          0.6730   -0.1280    6.0050 ca        1 WSK     -0.163000
     13 C9         -0.5840    0.0960    6.5690 ca        1 WSK     -0.072000
     14 C10        -1.7130    0.3260    5.7720 ca        1 WSK     -0.044900
     15 C11        -1.6170    0.3290    4.3750 ca        1 WSK     -0.044500
     16 C12         3.2490   -0.1400    4.2060 c3        1 WSK      0.009300
     17 C13         3.6520    1.3550    4.2760 c3        1 WSK      0.087100
     18 C14         5.1900    1.4410    4.3180 c3        1 WSK      0.105800
     19 C15         7.0930    2.7740    5.1170 c3        1 WSK      0.082600
     20 C16         5.5680    3.7240    3.4570 c3        1 WSK      0.082600
     21 BR1        -3.3700    0.6250    6.5840 br        1 WSK     -0.050100
     22 BR2        -0.7210    0.2190   -1.6360 br        1 WSK     -0.050100
     23 H13         2.2530    1.7590    5.5760 ho        1 WSK      0.462000
     24 H1          2.0760   -0.3530   -0.8950 ha        1 WSK      0.158500
     25 H2          3.2730   -0.6130    1.2560 ha        1 WSK      0.138000
     26 H3         -1.6770    0.3690    1.1740 ha        1 WSK      0.165000
     27 H4          1.5390   -0.3300    6.6510 ha        1 WSK      0.138000
     28 H5         -0.6800    0.0840    7.6680 ha        1 WSK      0.158500
     29 H6         -2.5060    0.4930    3.7440 ha        1 WSK      0.165000
     30 H8          3.9410   -0.6600    3.4830 h1        1 WSK      0.084700
     31 H9          3.3880   -0.5860    5.2340 h1        1 WSK      0.084700
     32 H10         3.2510    1.9170    3.3850 h1        1 WSK      0.072700
     33 H11         5.6100    1.1220    3.3240 hx        1 WSK      0.108700
     34 H12         5.5700    0.7500    5.1250 hx        1 WSK      0.108700
     35 H17         7.1410    2.1680    6.0620 hx        1 WSK      0.105700
     36 H18         7.7470    2.3050    4.3340 hx        1 WSK      0.105700
     37 H19         7.4470    3.8200    5.3250 hx        1 WSK      0.105700
     38 H14         5.8930    4.7580    3.7510 hx        1 WSK      0.105700
     39 H15         6.2170    3.3500    2.6220 hx        1 WSK      0.105700
     40 H16         4.4960    3.7500    3.1210 hx        1 WSK      0.105700
     41 H111        5.0890    3.1930    5.3880 hn        1 WSK      0.476800
@<TRIPOS>BOND
     1    1    4 ar  
     2    1    9 ar  
     3    1   22 1   
     4    2    7 1   
     5    2   11 1   
     6    2   16 1   
     7    3   17 1   
     8    3   23 1   
     9    4    6 ar  
    10    4   24 1   
    11    5   18 1   
    12    5   19 1   
    13    5   20 1   
    14    5   41 1   
    15    6    7 ar  
    16    6   25 1   
    17    7    8 ar  
    18    8    9 ar  
    19    8   10 1   
    20    9   26 1   
    21   10   11 ar  
    22   10   15 ar  
    23   11   12 ar  
    24   12   13 ar  
    25   12   27 1   
    26   13   14 ar  
    27   13   28 1   
    28   14   15 ar  
    29   14   21 1   
    30   15   29 1   
    31   16   17 1   
    32   16   30 1   
    33   16   31 1   
    34   17   18 1   
    35   17   32 1   
    36   18   33 1   
    37   18   34 1   
    38   19   35 1   
    39   19   36 1   
    40   19   37 1   
    41   20   38 1   
    42   20   39 1   
    43   20   40 1   
@<TRIPOS>SUBSTRUCTURE
     1 WSK         1 TEMP              0 ****  ****    0 ROOT
