@<TRIPOS>MOLECULE
WSK
   41    43     1     0     0
SMALL
bcc


@<TRIPOS>ATOM
      1 C0          0.1410    0.0390    0.0130 ca        1 WSK     -0.044900
      2 N0          1.9100   -0.3990    3.7890 na        1 WSK     -0.062300
      3 O0          3.1940    1.9740    5.4670 oh        1 WSK     -0.637800
      4 C1          1.5140   -0.2340    0.0480 ca        1 WSK     -0.072000
      5 N1          5.6890    2.8220    4.6300 nx        1 WSK     -0.676400
      6 C2          2.2010   -0.3720    1.2540 ca        1 WSK     -0.163000
      7 C3          1.4820   -0.2310    2.4420 ca        1 WSK     -0.033700
      8 C4          0.0660    0.0430    2.4090 cp        1 WSK     -0.065000
      9 C5         -0.5940    0.1720    1.1980 ca        1 WSK     -0.044500
     10 C6         -0.3790    0.1110    3.7930 cp        1 WSK     -0.065000
     11 C7          0.7840   -0.1220    4.6140 ca        1 WSK     -0.033700
     12 C8          0.6750   -0.1300    6.0060 ca        1 WSK     -0.163000
     13 C9         -0.5810    0.0930    6.5700 ca        1 WSK     -0.072000
     14 C10        -1.7110    0.3220    5.7750 ca        1 WSK     -0.044900
     15 C11        -1.6160    0.3260    4.3780 ca        1 WSK     -0.044500
     16 C12         3.2500   -0.1400    4.2050 c3        1 WSK      0.009300
     17 C13         3.6520    1.3560    4.2760 c3        1 WSK      0.087100
     18 C14         5.1900    1.4420    4.3150 c3        1 WSK      0.105800
     19 C15         7.0930    2.7760    5.1130 c3        1 WSK      0.082600
     20 C16         5.5650    3.7270    3.4580 c3        1 WSK      0.082600
     21 Br1        -3.3680    0.6200    6.5880 br        1 WSK     -0.050100
     22 Br2        -0.7240    0.2210   -1.6340 br        1 WSK     -0.050100
     23 H13         2.2540    1.7570    5.5780 ho        1 WSK      0.462000
     24 H1          2.0740   -0.3510   -0.8950 ha        1 WSK      0.158500
     25 H2          3.2720   -0.6120    1.2540 ha        1 WSK      0.138000
     26 H3         -1.6780    0.3690    1.1770 ha        1 WSK      0.165000
     27 H4          1.5420   -0.3330    6.6500 ha        1 WSK      0.138000
     28 H5         -0.6760    0.0800    7.6690 ha        1 WSK      0.158500
     29 H6         -2.5060    0.4910    3.7480 ha        1 WSK      0.165000
     30 H8          3.3900   -0.5870    5.2320 h1        1 WSK      0.084700
     31 H9          3.9420   -0.6590    3.4810 h1        1 WSK      0.084700
     32 H10         3.2500    1.9180    3.3860 h1        1 WSK      0.072700
     33 H11         5.5720    0.7510    5.1210 hx        1 WSK      0.108700
     34 H12         5.6090    1.1250    3.3200 hx        1 WSK      0.108700
     35 H17         7.7460    2.3090    4.3290 hx        1 WSK      0.105700
     36 H18         7.1440    2.1680    6.0570 hx        1 WSK      0.105700
     37 H19         7.4460    3.8210    5.3230 hx        1 WSK      0.105700
     38 H14         5.8900    4.7610    3.7520 hx        1 WSK      0.105700
     39 H15         4.4930    3.7530    3.1230 hx        1 WSK      0.105700
     40 H16         6.2140    3.3540    2.6210 hx        1 WSK      0.105700
     41 H111        5.0900    3.1930    5.3890 hn        1 WSK      0.476800
@<TRIPOS>BOND
     1    1    4 ar  
     2    1    9 ar  
     3    1   22 1   
     4    2    7 1   
     5    2   11 1   
     6    2   16 1   
     7    3   17 1   
     8    3   23 1   
     9    4    6 ar  
    10    4   24 1   
    11    5   18 1   
    12    5   19 1   
    13    5   20 1   
    14    5   41 1   
    15    6    7 ar  
    16    6   25 1   
    17    7    8 ar  
    18    8    9 ar  
    19    8   10 1   
    20    9   26 1   
    21   10   11 ar  
    22   10   15 ar  
    23   11   12 ar  
    24   12   13 ar  
    25   12   27 1   
    26   13   14 ar  
    27   13   28 1   
    28   14   15 ar  
    29   14   21 1   
    30   15   29 1   
    31   16   17 1   
    32   16   30 1   
    33   16   31 1   
    34   17   18 1   
    35   17   32 1   
    36   18   33 1   
    37   18   34 1   
    38   19   35 1   
    39   19   36 1   
    40   19   37 1   
    41   20   38 1   
    42   20   39 1   
    43   20   40 1   
@<TRIPOS>SUBSTRUCTURE
     1 WSK         1 TEMP              0 ****  ****    0 ROOT
