@<TRIPOS>MOLECULE
WST
   39    42     1     0     0
SMALL
bcc


@<TRIPOS>ATOM
      1 C1          2.3030    0.1120    0.2870 ca        1 WST     -0.212300
      2 C2          3.6930    0.3190    0.3920 ca        1 WST      0.154100
      3 O3          4.5620   -0.6180    0.9030 oh        1 WST     -0.500100
      4 C4          4.2910    1.5180   -0.0290 ca        1 WST     -0.186000
      5 C5          3.4970    2.5300   -0.5570 ca        1 WST     -0.074000
      6 C6          2.1170    2.3770   -0.6490 ca        1 WST     -0.186000
      7 C7          1.5350    1.1750   -0.2180 ca        1 WST      0.159100
      8 O8          0.1600    1.0960   -0.3500 os        1 WST     -0.324900
      9 C9         -0.4500    0.2050    0.6070 c3        1 WST      0.200400
     10 C11         0.1470   -1.1950    0.5180 c3        1 WST     -0.079700
     11 C13         1.6760   -1.1830    0.6770 c3        1 WST     -0.011400
     12 C15         2.1890   -2.3460   -0.1890 c3        1 WST     -0.083400
     13 C16         1.0520   -2.7950   -1.0950 c3        1 WST     -0.074400
     14 C17        -0.1460   -1.9050   -0.8010 c3        1 WST     -0.073400
     15 C18        -1.9260    0.2200    0.3550 ca        1 WST     -0.123300
     16 C19        -2.4580    0.5920   -0.8820 ca        1 WST     -0.076500
     17 C20        -3.8360    0.6000   -1.0850 ca        1 WST     -0.187000
     18 C21        -4.6860    0.2290   -0.0350 ca        1 WST      0.128100
     19 O22        -6.0560    0.2070   -0.1590 oh        1 WST     -0.497100
     20 C23        -4.1650   -0.1460    1.2150 ca        1 WST     -0.187000
     21 C24        -2.7880   -0.1440    1.4000 ca        1 WST     -0.076500
     22 HO3         4.0540   -1.3930    1.1840 ho        1 WST      0.422000
     23 H4          5.3800    1.6360    0.0650 ha        1 WST      0.151000
     24 H5          3.9650    3.4670   -0.8970 ha        1 WST      0.137000
     25 H6          1.4780    3.1750   -1.0500 ha        1 WST      0.150000
     26 H9         -0.2400    0.6220    1.6360 h1        1 WST      0.056700
     27 H11        -0.2940   -1.7970    1.3600 hc        1 WST      0.060700
     28 H13         1.9270   -1.3790    1.7580 hc        1 WST      0.049700
     29 H151        3.0740   -2.0280   -0.7950 hc        1 WST      0.047200
     30 H152        2.5170   -3.1890    0.4700 hc        1 WST      0.047200
     31 H161        1.3470   -2.7130   -2.1710 hc        1 WST      0.044700
     32 H162        0.8000   -3.8680   -0.9000 hc        1 WST      0.044700
     33 H171       -1.0880   -2.5020   -0.7290 hc        1 WST      0.053700
     34 H172       -0.2850   -1.1470   -1.6150 hc        1 WST      0.053700
     35 H19        -1.7790    0.8870   -1.6990 ha        1 WST      0.143000
     36 H20        -4.2510    0.8960   -2.0590 ha        1 WST      0.144000
     37 HO22       -6.2790    0.4970   -1.0560 ho        1 WST      0.420000
     38 H23        -4.8500   -0.4310    2.0250 ha        1 WST      0.144000
     39 H24        -2.3710   -0.4300    2.3780 ha        1 WST      0.143000
@<TRIPOS>BOND
     1    1    2 ar  
     2    1    7 ar  
     3    1   11 1   
     4    2    3 1   
     5    2    4 ar  
     6    3   22 1   
     7    4    5 ar  
     8    4   23 1   
     9    5    6 ar  
    10    5   24 1   
    11    6    7 ar  
    12    6   25 1   
    13    7    8 1   
    14    8    9 1   
    15    9   10 1   
    16    9   15 1   
    17    9   26 1   
    18   10   11 1   
    19   10   14 1   
    20   10   27 1   
    21   11   12 1   
    22   11   28 1   
    23   12   13 1   
    24   12   29 1   
    25   12   30 1   
    26   13   14 1   
    27   13   31 1   
    28   13   32 1   
    29   14   33 1   
    30   14   34 1   
    31   15   16 ar  
    32   15   21 ar  
    33   16   17 ar  
    34   16   35 1   
    35   17   18 ar  
    36   17   36 1   
    37   18   19 1   
    38   18   20 ar  
    39   19   37 1   
    40   20   21 ar  
    41   20   38 1   
    42   21   39 1   
@<TRIPOS>SUBSTRUCTURE
     1 WST         1 TEMP              0 ****  ****    0 ROOT
