@<TRIPOS>MOLECULE
WST
   39    42     1     0     0
SMALL
bcc


@<TRIPOS>ATOM
      1 C1          0.0410   -0.0120   -0.0150 ca        1 WST     -0.156300
      2 C2          1.4440   -0.1400    0.0390 ca        1 WST      0.150100
      3 O3          2.1070   -0.2420   -1.1640 oh        1 WST     -0.498100
      4 C4          2.1310   -0.1600    1.2610 ca        1 WST     -0.242000
      5 C5          1.4170   -0.0590    2.4530 ca        1 WST     -0.070000
      6 C6          0.0310    0.0370    2.4420 ca        1 WST     -0.184000
      7 C7         -0.6430    0.0490    1.2090 ca        1 WST      0.154100
      8 O8         -2.0190    0.1500    1.2810 os        1 WST     -0.324900
      9 C9         -2.6920   -0.4240    0.1390 c3        1 WST      0.199400
     10 C11        -2.1970    0.1880   -1.1670 c3        1 WST     -0.085700
     11 C13        -0.6730    0.0600   -1.3210 c3        1 WST      0.000600
     12 C15        -0.2470    1.2840   -2.1430 c3        1 WST     -0.067400
     13 C16        -1.3540    2.3240   -2.0330 c3        1 WST     -0.078400
     14 C17        -2.5260    1.6730   -1.3130 c3        1 WST     -0.072400
     15 C18        -4.1640   -0.2330    0.3460 ca        1 WST     -0.121300
     16 C19        -4.6650    0.7680    1.1840 ca        1 WST     -0.076500
     17 C20        -6.0380    0.9190    1.3590 ca        1 WST     -0.187500
     18 C21        -6.9150    0.0590    0.6840 ca        1 WST      0.127100
     19 O22        -8.2830    0.1470    0.8030 oh        1 WST     -0.497100
     20 C23        -6.4240   -0.9520   -0.1600 ca        1 WST     -0.187500
     21 C24        -5.0510   -1.0910   -0.3180 ca        1 WST     -0.076500
     22 HO3         3.0510   -0.3420   -0.9750 ho        1 WST      0.419000
     23 H4          3.2260   -0.2550    1.2750 ha        1 WST      0.134000
     24 H5          1.9570   -0.0650    3.4120 ha        1 WST      0.135000
     25 H6         -0.5460    0.1030    3.3740 ha        1 WST      0.150000
     26 H9         -2.4550   -1.5290    0.1320 h1        1 WST      0.056700
     27 H11        -2.6890   -0.3780   -2.0050 hc        1 WST      0.060700
     28 H13        -0.4240   -0.8760   -1.8950 hc        1 WST      0.064700
     29 H151       -0.1030    0.9800   -3.2100 hc        1 WST      0.050200
     30 H152        0.7300    1.6870   -1.7770 hc        1 WST      0.050200
     31 H161       -0.9980    3.2200   -1.4660 hc        1 WST      0.041200
     32 H162       -1.6610    2.6750   -3.0500 hc        1 WST      0.041200
     33 H171       -2.6700    2.1300   -0.3000 hc        1 WST      0.049700
     34 H172       -3.4770    1.8100   -1.8830 hc        1 WST      0.049700
     35 H19        -3.9660    1.4350    1.7130 ha        1 WST      0.143000
     36 H20        -6.4300    1.7040    2.0200 ha        1 WST      0.143000
     37 HO22       -8.4820    0.8720    1.4150 ho        1 WST      0.420000
     38 H23        -7.1300   -1.6170   -0.6780 ha        1 WST      0.143000
     39 H24        -4.6570   -1.8830   -0.9740 ha        1 WST      0.143000
@<TRIPOS>BOND
     1    1    2 ar  
     2    1    7 ar  
     3    1   11 1   
     4    2    3 1   
     5    2    4 ar  
     6    3   22 1   
     7    4    5 ar  
     8    4   23 1   
     9    5    6 ar  
    10    5   24 1   
    11    6    7 ar  
    12    6   25 1   
    13    7    8 1   
    14    8    9 1   
    15    9   10 1   
    16    9   15 1   
    17    9   26 1   
    18   10   11 1   
    19   10   14 1   
    20   10   27 1   
    21   11   12 1   
    22   11   28 1   
    23   12   13 1   
    24   12   29 1   
    25   12   30 1   
    26   13   14 1   
    27   13   31 1   
    28   13   32 1   
    29   14   33 1   
    30   14   34 1   
    31   15   16 ar  
    32   15   21 ar  
    33   16   17 ar  
    34   16   35 1   
    35   17   18 ar  
    36   17   36 1   
    37   18   19 1   
    38   18   20 ar  
    39   19   37 1   
    40   20   21 ar  
    41   20   38 1   
    42   21   39 1   
@<TRIPOS>SUBSTRUCTURE
     1 WST         1 TEMP              0 ****  ****    0 ROOT
