@<TRIPOS>MOLECULE
WST
   39    42     1     0     0
SMALL
bcc


@<TRIPOS>ATOM
      1 C1          0.0400   -0.0140   -0.0190 ca        1 WST     -0.156300
      2 C2          1.4440   -0.1440    0.0340 ca        1 WST      0.150100
      3 O3          2.1050   -0.2410   -1.1700 oh        1 WST     -0.498100
      4 C4          2.1320   -0.1710    1.2550 ca        1 WST     -0.242000
      5 C5          1.4190   -0.0740    2.4490 ca        1 WST     -0.070000
      6 C6          0.0330    0.0230    2.4390 ca        1 WST     -0.184000
      7 C7         -0.6420    0.0420    1.2060 ca        1 WST      0.154100
      8 O8         -2.0190    0.1440    1.2800 os        1 WST     -0.324900
      9 C9         -2.6930   -0.4240    0.1360 c3        1 WST      0.199400
     10 C11        -2.1980    0.1940   -1.1680 c3        1 WST     -0.085700
     11 C13        -0.6740    0.0640   -1.3240 c3        1 WST      0.000600
     12 C15        -0.2480    1.2920   -2.1400 c3        1 WST     -0.067400
     13 C16        -1.3530    2.3320   -2.0240 c3        1 WST     -0.078400
     14 C17        -2.5250    1.6790   -1.3060 c3        1 WST     -0.072400
     15 C18        -4.1640   -0.2320    0.3450 ca        1 WST     -0.121300
     16 C19        -4.6630    0.7640    1.1880 ca        1 WST     -0.076500
     17 C20        -6.0370    0.9160    1.3650 ca        1 WST     -0.187500
     18 C21        -6.9150    0.0610    0.6860 ca        1 WST      0.127100
     19 O22        -8.2830    0.1500    0.8070 oh        1 WST     -0.497100
     20 C23        -6.4260   -0.9460   -0.1640 ca        1 WST     -0.187500
     21 C24        -5.0530   -1.0850   -0.3240 ca        1 WST     -0.076500
     22 HO3         3.0500   -0.3430   -0.9820 ho        1 WST      0.419000
     23 H4          3.2260   -0.2670    1.2680 ha        1 WST      0.134000
     24 H5          1.9590   -0.0850    3.4070 ha        1 WST      0.135000
     25 H6         -0.5440    0.0850    3.3720 ha        1 WST      0.150000
     26 H9         -2.4570   -1.5290    0.1230 h1        1 WST      0.056700
     27 H11        -2.6920   -0.3680   -2.0080 hc        1 WST      0.060700
     28 H13        -0.4270   -0.8690   -1.9020 hc        1 WST      0.064700
     29 H151       -0.1050    0.9930   -3.2090 hc        1 WST      0.050200
     30 H152        0.7300    1.6920   -1.7730 hc        1 WST      0.050200
     31 H161       -1.6610    2.6890   -3.0390 hc        1 WST      0.041200
     32 H162       -0.9960    3.2250   -1.4530 hc        1 WST      0.041200
     33 H171       -2.6680    2.1320   -0.2910 hc        1 WST      0.049700
     34 H172       -3.4770    1.8200   -1.8750 hc        1 WST      0.049700
     35 H19        -3.9630    1.4290    1.7200 ha        1 WST      0.143000
     36 H20        -6.4270    1.6990    2.0310 ha        1 WST      0.143000
     37 HO22       -8.4810    0.8710    1.4220 ho        1 WST      0.420000
     38 H23        -7.1320   -1.6070   -0.6840 ha        1 WST      0.143000
     39 H24        -4.6610   -1.8750   -0.9840 ha        1 WST      0.143000
@<TRIPOS>BOND
     1    1    2 ar  
     2    1    7 ar  
     3    1   11 1   
     4    2    3 1   
     5    2    4 ar  
     6    3   22 1   
     7    4    5 ar  
     8    4   23 1   
     9    5    6 ar  
    10    5   24 1   
    11    6    7 ar  
    12    6   25 1   
    13    7    8 1   
    14    8    9 1   
    15    9   10 1   
    16    9   15 1   
    17    9   26 1   
    18   10   11 1   
    19   10   14 1   
    20   10   27 1   
    21   11   12 1   
    22   11   28 1   
    23   12   13 1   
    24   12   29 1   
    25   12   30 1   
    26   13   14 1   
    27   13   31 1   
    28   13   32 1   
    29   14   33 1   
    30   14   34 1   
    31   15   16 ar  
    32   15   21 ar  
    33   16   17 ar  
    34   16   35 1   
    35   17   18 ar  
    36   17   36 1   
    37   18   19 1   
    38   18   20 ar  
    39   19   37 1   
    40   20   21 ar  
    41   20   38 1   
    42   21   39 1   
@<TRIPOS>SUBSTRUCTURE
     1 WST         1 TEMP              0 ****  ****    0 ROOT
