@<TRIPOS>MOLECULE
WT2
   27    26     1     0     0
SMALL
bcc


@<TRIPOS>ATOM
      1 CH          2.0130    2.2190   -0.3040 c         1 WT2      0.447600
      2 CZ          2.4810    0.7810   -0.0520 ce        1 WT2      0.418200
      3 NH          2.3530    0.1080    1.0310 n2        1 WT2     -0.676100
      4 NE          3.1610    0.1840   -1.2290 n4        1 WT2     -0.757000
      5 CD          3.4760   -1.2730   -1.1490 c3        1 WT2      0.121800
      6 CG          3.8960   -1.8820   -2.4850 c3        1 WT2     -0.109400
      7 CB          5.2960   -1.5130   -2.9440 c3        1 WT2     -0.095400
      8 CA          5.2510   -0.5750   -4.1570 c3        1 WT2     -0.038500
      9 C           4.4140    0.6780   -3.7240 c         1 WT2      0.893600
     10 OA2         5.0210    1.5130   -2.9940 o         1 WT2     -0.782300
     11 OA1         3.1930    0.6790   -4.0000 o         1 WT2     -0.782300
     12 N           6.6130   -0.1190   -4.5740 n4        1 WT2     -0.824600
     13 OH          1.4170    2.7920    0.5970 o         1 WT2     -0.426100
     14 HA          4.7610   -1.0860   -5.0340 hx        1 WT2      0.122700
     15 HN1         6.8870    0.6540   -3.9420 hn        1 WT2      0.460800
     16 HN2         7.2940   -0.8750   -4.5170 hn        1 WT2      0.460800
     17 HB1C        5.8490   -2.4510   -3.2160 hc        1 WT2      0.065700
     18 HB2C        5.8590   -1.0170   -2.1080 hc        1 WT2      0.065700
     19 HG1C        3.8490   -2.9980   -2.3360 hc        1 WT2      0.101700
     20 HG2C        3.1430   -1.6260   -3.2830 hc        1 WT2      0.101700
     21 HD1C        2.5480   -1.8130   -0.7940 hx        1 WT2      0.110200
     22 HD2C        4.2840   -1.4130   -0.3760 hx        1 WT2      0.110200
     23 HH1N        1.8890    0.5700    1.7920 hn        1 WT2      0.481400
     24 HH          2.2480    2.6640   -1.2930 h4        1 WT2      0.079200
     25 HNE         2.5630    0.3570   -2.0650 hn        1 WT2      0.495300
     26 HE3         4.0400    0.7230   -1.3780 hn        1 WT2      0.495300
     27 HN3         6.5710    0.2410   -5.5300 hn        1 WT2      0.460800
@<TRIPOS>BOND
     1    1    2 1   
     2    1   13 2   
     3    1   24 1   
     4    2    3 2   
     5    2    4 1   
     6    3   23 1   
     7    4    5 1   
     8    4   25 1   
     9    4   26 1   
    10    5    6 1   
    11    5   21 1   
    12    5   22 1   
    13    6    7 1   
    14    6   19 1   
    15    6   20 1   
    16    7    8 1   
    17    7   17 1   
    18    7   18 1   
    19    8    9 1   
    20    8   12 1   
    21    8   14 1   
    22    9   10 1   
    23    9   11 1   
    24   12   15 1   
    25   12   16 1   
    26   12   27 1   
@<TRIPOS>SUBSTRUCTURE
     1 WT2         1 TEMP              0 ****  ****    0 ROOT
