@<TRIPOS>MOLECULE
WT2
   27    26     1     0     0
SMALL
bcc


@<TRIPOS>ATOM
      1 CH          2.0290    2.1260   -0.1780 c         1 WT2      0.447600
      2 CZ          2.4740    0.6690   -0.0120 ce        1 WT2      0.418200
      3 NH          2.3260   -0.0690    1.0270 n2        1 WT2     -0.676100
      4 NE          3.1570    0.1350   -1.2180 ny        1 WT2     -0.757000
      5 CD          3.4490   -1.3290   -1.2250 c3        1 WT2      0.121800
      6 CG          3.8740   -1.8590   -2.5940 c3        1 WT2     -0.109400
      7 CB          5.2840   -1.4840   -3.0160 c3        1 WT2     -0.095400
      8 CA          5.2640   -0.4720   -4.1690 c3        1 WT2     -0.038500
      9 C           4.4410    0.7650   -3.6660 c         1 WT2      0.893600
     10 OA2         5.0530    1.5430   -2.8800 o         1 WT2     -0.782300
     11 OA1         3.2230    0.8020   -3.9520 o         1 WT2     -0.782300
     12 N           6.6360   -0.0110   -4.5430 nz        1 WT2     -0.824600
     13 OH          1.4310    2.6510    0.7510 o         1 WT2     -0.426100
     14 HA          4.7760   -0.9190   -5.0800 hx        1 WT2      0.122700
     15 HN1         6.6090    0.4080   -5.4760 hn        1 WT2      0.460800
     16 HN2         6.9160    0.7170   -3.8620 hn        1 WT2      0.460800
     17 HB1C        5.8260   -2.4120   -3.3410 hc        1 WT2      0.065700
     18 HB2C        5.8460   -1.0500   -2.1460 hc        1 WT2      0.065700
     19 HG1C        3.1320   -1.5430   -3.3810 hc        1 WT2      0.101700
     20 HG2C        3.8080   -2.9810   -2.5150 hc        1 WT2      0.101700
     21 HD1C        4.2480   -1.5280   -0.4550 hx        1 WT2      0.110200
     22 HD2C        2.5110   -1.8750   -0.9140 hx        1 WT2      0.110200
     23 HH1N        1.8610    0.3520    1.8110 hn        1 WT2      0.481400
     24 HH          2.2790    2.6280   -1.1360 h4        1 WT2      0.079200
     25 HNE         2.5690    0.3700   -2.0470 hn        1 WT2      0.495300
     26 HE3         4.0450    0.6690   -1.3250 hn        1 WT2      0.495300
     27 HN3         7.3060   -0.7800   -4.5270 hn        1 WT2      0.460800
@<TRIPOS>BOND
     1    1    2 1   
     2    1   13 2   
     3    1   24 1   
     4    2    3 2   
     5    2    4 1   
     6    3   23 1   
     7    4    5 1   
     8    4   25 1   
     9    4   26 1   
    10    5    6 1   
    11    5   21 1   
    12    5   22 1   
    13    6    7 1   
    14    6   19 1   
    15    6   20 1   
    16    7    8 1   
    17    7   17 1   
    18    7   18 1   
    19    8    9 1   
    20    8   12 1   
    21    8   14 1   
    22    9   10 1   
    23    9   11 1   
    24   12   15 1   
    25   12   16 1   
    26   12   27 1   
@<TRIPOS>SUBSTRUCTURE
     1 WT2         1 TEMP              0 ****  ****    0 ROOT
