@<TRIPOS>MOLECULE
WT4
   48    47     1     0     0
SMALL
bcc


@<TRIPOS>ATOM
      1 C7         -1.5420    0.8580    1.2470 c         1 WT4      0.662100
      2 O1         -1.4060    0.8020    2.4900 o         1 WT4     -0.648100
      3 O2         -8.0080   -0.1990   -2.0380 o         1 WT4     -0.848300
      4 C8         -2.8350    1.3410    0.6160 c3        1 WT4     -0.150400
      5 C12        -7.3930    0.1180   -0.9780 c         1 WT4      0.886600
      6 C11        -5.9630   -0.4750   -0.7480 c3        1 WT4      0.022500
      7 C9         -3.6800    0.1830    0.1260 c3        1 WT4     -0.073400
      8 N2         -5.4760   -1.3090   -1.8390 n3        1 WT4     -0.891800
      9 N1         -0.5230    0.4680    0.4040 n         1 WT4     -0.561900
     10 C4          0.7700    0.0520    0.8840 c3        1 WT4      0.035700
     11 C5          0.9170   -1.4750    1.0360 c3        1 WT4     -0.083400
     12 C6         -0.1340   -2.0340    1.9580 c3        1 WT4      0.021700
     13 S1          0.4140   -3.6400    2.4960 sh        1 WT4     -0.422900
     14 C3          1.9020    0.5150   -0.0810 c         1 WT4      0.638100
     15 O           1.6550    0.7110   -1.2920 o         1 WT4     -0.637100
     16 C           6.3470   -1.9350   -2.0570 c3        1 WT4     -0.043000
     17 N           3.1580    0.5940    0.4640 n         1 WT4     -0.512900
     18 C1          5.3730    0.1080   -0.5490 c3        1 WT4      0.011700
     19 C2          4.2950    1.1440   -0.2440 c3        1 WT4     -0.042300
     20 C13         5.0250    2.2730    0.5940 c         1 WT4      0.912600
     21 H8         -3.3950    1.9130    1.4030 hc        1 WT4      0.064200
     22 H8A        -2.6190    2.0440   -0.2300 hc        1 WT4      0.064200
     23 H11        -6.0480   -1.1530    0.1510 h1        1 WT4      0.041700
     24 H10        -4.8570    1.3320   -1.2820 hc        1 WT4      0.047200
     25 H10A       -5.5320    1.2880    0.3960 hc        1 WT4      0.047200
     26 H9         -3.1350   -0.3680   -0.6840 hc        1 WT4      0.045200
     27 H9A        -3.8460   -0.5400    0.9680 hc        1 WT4      0.045200
     28 HN2        -6.2670   -1.8200   -2.2000 hn        1 WT4      0.330300
     29 HN2A       -5.1620   -0.7140   -2.5850 hn        1 WT4      0.330300
     30 HN1        -0.6330    0.5400   -0.5820 hn        1 WT4      0.333500
     31 H4          0.9220    0.5230    1.9040 h1        1 WT4      0.088700
     32 H5          0.8520   -1.9640    0.0290 hc        1 WT4      0.068200
     33 H5A         1.9400   -1.6830    1.4510 hc        1 WT4      0.068200
     34 H6         -0.2820   -1.3630    2.8410 h1        1 WT4      0.078200
     35 H6A        -1.1150   -2.1240    1.4330 h1        1 WT4      0.078200
     36 HS1        -0.6630   -4.0050    3.1660 hs        1 WT4      0.194800
     37 H           6.1460   -2.6770   -2.8620 h1        1 WT4      0.044367
     38 HA          7.1860   -1.2740   -2.3730 h1        1 WT4      0.044367
     39 HB          6.6600   -2.4750   -1.1360 h1        1 WT4      0.044367
     40 HN          3.2330    0.6820    1.4580 hn        1 WT4      0.325500
     41 H1          5.6500   -0.4590    0.3710 h1        1 WT4      0.064700
     42 H1A         6.2750    0.6690   -0.9020 h1        1 WT4      0.064700
     43 H2          3.9440    1.6060   -1.2120 h1        1 WT4      0.086700
     44 S           4.8650   -1.0340   -1.8130 ss        1 WT4     -0.313200
     45 C10        -5.0170    0.6720   -0.3900 c3        1 WT4     -0.065400
     46 O4          5.8230    3.0050   -0.0470 o         1 WT4     -0.824800
     47 O5          4.7860    2.3490    1.8290 o         1 WT4     -0.824800
     48 O3         -7.8720    0.8640   -0.0790 o         1 WT4     -0.848300
@<TRIPOS>BOND
     1    1    2 2   
     2    1    4 1   
     3    1    9 1   
     4    3    5 1   
     5    4    7 1   
     6    4   21 1   
     7    4   22 1   
     8    5    6 1   
     9    5   48 1   
    10    6    8 1   
    11    6   23 1   
    12    6   45 1   
    13    7   26 1   
    14    7   27 1   
    15    7   45 1   
    16    8   28 1   
    17    8   29 1   
    18    9   10 1   
    19    9   30 1   
    20   10   11 1   
    21   10   14 1   
    22   10   31 1   
    23   11   12 1   
    24   11   32 1   
    25   11   33 1   
    26   12   13 1   
    27   12   34 1   
    28   12   35 1   
    29   13   36 1   
    30   14   15 2   
    31   14   17 1   
    32   16   37 1   
    33   16   38 1   
    34   16   39 1   
    35   16   44 1   
    36   17   19 1   
    37   17   40 1   
    38   18   19 1   
    39   18   41 1   
    40   18   42 1   
    41   18   44 1   
    42   19   20 1   
    43   19   43 1   
    44   20   46 1   
    45   20   47 1   
    46   24   45 1   
    47   25   45 1   
@<TRIPOS>SUBSTRUCTURE
     1 WT4         1 TEMP              0 ****  ****    0 ROOT
