@<TRIPOS>MOLECULE
WT4
   48    44     1     0     0
SMALL
bcc


@<TRIPOS>ATOM
      1 C7         -0.3700   -0.2350    1.4840 c1        1 WT4      0.306000
      2 O1          0.7200   -0.7700    1.4420 o         1 WT4     -0.409000
      3 O2          0.3340    0.3400    8.2010 o         1 WT4     -0.574000
      4 C8         -1.0460    0.0010    2.8170 c3        1 WT4     -0.179000
      5 C12        -0.4930   -0.4130    7.6220 c1        1 WT4      0.306000
      6 C11        -0.1110   -1.1050    6.3340 c3        1 WT4     -0.125000
      7 C10        -0.9870   -0.5970    5.2120 c3        1 WT4     -0.144000
      8 C9         -0.1940   -0.5770    3.9240 c3        1 WT4     -0.152000
      9 N2         -0.2920   -2.5090    6.4790 n3        1 WT4     -0.324000
     10 O3         -1.6280   -0.6090    8.1300 os        1 WT4     -0.591000
     11 N1         -1.0070    0.1710    0.2830 n2        1 WT4     -0.370000
     12 C4         -0.4660   -0.2130   -0.9720 c3        1 WT4      0.007000
     13 C5         -1.4860   -1.0320   -1.7310 c3        1 WT4     -0.164000
     14 C6         -1.0750   -2.4870   -1.7190 c3        1 WT4     -0.239000
     15 S1         -2.2480   -3.4400   -2.6440 sh        1 WT4     -0.064000
     16 C3         -0.1180    1.0240   -1.7700 c1        1 WT4      0.276000
     17 O          -0.7410    2.0520   -1.6000 o         1 WT4     -0.407000
     18 C           1.7860    2.2680   -7.7950 c3        1 WT4     -0.351000
     19 N           0.9050    0.9680   -2.7530 n2        1 WT4     -0.329000
     20 S           1.6760    2.8830   -6.1360 ss        1 WT4      0.012000
     21 C1          1.4540    1.5260   -5.0170 c3        1 WT4     -0.258000
     22 C2          1.0890    2.0560   -3.6480 c3        1 WT4     -0.058000
     23 O4          3.2870    2.4380   -2.7560 o         1 WT4     -0.561500
     24 O5          2.0430    4.1940   -3.1070 o         1 WT4     -0.561500
     25 C13         2.2000    2.9450   -3.1390 c2        1 WT4      0.329000
     26 H8         -1.1580    0.9630    2.9590 hc        1 WT4      0.103500
     27 H8A        -1.9230   -0.4330    2.8190 hc        1 WT4      0.103500
     28 H11         0.8250   -0.9160    6.1280 h1        1 WT4      0.081000
     29 H10        -1.7610   -1.1870    5.1090 hc        1 WT4      0.086500
     30 H10A       -1.2930    0.3090    5.4210 hc        1 WT4      0.086500
     31 H9          0.0700   -1.4890    3.6900 hc        1 WT4      0.084500
     32 H9A         0.6050   -0.0260    4.0420 hc        1 WT4      0.084500
     33 HN2         0.5160   -2.9310    6.3910 hn        1 WT4      0.125500
     34 HN2A       -0.6420   -2.6890    7.3060 hn        1 WT4      0.125500
     35 HN1        -1.7690    0.6710    0.3180 hn        1 WT4      0.247000
     36 H4          0.3400   -0.7470   -0.8300 h1        1 WT4      0.129000
     37 H5         -2.3620   -0.9370   -1.3050 hc        1 WT4      0.105000
     38 H5A        -1.5370   -0.7150   -2.6550 hc        1 WT4      0.105000
     39 H6         -0.1890   -2.5780   -2.1230 h1        1 WT4      0.117500
     40 H6A        -1.0470   -2.8100   -0.7960 h1        1 WT4      0.117500
     41 HS1        -2.0380   -4.5880   -2.4800 hs        1 WT4      0.024000
     42 H           2.0510    2.9960   -8.3960 h1        1 WT4      0.107333
     43 HA          2.4540    1.5520   -7.8350 h1        1 WT4      0.107333
     44 HB          0.9140    1.9170   -8.0730 h1        1 WT4      0.107333
     45 HN          1.4280    0.2250   -2.8250 hn        1 WT4      0.243000
     46 H1          2.2850    1.0140   -4.9570 h1        1 WT4      0.109000
     47 H1A         0.7370    0.9460   -5.3440 h1        1 WT4      0.109000
     48 H2          0.2610    2.5710   -3.7090 h1        1 WT4      0.117000
@<TRIPOS>BOND
     1    1    2 1   
     2    1    4 1   
     3    3    5 1   
     4    4    8 1   
     5    4   26 1   
     6    4   27 1   
     7    5    6 1   
     8    6    7 1   
     9    6    9 1   
    10    6   28 1   
    11    7    8 1   
    12    7   29 1   
    13    7   30 1   
    14    8   31 1   
    15    8   32 1   
    16    9   33 1   
    17    9   34 1   
    18   11   12 1   
    19   11   35 1   
    20   12   13 1   
    21   12   16 1   
    22   12   36 1   
    23   13   14 1   
    24   13   37 1   
    25   13   38 1   
    26   14   15 1   
    27   14   39 1   
    28   14   40 1   
    29   15   41 1   
    30   16   17 1   
    31   18   20 1   
    32   18   42 1   
    33   18   43 1   
    34   18   44 1   
    35   19   22 1   
    36   19   45 1   
    37   20   21 1   
    38   21   22 1   
    39   21   46 1   
    40   21   47 1   
    41   22   25 1   
    42   22   48 1   
    43   23   25 1   
    44   24   25 1   
@<TRIPOS>SUBSTRUCTURE
     1 WT4         1 TEMP              0 ****  ****    0 ROOT
