@<TRIPOS>MOLECULE
WT4
   51    43     1     0     0
SMALL
bcc


@<TRIPOS>ATOM
      1 C7         -0.3700    1.4220    0.4410 c2        1 WT4      0.255000
      2 O1          0.0770    0.5840   -0.3600 o         1 WT4     -0.442000
      3 O2          1.6250    0.1710    5.9490 o         1 WT4     -0.216250
      4 C8         -1.7940    1.4720    0.8500 c3        1 WT4     -0.305000
      5 C12         1.9450   -0.1540    7.0510 c1        1 WT4      0.433000
      6 C11        -0.6960    2.4310    4.1040 c2        1 WT4     -0.085000
      7 C9         -1.7540    1.6960    4.5010 c2        1 WT4     -0.256000
      8 N2          0.5490    1.9390    3.7030 n8        1 WT4     -0.332000
      9 N1          1.3700   -1.2160   -1.9960 n7        1 WT4     -0.171000
     10 C4          2.2450   -2.0140   -2.7840 c2        1 WT4     -0.118000
     11 C5          1.9340   -2.6330   -3.9330 c2        1 WT4     -0.129000
     12 C6          1.0870   -5.9580   -2.0240 c3        1 WT4     -0.306000
     13 S1          0.6500   -4.6090   -3.0750 sh        1 WT4     -0.094000
     14 C3          0.0690   -1.2950   -2.0460 c1        1 WT4      0.516000
     15 O          -1.0920   -1.4330   -1.9790 o         1 WT4      0.026000
     16 C          -0.6730    2.1050   -8.8790 c1        1 WT4     -1.046000
     17 N          -0.0260    0.1240   -4.2610 n2        1 WT4     -0.357000
     18 C1         -2.4510    0.1290   -4.6270 c3        1 WT4     -0.216000
     19 C2         -1.0450    0.5210   -4.9320 c2        1 WT4     -0.007000
     20 C13         1.9020    2.5220   -7.2050 c1        1 WT4      0.433000
     21 H8         -2.3910    0.6380    0.4100 hc        1 WT4      0.123667
     22 H8A        -1.7950   -0.3010    3.7260 hc        1 WT4      0.076333
     23 H11        -2.7110    2.2030    4.6970 ha        1 WT4      0.135000
     24 H10        -2.6060   -0.0850    5.3300 hc        1 WT4      0.076333
     25 H10A       -0.7970   -0.0920    5.2230 hc        1 WT4      0.076333
     26 H9         -2.2400    2.4470    0.5280 hc        1 WT4      0.123667
     27 H9A        -1.8540    1.4190    1.9720 hc        1 WT4      0.123667
     28 HN2        -0.7940    3.5300    4.0000 h4        1 WT4      0.136000
     29 HN2A        0.7300    1.0070    4.0220 hn        1 WT4      0.176000
     30 HN1         1.7440   -0.3950   -1.5260 hn        1 WT4      0.332000
     31 H4          3.2370   -2.0750   -2.2940 h4        1 WT4      0.191000
     32 H5          0.9680   -2.5340   -4.4520 ha        1 WT4      0.161500
     33 H5A         1.4310   -6.8360   -2.6140 h1        1 WT4      0.115000
     34 H6          1.9220   -5.5980   -1.3820 h1        1 WT4      0.115000
     35 H6A         0.2320   -6.2620   -1.3810 h1        1 WT4      0.115000
     36 HS1        -0.3160   -5.1710   -3.7910 hs        1 WT4      0.060000
     37 H          -2.0480    2.3600  -10.6010 hs        1 WT4     -0.334000
     38 HA         -0.5290    1.6320   -7.9410 ha        1 WT4      0.193000
     39 HB         -0.9630    1.2010   -5.8140 h4        1 WT4      0.121000
     40 HN          0.8530    0.4720   -4.5870 hn        1 WT4      0.163000
     41 H1         -2.5420   -0.5330   -3.7320 hc        1 WT4      0.103333
     42 H1A        -2.8780   -0.4050   -5.5130 hc        1 WT4      0.103333
     43 H2         -3.0540    1.0550   -4.4480 hc        1 WT4      0.103333
     44 S          -0.8950    2.6940  -10.0940 sh        1 WT4      1.188000
     45 C10        -1.7360    0.2370    4.7060 c3        1 WT4     -0.175000
     46 O4          2.4540    3.1950   -8.0090 o         1 WT4     -0.216250
     47 O5          1.3760    1.8480   -6.3700 o         1 WT4     -0.216250
     48 H23         1.2990    2.5500    3.9560 hn        1 WT4      0.176000
     49 H12         0.3050    2.1820    0.8970 h4        1 WT4      0.126000
     50 HN3         2.6960   -3.2350   -4.4540 ha        1 WT4      0.161500
     51 O3          2.2640   -0.4810    8.1460 o         1 WT4     -0.216250
@<TRIPOS>BOND
     1    1    2 1   
     2    1    4 1   
     3    1   49 1   
     4    3    5 1   
     5    4   21 1   
     6    4   26 1   
     7    4   27 1   
     8    5   51 1   
     9    6    7 1   
    10    6    8 1   
    11    6   28 1   
    12    7   23 1   
    13    7   45 1   
    14    8   29 1   
    15    8   48 1   
    16    9   10 1   
    17    9   14 1   
    18    9   30 1   
    19   10   11 1   
    20   10   31 1   
    21   11   32 1   
    22   11   50 1   
    23   12   13 1   
    24   12   33 1   
    25   12   34 1   
    26   12   35 1   
    27   13   36 1   
    28   14   15 1   
    29   16   38 1   
    30   16   44 1   
    31   17   19 1   
    32   17   40 1   
    33   18   19 1   
    34   18   41 1   
    35   18   42 1   
    36   18   43 1   
    37   19   39 1   
    38   20   46 1   
    39   20   47 1   
    40   22   45 1   
    41   24   45 1   
    42   25   45 1   
    43   37   44 1   
@<TRIPOS>SUBSTRUCTURE
     1 WT4         1 TEMP              0 ****  ****    0 ROOT
