@<TRIPOS>MOLECULE
WT4
   48    44     1     0     0
SMALL
bcc


@<TRIPOS>ATOM
      1 C7         22.3920   15.2740 -224.2300 c2        1 WT4      0.294000
      2 O1         22.2680   16.2300 -223.4340 o         1 WT4     -0.392000
      3 O2        -52.0610  -44.9930  606.4810 o         1 WT4     -0.612000
      4 C8         22.9260   13.9390 -223.7660 c3        1 WT4     -0.242000
      5 C12       -53.2430  -44.5450  606.6780 c2        1 WT4      0.357000
      6 C11       -53.8030  -43.6310  605.6390 cu        1 WT4     -0.422000
      7 C9        -54.5770  -44.0450  604.4440 cx        1 WT4     -0.062000
      8 N2        -53.1600  -43.6070  604.3140 n4        1 WT4     -0.096000
      9 N1         22.1150   15.4150 -225.5760 n         1 WT4     -0.365000
     10 C4         21.3350   16.5390 -226.0630 c3        1 WT4     -0.145000
     11 C5         22.0020   17.8050 -226.2910 c1        1 WT4     -0.068000
     12 C6         20.0790   19.4710 -224.0060 c3        1 WT4     -0.316000
     13 S1         21.0280   19.4810 -222.5190 sh        1 WT4     -0.115000
     14 C3         20.4480   16.1620 -227.2850 c2        1 WT4      0.341000
     15 O          20.5030   15.0210 -227.7720 o         1 WT4     -0.361000
     16 C          16.8580   13.5830 -230.3390 c1        1 WT4     -1.091000
     17 N          19.6370   17.1890 -227.8020 n         1 WT4     -0.263000
     18 C1         17.4620   16.7190 -228.7960 c2        1 WT4     -0.233000
     19 C2         18.2230   16.9590 -227.7140 c2        1 WT4     -0.085000
     20 C13        17.6040   17.0280 -226.3040 c2        1 WT4      0.349000
     21 H8         23.8210   13.6390 -224.3620 hc        1 WT4      0.100000
     22 H8A       -54.8580  -45.5990  602.9390 hc        1 WT4      0.074333
     23 H11       -55.3420  -43.3380  604.0430 hx        1 WT4      0.081000
     24 H10       -55.9050  -45.7080  604.4190 hc        1 WT4      0.074333
     25 H10A      -54.1600  -46.1740  604.5210 hc        1 WT4      0.074333
     26 H9         22.1360   13.1570 -223.8740 hc        1 WT4      0.100000
     27 H9A        23.2140   14.0200 -222.6900 hc        1 WT4      0.100000
     28 HN2       -52.9640  -42.7080  603.9190 hn        1 WT4      0.184000
     29 HN2A      -52.4530  -44.2970  604.0920 hn        1 WT4      0.184000
     30 HN1        22.0520   14.5860 -226.1270 hn        1 WT4      0.231000
     31 H4         20.5400   16.8500 -225.2570 h1        1 WT4      0.254000
     32 H5         23.0080   17.9510 -225.8750 ha        1 WT4      0.059000
     33 H5A        20.7330   19.3400 -224.8990 h1        1 WT4      0.117667
     34 H6         19.5760   20.4610 -224.0590 h1        1 WT4      0.117667
     35 H6A        19.3060   18.6640 -224.0140 h1        1 WT4      0.117667
     36 HS1        21.4050   18.2030 -222.4920 hs        1 WT4      0.077000
     37 H          16.6680   13.0910 -231.2580 ha        1 WT4      0.188000
     38 HA         17.5610   15.5690 -231.8900 ha        1 WT4      0.000000
     39 HB         17.7410   16.0670 -232.3140 ha        1 WT4      0.000000
     40 HN         19.8520   18.0730 -227.3620 hn        1 WT4      0.219000
     41 H1         17.8440   16.6770 -229.8250 ha        1 WT4      0.125000
     42 H1A        16.3700   16.6430 -228.6630 ha        1 WT4      0.125000
     43 H2         17.2120   13.4000 -228.1660 hs        1 WT4     -0.350000
     44 S          17.1090   14.2370 -229.1660 sh        1 WT4      1.232000
     45 C10       -54.8810  -45.4610  604.0480 c3        1 WT4     -0.225000
     46 O4         16.3520   17.0010 -226.2100 o         1 WT4     -0.560500
     47 O5         18.4050   17.1050 -225.3230 o         1 WT4     -0.560500
     48 O3        -53.9230  -44.8460  607.7000 o         1 WT4     -0.612000
@<TRIPOS>BOND
     1    1    2 1   
     2    1    4 1   
     3    1    9 1   
     4    3    5 1   
     5    4   21 1   
     6    4   26 1   
     7    4   27 1   
     8    5    6 1   
     9    5   48 1   
    10    6    7 1   
    11    6    8 1   
    12    7    8 1   
    13    7   23 1   
    14    7   45 1   
    15    8   28 1   
    16    8   29 1   
    17    9   10 1   
    18    9   30 1   
    19   10   11 1   
    20   10   14 1   
    21   10   31 1   
    22   11   32 1   
    23   12   13 1   
    24   12   33 1   
    25   12   34 1   
    26   12   35 1   
    27   13   36 1   
    28   14   15 1   
    29   14   17 1   
    30   16   37 1   
    31   16   44 1   
    32   17   19 1   
    33   17   40 1   
    34   18   19 1   
    35   18   41 1   
    36   18   42 1   
    37   19   20 1   
    38   20   46 1   
    39   20   47 1   
    40   22   45 1   
    41   24   45 1   
    42   25   45 1   
    43   38   39 1   
    44   43   44 1   
@<TRIPOS>SUBSTRUCTURE
     1 WT4         1 TEMP              0 ****  ****    0 ROOT
