@<TRIPOS>MOLECULE
WTC
   40    43     1     0     0
SMALL
bcc


@<TRIPOS>ATOM
      1 C1         -0.9690    1.2870   -1.0740 cc        1 WTC     -0.375900
      2 C2         -1.0390    0.2040   -0.1290 cd        1 WTC      0.175100
      3 N3         -2.3940   -0.1450   -0.0360 na        1 WTC      0.112400
      4 N4         -3.1450    0.6350   -0.8450 nd        1 WTC     -0.508800
      5 C5         -2.3280    1.5050   -1.4840 cc        1 WTC      0.378200
      6 C6          0.3080    1.8710   -1.3940 c         1 WTC      0.750100
      7 N7          1.3970    1.2860   -0.6930 n         1 WTC     -0.489400
      8 C8          1.2310    0.2340    0.2060 cc        1 WTC      0.512900
      9 N9          0.0660   -0.3350    0.5230 nd        1 WTC     -0.628100
     10 C10        -2.9330   -1.2030    0.8110 c3        1 WTC      0.070000
     11 C11        -3.6550   -2.3290    0.0410 c3        1 WTC     -0.091400
     12 C12        -4.6630   -2.9150    1.0180 c3        1 WTC     -0.079400
     13 C13        -4.8480   -1.9140    2.1510 c3        1 WTC     -0.079400
     14 C14        -3.9520   -0.7180    1.8640 c3        1 WTC     -0.091400
     15 O15         0.5470    2.7990   -2.1850 o         1 WTC     -0.622500
     16 C16         2.4860   -0.2720    0.9080 c3        1 WTC     -0.077400
     17 C17         3.6280   -0.4440   -0.0310 ca        1 WTC     -0.108300
     18 C18         3.7840   -1.6430   -0.7370 ca        1 WTC     -0.122000
     19 C19         4.8640   -1.8120   -1.6010 ca        1 WTC     -0.124500
     20 C20         5.7970   -0.7870   -1.7660 ca        1 WTC     -0.119000
     21 C21         5.6480    0.4080   -1.0620 ca        1 WTC     -0.124500
     22 C22         4.5680    0.5800   -0.1980 ca        1 WTC     -0.122000
     23 H5         -2.7010    2.2440   -2.1970 h4        1 WTC      0.058100
     24 HN7         2.3200    1.6100   -0.8930 hn        1 WTC      0.341500
     25 H10        -2.0480   -1.6520    1.3530 h1        1 WTC      0.084700
     26 H11        -4.1810   -1.9330   -0.8640 hc        1 WTC      0.060700
     27 H11A       -2.9190   -3.0970   -0.3010 hc        1 WTC      0.060700
     28 H12        -5.6350   -3.1150    0.5010 hc        1 WTC      0.045200
     29 H12A       -4.2940   -3.8930    1.4200 hc        1 WTC      0.045200
     30 H13        -5.9160   -1.5910    2.2260 hc        1 WTC      0.045200
     31 H13A       -4.5730   -2.3810    3.1310 hc        1 WTC      0.045200
     32 H14        -3.4230   -0.3700    2.7840 hc        1 WTC      0.060700
     33 H14A       -4.5640    0.1370    1.4780 hc        1 WTC      0.060700
     34 H16         2.7440    0.4750    1.7090 hc        1 WTC      0.085700
     35 H16A        2.2640   -1.2500    1.4170 hc        1 WTC      0.085700
     36 H18         3.0500   -2.4540   -0.6080 ha        1 WTC      0.136500
     37 H19         4.9800   -2.7560   -2.1540 ha        1 WTC      0.138000
     38 H20         6.6480   -0.9210   -2.4490 ha        1 WTC      0.137000
     39 H21         6.3830    1.2170   -1.1880 ha        1 WTC      0.138000
     40 H22         4.4600    1.5220    0.3620 ha        1 WTC      0.136500
@<TRIPOS>BOND
     1    1    2 2   
     2    1    5 1   
     3    1    6 1   
     4    2    3 1   
     5    2    9 1   
     6    3    4 1   
     7    3   10 1   
     8    4    5 2   
     9    5   23 1   
    10    6    7 1   
    11    6   15 2   
    12    7    8 1   
    13    7   24 1   
    14    8    9 2   
    15    8   16 1   
    16   10   11 1   
    17   10   14 1   
    18   10   25 1   
    19   11   12 1   
    20   11   26 1   
    21   11   27 1   
    22   12   13 1   
    23   12   28 1   
    24   12   29 1   
    25   13   14 1   
    26   13   30 1   
    27   13   31 1   
    28   14   32 1   
    29   14   33 1   
    30   16   17 1   
    31   16   34 1   
    32   16   35 1   
    33   17   18 ar  
    34   17   22 ar  
    35   18   19 ar  
    36   18   36 1   
    37   19   20 ar  
    38   19   37 1   
    39   20   21 ar  
    40   20   38 1   
    41   21   22 ar  
    42   21   39 1   
    43   22   40 1   
@<TRIPOS>SUBSTRUCTURE
     1 WTC         1 TEMP              0 ****  ****    0 ROOT
