@<TRIPOS>MOLECULE
WTC
   40    43     1     0     0
SMALL
bcc


@<TRIPOS>ATOM
      1 C1          0.7810   -0.9070    0.0610 cc        1 WTC     -0.375900
      2 C2          1.8290   -0.0230    0.5010 cd        1 WTC      0.175100
      3 N3          1.6530    0.1320    1.8840 na        1 WTC      0.112400
      4 N4          0.5900   -0.5830    2.3130 nd        1 WTC     -0.508800
      5 C5          0.0410   -1.2200    1.2520 cc        1 WTC      0.378200
      6 C6          0.6930   -1.2700   -1.3300 c         1 WTC      0.750100
      7 N7          1.6940   -0.6720   -2.1420 n         1 WTC     -0.489400
      8 C8          2.6730    0.1720   -1.6230 cc        1 WTC      0.512900
      9 N9          2.7890    0.5270   -0.3420 nd        1 WTC     -0.628100
     10 C10         2.4960    0.9470    2.7510 c3        1 WTC      0.070000
     11 C11         3.2100    0.1570    3.8680 c3        1 WTC     -0.091400
     12 C12         3.4530    1.1570    4.9890 c3        1 WTC     -0.079400
     13 C13         2.5440    2.3550    4.7470 c3        1 WTC     -0.079400
     14 C14         1.7480    2.0850    3.4780 c3        1 WTC     -0.091400
     15 O15        -0.1370   -2.0190   -1.8720 o         1 WTC     -0.622500
     16 C16         3.6640    0.7650   -2.6200 c3        1 WTC     -0.077400
     17 C17         4.1780   -0.2510   -3.5780 ca        1 WTC     -0.108300
     18 C18         5.2900   -1.0320   -3.2440 ca        1 WTC     -0.122000
     19 C19         5.7840   -1.9710   -4.1500 ca        1 WTC     -0.124500
     20 C20         5.1730   -2.1340   -5.3930 ca        1 WTC     -0.119000
     21 C21         4.0660   -1.3550   -5.7310 ca        1 WTC     -0.124500
     22 C22         3.5690   -0.4160   -4.8280 ca        1 WTC     -0.122000
     23 H5         -0.8360   -1.8640    1.3440 h4        1 WTC      0.058100
     24 HN7         1.7230   -0.9090   -3.1110 hn        1 WTC      0.341500
     25 H10         3.2820    1.4070    2.0820 h1        1 WTC      0.084700
     26 H11         4.1690   -0.2730    3.4870 hc        1 WTC      0.060700
     27 H11A        2.5790   -0.6900    4.2380 hc        1 WTC      0.060700
     28 H12         3.2370    0.6880    5.9810 hc        1 WTC      0.045200
     29 H12A        4.5250    1.4780    5.0000 hc        1 WTC      0.045200
     30 H13         3.1530    3.2880    4.6340 hc        1 WTC      0.045200
     31 H13A        1.8530    2.5120    5.6120 hc        1 WTC      0.045200
     32 H14         1.6940    2.9900    2.8260 hc        1 WTC      0.060700
     33 H14A        0.7010    1.7860    3.7360 hc        1 WTC      0.060700
     34 H16         4.5230    1.2300   -2.0640 hc        1 WTC      0.085700
     35 H16A        3.1310    1.5900   -3.1690 hc        1 WTC      0.085700
     36 H18         5.7750   -0.9050   -2.2640 ha        1 WTC      0.136500
     37 H19         6.6570   -2.5830   -3.8810 ha        1 WTC      0.138000
     38 H20         5.5630   -2.8750   -6.1060 ha        1 WTC      0.137000
     39 H21         3.5830   -1.4800   -6.7120 ha        1 WTC      0.138000
     40 H22         2.7020    0.2020   -5.1040 ha        1 WTC      0.136500
@<TRIPOS>BOND
     1    1    2 2   
     2    1    5 1   
     3    1    6 1   
     4    2    3 1   
     5    2    9 1   
     6    3    4 1   
     7    3   10 1   
     8    4    5 2   
     9    5   23 1   
    10    6    7 1   
    11    6   15 2   
    12    7    8 1   
    13    7   24 1   
    14    8    9 2   
    15    8   16 1   
    16   10   11 1   
    17   10   14 1   
    18   10   25 1   
    19   11   12 1   
    20   11   26 1   
    21   11   27 1   
    22   12   13 1   
    23   12   28 1   
    24   12   29 1   
    25   13   14 1   
    26   13   30 1   
    27   13   31 1   
    28   14   32 1   
    29   14   33 1   
    30   16   17 1   
    31   16   34 1   
    32   16   35 1   
    33   17   18 ar  
    34   17   22 ar  
    35   18   19 ar  
    36   18   36 1   
    37   19   20 ar  
    38   19   37 1   
    39   20   21 ar  
    40   20   38 1   
    41   21   22 ar  
    42   21   39 1   
    43   22   40 1   
@<TRIPOS>SUBSTRUCTURE
     1 WTC         1 TEMP              0 ****  ****    0 ROOT
