@<TRIPOS>MOLECULE
WTC
   40    43     1     0     0
SMALL
bcc


@<TRIPOS>ATOM
      1 C1          0.9350   -1.2070    0.0210 cc        1 WTC     -0.375900
      2 C2          1.8520   -0.2080    0.5040 cd        1 WTC      0.175100
      3 N3          1.6730   -0.1540    1.8940 na        1 WTC      0.112400
      4 N4          0.7270   -1.0340    2.2890 nd        1 WTC     -0.508800
      5 C5          0.2600   -1.6850    1.1970 cc        1 WTC      0.378200
      6 C6          0.8820   -1.5040   -1.3870 c         1 WTC      0.750100
      7 N7          1.7780   -0.7270   -2.1700 n         1 WTC     -0.489400
      8 C8          2.6340    0.2190   -1.6100 cc        1 WTC      0.512900
      9 N9          2.7150    0.5170   -0.3110 nd        1 WTC     -0.628100
     10 C10         2.4020    0.7260    2.8010 c3        1 WTC      0.070000
     11 C11         3.2320   -0.0130    3.8720 c3        1 WTC     -0.091400
     12 C12         3.3440    0.9510    5.0440 c3        1 WTC     -0.079400
     13 C13         2.2720    2.0200    4.8690 c3        1 WTC     -0.079400
     14 C14         1.5090    1.7060    3.5900 c3        1 WTC     -0.091400
     15 O15         0.1600   -2.3330   -1.9660 o         1 WTC     -0.622500
     16 C16         3.5190    0.9990   -2.5770 c3        1 WTC     -0.077400
     17 C17         4.1590    0.1190   -3.5920 ca        1 WTC     -0.108300
     18 C18         5.3750   -0.5140   -3.3090 ca        1 WTC     -0.122000
     19 C19         5.9840   -1.3220   -4.2680 ca        1 WTC     -0.124500
     20 C20         5.3860   -1.5020   -5.5150 ca        1 WTC     -0.119000
     21 C21         4.1760   -0.8700   -5.8030 ca        1 WTC     -0.124500
     22 C22         3.5630   -0.0620   -4.8470 ca        1 WTC     -0.122000
     23 H5         -0.5150   -2.4510    1.2570 h4        1 WTC      0.058100
     24 HN7         1.8290   -0.9060   -3.1500 hn        1 WTC      0.341500
     25 H10         3.1070    1.3270    2.1550 h1        1 WTC      0.084700
     26 H11         4.2380   -0.2820    3.4650 hc        1 WTC      0.060700
     27 H11A        2.7320   -0.9590    4.1980 hc        1 WTC      0.060700
     28 H12         4.3590    1.4200    5.0690 hc        1 WTC      0.045200
     29 H12A        3.2060    0.4050    6.0110 hc        1 WTC      0.045200
     30 H13         2.7420    3.0340    4.8040 hc        1 WTC      0.045200
     31 H13A        1.5760    2.0320    5.7440 hc        1 WTC      0.045200
     32 H14         1.3200    2.6280    2.9880 hc        1 WTC      0.060700
     33 H14A        0.5170    1.2500    3.8360 hc        1 WTC      0.060700
     34 H16         4.3110    1.5490   -2.0000 hc        1 WTC      0.085700
     35 H16A        2.8680    1.7680   -3.0760 hc        1 WTC      0.085700
     36 H18         5.8490   -0.3730   -2.3260 ha        1 WTC      0.136500
     37 H19         6.9380   -1.8190   -4.0380 ha        1 WTC      0.138000
     38 H20         5.8670   -2.1410   -6.2700 ha        1 WTC      0.137000
     39 H21         3.7030   -1.0090   -6.7870 ha        1 WTC      0.138000
     40 H22         2.6140    0.4410   -5.0830 ha        1 WTC      0.136500
@<TRIPOS>BOND
     1    1    2 2   
     2    1    5 1   
     3    1    6 1   
     4    2    3 1   
     5    2    9 1   
     6    3    4 1   
     7    3   10 1   
     8    4    5 2   
     9    5   23 1   
    10    6    7 1   
    11    6   15 2   
    12    7    8 1   
    13    7   24 1   
    14    8    9 2   
    15    8   16 1   
    16   10   11 1   
    17   10   14 1   
    18   10   25 1   
    19   11   12 1   
    20   11   26 1   
    21   11   27 1   
    22   12   13 1   
    23   12   28 1   
    24   12   29 1   
    25   13   14 1   
    26   13   30 1   
    27   13   31 1   
    28   14   32 1   
    29   14   33 1   
    30   16   17 1   
    31   16   34 1   
    32   16   35 1   
    33   17   18 ar  
    34   17   22 ar  
    35   18   19 ar  
    36   18   36 1   
    37   19   20 ar  
    38   19   37 1   
    39   20   21 ar  
    40   20   38 1   
    41   21   22 ar  
    42   21   39 1   
    43   22   40 1   
@<TRIPOS>SUBSTRUCTURE
     1 WTC         1 TEMP              0 ****  ****    0 ROOT
