@<TRIPOS>MOLECULE
WTC
   40    43     1     0     0
SMALL
bcc


@<TRIPOS>ATOM
      1 C1          1.0480   -1.0040    0.1920 cc        1 WTC     -0.375900
      2 C2          1.9940    0.0280    0.5230 cd        1 WTC      0.171100
      3 N3          1.8780    0.2330    1.9060 na        1 WTC      0.110400
      4 N4          0.9510   -0.5920    2.4360 nd        1 WTC     -0.504800
      5 C5          0.4270   -1.3480    1.4420 cc        1 WTC      0.375200
      6 C6          0.9250   -1.4460   -1.1730 c         1 WTC      0.750100
      7 N7          1.7880   -0.7660   -2.0750 ns        1 WTC     -0.489400
      8 C8          2.6760    0.2230   -1.6590 cc        1 WTC      0.511900
      9 N9          2.8210    0.6540   -0.4040 nd        1 WTC     -0.628100
     10 C10         2.6710    1.1820    2.6870 c3        1 WTC      0.072000
     11 C11         3.5930    0.5030    3.7230 c3        1 WTC     -0.086900
     12 C12         2.9560    0.6900    5.0910 c3        1 WTC     -0.077900
     13 C13         1.8070    1.6770    4.9400 c3        1 WTC     -0.077900
     14 C14         1.8120    2.1710    3.5030 c3        1 WTC     -0.086900
     15 O15         0.1710   -2.3230   -1.6270 o         1 WTC     -0.622500
     16 C16         3.5180    0.8870   -2.7430 c3        1 WTC     -0.077400
     17 C17         4.1050   -0.1010   -3.6880 ca        1 WTC     -0.108300
     18 C18         5.3290   -0.7130   -3.3950 ca        1 WTC     -0.122000
     19 C19         5.8890   -1.6240   -4.2890 ca        1 WTC     -0.124500
     20 C20         5.2320   -1.9300   -5.4810 ca        1 WTC     -0.119000
     21 C21         4.0130   -1.3200   -5.7790 ca        1 WTC     -0.124500
     22 C22         3.4500   -0.4090   -4.8860 ca        1 WTC     -0.122000
     23 H5         -0.3500   -2.0950    1.6190 h4        1 WTC      0.058100
     24 HN7         1.7900   -1.0470   -3.0320 hn        1 WTC      0.341500
     25 H10         3.2950    1.7500    1.9380 h1        1 WTC      0.085700
     26 H11         3.7600   -0.5790    3.5020 hc        1 WTC      0.056450
     27 H11A        4.5900    1.0110    3.6830 hc        1 WTC      0.056450
     28 H12         2.5760   -0.2890    5.4800 hc        1 WTC      0.047200
     29 H12A        3.7120    1.0690    5.8240 hc        1 WTC      0.047200
     30 H13         0.8340    1.1730    5.1690 hc        1 WTC      0.047200
     31 H13A        1.9170    2.5330    5.6510 hc        1 WTC      0.047200
     32 H14         0.7730    2.2680    3.1040 hc        1 WTC      0.056450
     33 H14A        2.2950    3.1800    3.4370 hc        1 WTC      0.056450
     34 H16         4.3400    1.4880   -2.2650 hc        1 WTC      0.085200
     35 H16A        2.8480    1.6070   -3.2910 hc        1 WTC      0.085200
     36 H18         5.8500   -0.4730   -2.4550 ha        1 WTC      0.136500
     37 H19         6.8500   -2.1030   -4.0520 ha        1 WTC      0.138000
     38 H20         5.6740   -2.6500   -6.1850 ha        1 WTC      0.137000
     39 H21         3.4940   -1.5570   -6.7200 ha        1 WTC      0.138000
     40 H22         2.4930    0.0770   -5.1310 ha        1 WTC      0.136500
@<TRIPOS>BOND
     1    1    2 2   
     2    1    5 1   
     3    1    6 1   
     4    2    3 1   
     5    2    9 1   
     6    3    4 1   
     7    3   10 1   
     8    4    5 2   
     9    5   23 1   
    10    6    7 1   
    11    6   15 2   
    12    7    8 1   
    13    7   24 1   
    14    8    9 2   
    15    8   16 1   
    16   10   11 1   
    17   10   14 1   
    18   10   25 1   
    19   11   12 1   
    20   11   26 1   
    21   11   27 1   
    22   12   13 1   
    23   12   28 1   
    24   12   29 1   
    25   13   14 1   
    26   13   30 1   
    27   13   31 1   
    28   14   32 1   
    29   14   33 1   
    30   16   17 1   
    31   16   34 1   
    32   16   35 1   
    33   17   18 ar  
    34   17   22 ar  
    35   18   19 ar  
    36   18   36 1   
    37   19   20 ar  
    38   19   37 1   
    39   20   21 ar  
    40   20   38 1   
    41   21   22 ar  
    42   21   39 1   
    43   22   40 1   
@<TRIPOS>SUBSTRUCTURE
     1 WTC         1 TEMP              0 ****  ****    0 ROOT
