@<TRIPOS>MOLECULE
WTI
   40    43     1     0     0
SMALL
bcc


@<TRIPOS>ATOM
      1 N01         6.7020    2.2860   -0.1070 n         1 WTI     -0.673000
      2 C02         6.4440    0.9640    0.1620 c         1 WTI      0.669700
      3 O03         7.3770    0.2050    0.5000 o         1 WTI     -0.608100
      4 C04         5.0400    0.4810    0.0440 ca        1 WTI     -0.141600
      5 C05         4.5970   -0.4920    0.9480 ca        1 WTI     -0.093000
      6 C06         3.2970   -0.9840    0.8670 ca        1 WTI     -0.133000
      7 C07         2.4250   -0.5190   -0.1270 cp        1 WTI     -0.010000
      8 C08         1.0550   -1.0150   -0.2230 cp        1 WTI     -0.227300
      9 C09        -0.0090   -0.1110   -0.1920 ca        1 WTI     -0.045000
     10 C10        -1.3320   -0.5640   -0.2840 ca        1 WTI     -0.170300
     11 C11        -2.4380    0.3490   -0.2480 cc        1 WTI     -0.034100
     12 S12        -2.2310    2.0210   -0.4730 ss        1 WTI      0.014200
     13 C13        -3.8510    2.3940   -0.3050 cc        1 WTI     -0.173100
     14 C14        -4.5940    1.2600   -0.0770 cd        1 WTI      0.043100
     15 O15        -5.9520    1.2420    0.1360 os        1 WTI     -0.293900
     16 C16        -6.5040   -0.0790    0.0130 c3        1 WTI      0.091400
     17 C17        -5.6410   -1.1220    0.7070 c3        1 WTI      0.092400
     18 O18        -4.3190   -1.1800    0.1460 os        1 WTI     -0.298900
     19 C19        -3.7790    0.0710   -0.0420 cd        1 WTI      0.037100
     20 C20        -1.5240   -1.9620   -0.4210 ca        1 WTI      0.470200
     21 N21        -0.5390   -2.8600   -0.4680 nb        1 WTI     -0.728000
     22 C22         0.7590   -2.4140   -0.3570 ca        1 WTI      0.661200
     23 N23         1.7840   -3.3560   -0.3210 nh        1 WTI     -0.937500
     24 C24         2.8760    0.4540   -1.0320 ca        1 WTI     -0.133000
     25 C25         4.1750    0.9500   -0.9490 ca        1 WTI     -0.093000
     26 H011        7.6230    2.6320   -0.0010 hn        1 WTI      0.312500
     27 H012        5.9710    2.9190   -0.3010 hn        1 WTI      0.312500
     28 H05         5.2910   -0.8680    1.7180 ha        1 WTI      0.146500
     29 H25         4.5130    1.6970   -1.6820 ha        1 WTI      0.146500
     30 H06         2.9500   -1.7340    1.5950 ha        1 WTI      0.147000
     31 H24         2.1970    0.8220   -1.8160 ha        1 WTI      0.147000
     32 H09         0.2020    0.9660   -0.0880 ha        1 WTI      0.140000
     33 H20        -2.5470   -2.3790   -0.5030 h4        1 WTI      0.044100
     34 H13        -4.2450    3.4060   -0.3680 h4        1 WTI      0.187000
     35 H161       -7.5090    0.0060    0.5010 h1        1 WTI      0.071700
     36 H162       -6.6130   -0.3180   -1.0770 h1        1 WTI      0.071700
     37 H171       -5.5540   -0.8990    1.8030 h1        1 WTI      0.073200
     38 H172       -6.0430   -2.1550    0.5440 h1        1 WTI      0.073200
     39 H231        2.6830   -3.0180   -0.5800 hn        1 WTI      0.419800
     40 H232        1.5660   -4.2790   -0.6210 hn        1 WTI      0.419800
@<TRIPOS>BOND
     1    1    2 1   
     2    1   26 1   
     3    1   27 1   
     4    2    3 2   
     5    2    4 1   
     6    4    5 ar  
     7    4   25 ar  
     8    5    6 ar  
     9    5   28 1   
    10    6    7 ar  
    11    6   30 1   
    12    7    8 1   
    13    7   24 ar  
    14    8    9 ar  
    15    8   22 ar  
    16    9   10 ar  
    17    9   32 1   
    18   10   11 1   
    19   10   20 ar  
    20   11   12 1   
    21   11   19 2   
    22   12   13 1   
    23   13   14 2   
    24   13   34 1   
    25   14   15 1   
    26   14   19 1   
    27   15   16 1   
    28   16   17 1   
    29   16   35 1   
    30   16   36 1   
    31   17   18 1   
    32   17   37 1   
    33   17   38 1   
    34   18   19 1   
    35   20   21 ar  
    36   20   33 1   
    37   21   22 ar  
    38   22   23 1   
    39   23   39 1   
    40   23   40 1   
    41   24   25 ar  
    42   24   31 1   
    43   25   29 1   
@<TRIPOS>SUBSTRUCTURE
     1 WTI         1 TEMP              0 ****  ****    0 ROOT
