@<TRIPOS>MOLECULE
WTI
   40    34     1     0     0
SMALL
bcc


@<TRIPOS>ATOM
      1 N01        -2.9020    1.9950    6.2370 n         1 WTI     -0.434000
      2 C02        -2.9270    0.9330    5.2960 c2        1 WTI      0.344000
      3 O03        -3.5730   -0.0690    5.5270 o         1 WTI     -0.370000
      4 C04        -2.1580    1.0550    3.9970 c2        1 WTI     -0.122000
      5 C05        -2.7890    1.5420    2.8630 c2        1 WTI     -0.101000
      6 C06        -2.1040    1.5970    1.6580 c1        1 WTI     -0.128000
      7 C07        -0.7890    1.1650    1.5890 c1        1 WTI     -0.053000
      8 C08        -0.1120    1.1980    0.3790 c1        1 WTI     -0.168000
      9 C09        -0.1900    0.1370   -0.4750 c1        1 WTI     -0.095000
     10 C10         0.4240    0.1960   -1.6930 c1        1 WTI     -0.053000
     11 C11         0.2780   -0.8490   -2.5940 c1        1 WTI     -0.306000
     12 S12        -1.0480   -1.2500   -3.3370 ss        1 WTI      0.559000
     13 C13        -0.7110   -2.4490   -4.2960 c1        1 WTI     -0.444000
     14 C14         0.7080   -2.7550   -4.1490 c1        1 WTI     -0.003000
     15 O15         1.6070   -3.6650   -4.7960 o         1 WTI     -0.177000
     16 C16         2.9270   -3.5030   -4.5580 c3        1 WTI     -0.059000
     17 C17         3.3260   -3.0470   -3.1590 c3        1 WTI     -0.058000
     18 O18         2.7120   -1.9340   -2.6880 os        1 WTI     -0.182000
     19 C19         1.3390   -1.7330   -3.0620 c2        1 WTI     -0.009000
     20 C20         1.1260    1.3340   -2.0600 c1        1 WTI      0.007000
     21 N21         1.2030    2.3920   -1.2060 n1        1 WTI     -0.204000
     22 C22         0.5900    2.3350    0.0100 c1        1 WTI      0.145000
     23 N23         0.6910    3.4290    0.9070 n3        1 WTI     -0.340000
     24 C24        -0.1590    0.6780    2.7230 c1        1 WTI     -0.095000
     25 C25        -0.8430    0.6230    3.9270 c1        1 WTI     -0.076000
     26 H011       -3.3020    1.8920    7.0530 hn        1 WTI      0.226500
     27 H012       -2.4930    2.7850    6.0250 hn        1 WTI      0.226500
     28 H05        -3.7150    1.8470    2.9120 ha        1 WTI      0.135000
     29 H25        -0.3990    0.2800    4.7250 ha        1 WTI      0.159000
     30 H06        -2.5480    1.9410    0.8600 ha        1 WTI      0.143000
     31 H24         0.7680    0.3740    2.6730 ha        1 WTI      0.141000
     32 H09        -0.6490   -0.6790   -0.1990 ha        1 WTI      0.141000
     33 H20         1.5650    1.3760   -2.9310 ha        1 WTI      0.181000
     34 H13        -1.3390   -2.9070   -4.8850 DU        1 WTI      0.187000
     35 H161        3.3720   -4.3570   -4.7340 h1        1 WTI      0.111000
     36 H162        3.2690   -2.8440   -5.1980 h1        1 WTI      0.111000
     37 H171        4.2850   -2.8510   -3.1870 h1        1 WTI      0.112000
     38 H172        3.0970   -3.7770   -2.5470 h1        1 WTI      0.112000
     39 H231        0.6630    3.2850    1.8090 hn        1 WTI      0.217500
     40 H232        0.8000    4.2770    0.5830 hn        1 WTI      0.217500
@<TRIPOS>BOND
     1    1    2 1   
     2    1   26 1   
     3    1   27 1   
     4    2    3 1   
     5    2    4 1   
     6    4    5 1   
     7    4   25 1   
     8    5    6 1   
     9    5   28 1   
    10    6   30 1   
    11    7   24 1   
    12    8   22 1   
    13    9   10 1   
    14    9   32 1   
    15   11   12 1   
    16   11   19 1   
    17   12   13 1   
    18   13   14 1   
    19   14   19 1   
    20   15   16 1   
    21   16   17 1   
    22   16   35 1   
    23   16   36 1   
    24   17   18 1   
    25   17   37 1   
    26   17   38 1   
    27   18   19 1   
    28   20   21 1   
    29   20   33 1   
    30   22   23 1   
    31   23   39 1   
    32   23   40 1   
    33   24   31 1   
    34   25   29 1   
@<TRIPOS>SUBSTRUCTURE
     1 WTI         1 TEMP              0 ****  ****    0 ROOT
