@<TRIPOS>MOLECULE
WTI
   41    44     1     0     0
SMALL
bcc


@<TRIPOS>ATOM
      1 N01        -0.1870   -0.3010   -0.1180 n4        1 WTI     -0.764400
      2 C02         1.3280   -0.1220   -0.0520 c         1 WTI      0.580700
      3 O03         1.7510   -0.0730    1.0950 o         1 WTI     -0.429100
      4 C04         2.0350   -0.0480   -1.3150 ca        1 WTI     -0.237600
      5 C05         3.4430   -0.0040   -1.2460 ca        1 WTI     -0.052000
      6 C06         4.2000    0.0690   -2.4080 ca        1 WTI     -0.142500
      7 C07         3.5800    0.1040   -3.6680 cp        1 WTI      0.101000
      8 C08         4.3470    0.1520   -4.8990 cp        1 WTI     -0.283300
      9 C09         4.0120   -0.7330   -5.9410 ca        1 WTI     -0.048000
     10 C10         4.7530   -0.7600   -7.1210 ca        1 WTI     -0.134300
     11 C11         4.4350   -1.6690   -8.1840 cc        1 WTI     -0.074100
     12 S12         3.1750   -2.8050   -8.0450 ss        1 WTI      0.002200
     13 C13         3.3910   -3.4510   -9.5710 cc        1 WTI     -0.151100
     14 C14         4.4260   -2.8270  -10.2270 cd        1 WTI      0.043100
     15 O15         4.8670   -3.1540  -11.4860 os        1 WTI     -0.285900
     16 C16         5.6920   -2.1240  -12.0560 c3        1 WTI      0.090400
     17 C17         6.7080   -1.5970  -11.0550 c3        1 WTI      0.090400
     18 O18         6.0750   -1.0280   -9.8930 os        1 WTI     -0.303900
     19 C19         5.0380   -1.7950   -9.4250 cd        1 WTI      0.067100
     20 C20         5.8410    0.1560   -7.2160 ca        1 WTI      0.494200
     21 N21         6.1730    1.0300   -6.2720 nb        1 WTI     -0.713000
     22 C22         5.4450    1.0510   -5.1000 ca        1 WTI      0.679200
     23 N23         5.8330    1.9410   -4.1020 nh        1 WTI     -0.935500
     24 C24         2.1690    0.0510   -3.7280 ca        1 WTI     -0.142500
     25 C25         1.4070   -0.0200   -2.5740 ca        1 WTI     -0.052000
     26 H011       -0.6120    0.5070   -0.5800 hn        1 WTI      0.464800
     27 H012       -0.4140   -1.1450   -0.6480 hn        1 WTI      0.464800
     28 H05         3.9420   -0.0370   -0.2610 ha        1 WTI      0.145500
     29 H25         0.3120   -0.0440   -2.6770 ha        1 WTI      0.145500
     30 H06         5.3030    0.0670   -2.3340 ha        1 WTI      0.177000
     31 H24         1.6730    0.0770   -4.7130 ha        1 WTI      0.177000
     32 H09         3.1640   -1.4250   -5.8050 ha        1 WTI      0.138000
     33 H20         6.4740    0.1820   -8.1280 h4        1 WTI      0.061100
     34 H13         2.7840   -4.2600   -9.9750 h4        1 WTI      0.195000
     35 H161        5.0280   -1.2980  -12.4230 h1        1 WTI      0.080200
     36 H162        6.1980   -2.6360  -12.9160 h1        1 WTI      0.080200
     37 H171        7.3940   -2.4160  -10.7140 h1        1 WTI      0.080200
     38 H172        7.2920   -0.7400  -11.4810 h1        1 WTI      0.080200
     39 H231        6.5130    2.6280   -4.3470 hn        1 WTI      0.422800
     40 H232        5.1080    2.2540   -3.5010 hn        1 WTI      0.422800
     41 H013       -0.5660   -0.3840    0.8340 hn        1 WTI      0.464800
@<TRIPOS>BOND
     1    1    2 1   
     2    1   26 1   
     3    1   27 1   
     4    1   41 1   
     5    2    3 2   
     6    2    4 1   
     7    4    5 ar  
     8    4   25 ar  
     9    5    6 ar  
    10    5   28 1   
    11    6    7 ar  
    12    6   30 1   
    13    7    8 1   
    14    7   24 ar  
    15    8    9 ar  
    16    8   22 ar  
    17    9   10 ar  
    18    9   32 1   
    19   10   11 1   
    20   10   20 ar  
    21   11   12 1   
    22   11   19 2   
    23   12   13 1   
    24   13   14 2   
    25   13   34 1   
    26   14   15 1   
    27   14   19 1   
    28   15   16 1   
    29   16   17 1   
    30   16   35 1   
    31   16   36 1   
    32   17   18 1   
    33   17   37 1   
    34   17   38 1   
    35   18   19 1   
    36   20   21 ar  
    37   20   33 1   
    38   21   22 ar  
    39   22   23 1   
    40   23   39 1   
    41   23   40 1   
    42   24   25 ar  
    43   24   31 1   
    44   25   29 1   
@<TRIPOS>SUBSTRUCTURE
     1 WTI         1 TEMP              0 ****  ****    0 ROOT
