@<TRIPOS>MOLECULE
WTI
   41    44     1     0     0
SMALL
bcc


@<TRIPOS>ATOM
      1 N01        -0.2670   -0.1600   -0.2080 nz        1 WTI     -0.764400
      2 C02         1.2500   -0.0210   -0.1010 c         1 WTI      0.580700
      3 O03         1.6410    0.0410    1.0560 o         1 WTI     -0.429100
      4 C04         1.9960    0.0090   -1.3430 ca        1 WTI     -0.237600
      5 C05         3.4020    0.0210   -1.2340 ca        1 WTI     -0.052000
      6 C06         4.1940    0.0500   -2.3740 ca        1 WTI     -0.142500
      7 C07         3.6120    0.0720   -3.6520 cp        1 WTI      0.101000
      8 C08         4.4150    0.0750   -4.8610 cp        1 WTI     -0.283300
      9 C09         4.0880   -0.8230   -5.8940 ca        1 WTI     -0.048000
     10 C10         4.8610   -0.8910   -7.0510 ca        1 WTI     -0.134300
     11 C11         4.5590   -1.8150   -8.1060 cc        1 WTI     -0.074100
     12 S12         3.4860   -3.1160   -7.8880 ss        1 WTI      0.002200
     13 C13         3.6300   -3.6870   -9.4520 cc        1 WTI     -0.151100
     14 C14         4.5020   -2.9130  -10.1800 cd        1 WTI      0.043100
     15 O15         4.8530   -3.1420  -11.4880 os        1 WTI     -0.285900
     16 C16         5.4680   -1.9920  -12.0930 c3        1 WTI      0.090400
     17 C17         6.5010   -1.3570  -11.1770 c3        1 WTI      0.090400
     18 O18         5.9240   -0.9140   -9.9340 os        1 WTI     -0.303900
     19 C19         5.0500   -1.8280   -9.4020 cd        1 WTI      0.067100
     20 C20         5.9710   -0.0020   -7.1360 ca        1 WTI      0.494200
     21 N21         6.2980    0.8840   -6.2010 nb        1 WTI     -0.713000
     22 C22         5.5400    0.9450   -5.0490 ca        1 WTI      0.679200
     23 N23         5.9210    1.8450   -4.0590 nv        1 WTI     -0.935500
     24 C24         2.2020    0.0510   -3.7530 ca        1 WTI     -0.142500
     25 C25         1.4060    0.0230   -2.6220 ca        1 WTI     -0.052000
     26 H011       -0.6550    0.6480   -0.7000 hn        1 WTI      0.464800
     27 H012       -0.5000   -1.0100   -0.7270 hn        1 WTI      0.464800
     28 H05         3.8710   -0.0020   -0.2340 ha        1 WTI      0.145500
     29 H25         0.3140    0.0220   -2.7560 ha        1 WTI      0.145500
     30 H06         5.2930    0.0240   -2.2670 ha        1 WTI      0.177000
     31 H24         1.7360    0.0670   -4.7530 ha        1 WTI      0.177000
     32 H09         3.2200   -1.4920   -5.7700 ha        1 WTI      0.138000
     33 H20         6.6240   -0.0090   -8.0340 h4        1 WTI      0.061100
     34 H13         3.0990   -4.5620   -9.8250 h4        1 WTI      0.195000
     35 H161        5.9470   -2.4050  -13.0190 h1        1 WTI      0.080200
     36 H162        4.6640   -1.2570  -12.3580 h1        1 WTI      0.080200
     37 H171        6.9160   -0.4150  -11.6230 h1        1 WTI      0.080200
     38 H172        7.3240   -2.0810  -10.9410 h1        1 WTI      0.080200
     39 H231        5.1880    2.1860   -3.4820 hn        1 WTI      0.422800
     40 H232        6.6230    2.5120   -4.2980 hn        1 WTI      0.422800
     41 H013       -0.6750   -0.2120    0.7330 hn        1 WTI      0.464800
@<TRIPOS>BOND
     1    1    2 1   
     2    1   26 1   
     3    1   27 1   
     4    1   41 1   
     5    2    3 2   
     6    2    4 1   
     7    4    5 ar  
     8    4   25 ar  
     9    5    6 ar  
    10    5   28 1   
    11    6    7 ar  
    12    6   30 1   
    13    7    8 1   
    14    7   24 ar  
    15    8    9 ar  
    16    8   22 ar  
    17    9   10 ar  
    18    9   32 1   
    19   10   11 1   
    20   10   20 ar  
    21   11   12 1   
    22   11   19 2   
    23   12   13 1   
    24   13   14 2   
    25   13   34 1   
    26   14   15 1   
    27   14   19 1   
    28   15   16 1   
    29   16   17 1   
    30   16   35 1   
    31   16   36 1   
    32   17   18 1   
    33   17   37 1   
    34   17   38 1   
    35   18   19 1   
    36   20   21 ar  
    37   20   33 1   
    38   21   22 ar  
    39   22   23 1   
    40   23   39 1   
    41   23   40 1   
    42   24   25 ar  
    43   24   31 1   
    44   25   29 1   
@<TRIPOS>SUBSTRUCTURE
     1 WTI         1 TEMP              0 ****  ****    0 ROOT
