@<TRIPOS>MOLECULE
WTI
   42    45     1     0     0
SMALL
bcc


@<TRIPOS>ATOM
      1 N01        -0.1500   -0.4590   -0.0960 n4        1 WTI     -0.758400
      2 C02         1.3210   -0.0950   -0.0480 c         1 WTI      0.565700
      3 O03         1.7660    0.0580    1.0780 o         1 WTI     -0.378100
      4 C04         2.0300   -0.0030   -1.3280 ca        1 WTI     -0.187600
      5 C05         3.4140   -0.2500   -1.3000 ca        1 WTI     -0.055000
      6 C06         4.1600   -0.1620   -2.4740 ca        1 WTI     -0.124500
      7 C07         3.5400    0.1760   -3.6850 cp        1 WTI     -0.009000
      8 C08         4.3010    0.2030   -4.9370 cp        1 WTI     -0.106300
      9 C09         3.9830   -0.7120   -5.9500 ca        1 WTI     -0.125000
     10 C10         4.7060   -0.7340   -7.1580 ca        1 WTI      0.037700
     11 C11         4.3990   -1.6610   -8.1870 cc        1 WTI     -0.173100
     12 S12         3.1090   -2.7710   -8.0710 ss        1 WTI      0.052200
     13 C13         3.3700   -3.4550   -9.5620 cc        1 WTI     -0.100100
     14 C14         4.4460   -2.8770  -10.2010 cd        1 WTI      0.026100
     15 O15         4.9240   -3.2480  -11.4320 os        1 WTI     -0.268900
     16 C16         5.7540   -2.2280  -12.0170 c3        1 WTI      0.085400
     17 C17         6.7620   -1.6850  -11.0180 c3        1 WTI      0.090400
     18 O18         6.1250   -1.1210   -9.8450 os        1 WTI     -0.306900
     19 C19         5.0540   -1.8390   -9.4110 cd        1 WTI      0.141100
     20 C20         5.7640    0.2240   -7.2930 ca        1 WTI      0.434200
     21 N21         6.0830    1.1090   -6.3550 nb        1 WTI     -0.624000
     22 C22         5.3630    1.1020   -5.1930 ca        1 WTI      0.390200
     23 N23         5.7500    2.1260   -4.2030 n4        1 WTI     -0.807300
     24 C24         2.1580    0.4290   -3.7040 ca        1 WTI     -0.124500
     25 C25         1.4060    0.3410   -2.5360 ca        1 WTI     -0.055000
     26 H011       -0.2860   -1.3060   -0.6560 hn        1 WTI      0.476800
     27 H012       -0.6920    0.3060   -0.5110 hn        1 WTI      0.476800
     28 H05         3.9090   -0.5200   -0.3490 ha        1 WTI      0.167000
     29 H25         0.3290    0.5630   -2.5890 ha        1 WTI      0.167000
     30 H06         5.2350   -0.4110   -2.4470 ha        1 WTI      0.176000
     31 H24         1.6630    0.6920   -4.6550 ha        1 WTI      0.176000
     32 H09         3.1610   -1.4300   -5.7900 ha        1 WTI      0.169000
     33 H20         6.3810    0.2680   -8.2180 h4        1 WTI      0.093100
     34 H13         2.7600   -4.2620   -9.9770 h4        1 WTI      0.216000
     35 H161        5.0950   -1.4110  -12.4110 h1        1 WTI      0.096200
     36 H162        6.2690   -2.7620  -12.8610 h1        1 WTI      0.096200
     37 H171        7.3320   -0.8170  -11.4430 h1        1 WTI      0.094200
     38 H172        7.4590   -2.4900  -10.6660 h1        1 WTI      0.094200
     39 H231        5.3680    1.8770   -3.2870 hn        1 WTI      0.468800
     40 H232        6.7770    2.1920   -4.1450 hn        1 WTI      0.468800
     41 H013       -0.4960   -0.6270    0.8610 hn        1 WTI      0.476800
     42 H233        5.3820    3.0390   -4.4980 hn        1 WTI      0.468800
@<TRIPOS>BOND
     1    1    2 1   
     2    1   26 1   
     3    1   27 1   
     4    1   41 1   
     5    2    3 2   
     6    2    4 1   
     7    4    5 ar  
     8    4   25 ar  
     9    5    6 ar  
    10    5   28 1   
    11    6    7 ar  
    12    6   30 1   
    13    7    8 1   
    14    7   24 ar  
    15    8    9 ar  
    16    8   22 ar  
    17    9   10 ar  
    18    9   32 1   
    19   10   11 1   
    20   10   20 ar  
    21   11   12 1   
    22   11   19 2   
    23   12   13 1   
    24   13   14 2   
    25   13   34 1   
    26   14   15 1   
    27   14   19 1   
    28   15   16 1   
    29   16   17 1   
    30   16   35 1   
    31   16   36 1   
    32   17   18 1   
    33   17   37 1   
    34   17   38 1   
    35   18   19 1   
    36   20   21 ar  
    37   20   33 1   
    38   21   22 ar  
    39   22   23 1   
    40   23   39 1   
    41   23   40 1   
    42   23   42 1   
    43   24   25 ar  
    44   24   31 1   
    45   25   29 1   
@<TRIPOS>SUBSTRUCTURE
     1 WTI         1 TEMP              0 ****  ****    0 ROOT
