@<TRIPOS>MOLECULE
WTJ
   47    49     1     0     0
SMALL
bcc


@<TRIPOS>ATOM
      1 C01        -0.0710    0.1840    0.0800 c3        1 WTJ      0.074600
      2 N02         1.4250    0.1220    0.1290 n4        1 WTJ     -0.674400
      3 C03         1.8920    0.1750    1.5440 c3        1 WTJ      0.074600
      4 C04         1.9070   -1.1060   -0.5770 c3        1 WTJ      0.077800
      5 C05         3.4060   -1.0490   -0.9470 c3        1 WTJ      0.081800
      6 N06         3.8530   -2.2510   -1.7100 n4        1 WTJ     -0.670800
      7 C07         5.3360   -2.1940   -2.0890 c         1 WTJ      0.587700
      8 O08         5.9230   -1.1840   -1.7140 o         1 WTJ     -0.460100
      9 C09         5.8870   -3.3190   -2.8380 ca        1 WTJ     -0.236900
     10 C10         5.1170   -4.4330   -3.2130 ca        1 WTJ     -0.147000
     11 C11         5.6810   -5.5110   -3.9370 ca        1 WTJ      0.062700
     12 C12         4.9220   -6.6290   -4.3170 cc        1 WTJ     -0.192100
     13 S13         3.2440   -6.7840   -3.9990 ss        1 WTJ     -0.004800
     14 C14         3.0940   -8.2760   -4.7240 cc        1 WTJ     -0.038100
     15 C15         4.2980   -8.7220   -5.2240 cd        1 WTJ      0.025100
     16 O16         4.4970   -9.9260   -5.8430 os        1 WTJ     -0.253900
     17 C17         5.6980   -9.9330   -6.6390 c3        1 WTJ      0.080400
     18 C18         6.8800   -9.3670   -5.8740 c3        1 WTJ      0.090400
     19 O19         6.6350   -8.0110   -5.3950 os        1 WTJ     -0.301900
     20 C20         5.3670   -7.7870   -4.9910 cd        1 WTJ      0.191100
     21 C21         7.0790   -5.3910   -4.2610 ca        1 WTJ      0.486200
     22 N22         7.8270   -4.3480   -3.9170 nb        1 WTJ     -0.606000
     23 C23         7.2630   -3.3220   -3.2210 ca        1 WTJ      0.464200
     24 N24         8.1860   -2.2180   -2.8960 n4        1 WTJ     -0.816300
     25 H011       -0.4150    0.2380   -0.9890 hx        1 WTJ      0.125700
     26 H012       -0.4100    1.1100    0.6260 hx        1 WTJ      0.125700
     27 H013       -0.5060   -0.7220    0.5820 hx        1 WTJ      0.125700
     28 H031        1.5280    1.1360    2.0120 hx        1 WTJ      0.125700
     29 H032        1.4670   -0.6910    2.1210 hx        1 WTJ      0.125700
     30 H033        3.0130    0.1520    1.5770 hx        1 WTJ      0.125700
     31 H041        1.2860   -1.2250   -1.5150 hx        1 WTJ      0.126700
     32 H042        1.7030   -1.9890    0.1000 hx        1 WTJ      0.126700
     33 H051        3.6240   -0.1390   -1.5850 hx        1 WTJ      0.138200
     34 H052        4.0430   -0.9790   -0.0150 hx        1 WTJ      0.138200
     35 H06         3.7020   -3.1000   -1.1470 hn        1 WTJ      0.479300
     36 H10         4.0480   -4.5120   -2.9590 ha        1 WTJ      0.143000
     37 H21         7.6110   -6.1910   -4.8300 h4        1 WTJ      0.117100
     38 H14         2.1470   -8.8270   -4.7930 h4        1 WTJ      0.233000
     39 H171        5.5070   -9.3590   -7.5840 h1        1 WTJ      0.111700
     40 H172        5.8510  -11.0250   -6.8670 h1        1 WTJ      0.111700
     41 H181        7.7790   -9.2410   -6.5350 h1        1 WTJ      0.110700
     42 H182        7.1250   -9.9870   -4.9710 h1        1 WTJ      0.110700
     43 H241        8.2380   -2.0970   -1.8770 hn        1 WTJ      0.487133
     44 H242        7.8470   -1.3460   -3.3230 hn        1 WTJ      0.487133
     45 H021        1.7900    0.9530   -0.3630 hn        1 WTJ      0.463800
     46 H062        3.3070   -2.3400   -2.5790 hn        1 WTJ      0.479300
     47 H243        9.1360   -2.4220   -3.2590 hn        1 WTJ      0.487133
@<TRIPOS>BOND
     1    1    2 1   
     2    1   25 1   
     3    1   26 1   
     4    1   27 1   
     5    2    3 1   
     6    2    4 1   
     7    2   45 1   
     8    3   28 1   
     9    3   29 1   
    10    3   30 1   
    11    4    5 1   
    12    4   31 1   
    13    4   32 1   
    14    5    6 1   
    15    5   33 1   
    16    5   34 1   
    17    6    7 1   
    18    6   35 1   
    19    6   46 1   
    20    7    8 2   
    21    7    9 1   
    22    9   10 ar  
    23    9   23 ar  
    24   10   11 ar  
    25   10   36 1   
    26   11   12 1   
    27   11   21 ar  
    28   12   13 1   
    29   12   20 2   
    30   13   14 1   
    31   14   15 2   
    32   14   38 1   
    33   15   16 1   
    34   15   20 1   
    35   16   17 1   
    36   17   18 1   
    37   17   39 1   
    38   17   40 1   
    39   18   19 1   
    40   18   41 1   
    41   18   42 1   
    42   19   20 1   
    43   21   22 ar  
    44   21   37 1   
    45   22   23 ar  
    46   23   24 1   
    47   24   43 1   
    48   24   44 1   
    49   24   47 1   
@<TRIPOS>SUBSTRUCTURE
     1 WTJ         1 TEMP              0 ****  ****    0 ROOT
