@<TRIPOS>MOLECULE
WTJ
   46    48     1     0     0
SMALL
bcc


@<TRIPOS>ATOM
      1 C01        -0.0250    0.0370    0.2570 c3        1 WTJ      0.077100
      2 N02         1.4680   -0.0160    0.2350 nx        1 WTJ     -0.674400
      3 C03         2.0030   -0.0250    1.6260 c3        1 WTJ      0.077100
      4 C04         1.9290   -1.2060   -0.5470 c3        1 WTJ      0.077800
      5 C05         3.4090   -1.1040   -0.9660 c3        1 WTJ      0.081800
      6 N06         3.8500   -2.2360   -1.8100 ny        1 WTJ     -0.682800
      7 C07         5.3600   -2.1070   -2.2210 c         1 WTJ      0.587700
      8 O08         5.8610   -1.0720   -1.7810 o         1 WTJ     -0.530100
      9 C09         5.8740   -3.1720   -2.9980 ca        1 WTJ     -0.406900
     10 C10         5.0800   -4.2870   -3.4210 ca        1 WTJ     -0.113000
     11 C11         5.6160   -5.3160   -4.1570 ca        1 WTJ     -0.068300
     12 C12         4.8460   -6.4360   -4.6030 cc        1 WTJ     -0.134100
     13 S13         3.1460   -6.3990   -4.7050 ss        1 WTJ     -0.028800
     14 C14         3.0030   -7.9670   -5.2700 cc        1 WTJ     -0.109100
     15 C15         4.2360   -8.5610   -5.4010 cd        1 WTJ      0.045100
     16 O16         4.4500   -9.8500   -5.8130 os        1 WTJ     -0.272900
     17 C17         5.8100  -10.0640   -6.2380 c3        1 WTJ      0.086400
     18 C18         6.8040   -9.4760   -5.2520 c3        1 WTJ      0.091400
     19 O19         6.6230   -8.0510   -5.0760 os        1 WTJ     -0.310900
     20 C20         5.3120   -7.6790   -5.0140 cd        1 WTJ      0.114100
     21 C21         7.0280   -5.2250   -4.4830 ca        1 WTJ      0.559200
     22 N22         7.8050   -4.2290   -4.1350 nb        1 WTJ     -0.710000
     23 C23         7.2750   -3.1620   -3.3930 ca        1 WTJ      0.791200
     24 N24         8.1250   -2.1610   -3.0800 nv        1 WTJ     -0.887500
     25 H011       -0.4300   -0.8980    0.7310 hx        1 WTJ      0.119533
     26 H012       -0.3480    0.9310    0.8600 hx        1 WTJ      0.119533
     27 H013       -0.4150    0.1350   -0.7920 hx        1 WTJ      0.119533
     28 H031        1.6280   -0.9310    2.1730 hx        1 WTJ      0.119533
     29 H032        3.1260   -0.0290    1.6000 hx        1 WTJ      0.119533
     30 H033        1.6490    0.9010    2.1600 hx        1 WTJ      0.119533
     31 H041        1.7600   -2.1230    0.0900 hx        1 WTJ      0.119700
     32 H042        1.2740   -1.2850   -1.4660 hx        1 WTJ      0.119700
     33 H051        4.0800   -1.0780   -0.0550 hx        1 WTJ      0.132700
     34 H052        3.5960   -0.1520   -1.5490 hx        1 WTJ      0.132700
     35 H06         3.7410   -3.1220   -1.3070 hn        1 WTJ      0.456800
     36 H10         4.0110   -4.3450   -3.1690 ha        1 WTJ      0.113000
     37 H21         7.5130   -6.0410   -5.0690 h4        1 WTJ      0.091100
     38 H14         2.0470   -8.4370   -5.5090 h4        1 WTJ      0.209000
     39 H171        5.9390   -9.6180   -7.2580 h1        1 WTJ      0.094200
     40 H172        5.8960  -11.1830   -6.2810 h1        1 WTJ      0.094200
     41 H181        6.7090   -9.9570   -4.2440 h1        1 WTJ      0.091700
     42 H182        7.8560   -9.5560   -5.6360 h1        1 WTJ      0.091700
     43 H241        9.0810   -2.1970   -3.3720 hn        1 WTJ      0.479300
     44 H242        7.8250   -1.3670   -2.5610 hn        1 WTJ      0.479300
     45 H021        1.8100    0.8370   -0.2350 hn        1 WTJ      0.461800
     46 H062        3.2970   -2.2800   -2.6700 hn        1 WTJ      0.456800
@<TRIPOS>BOND
     1    1    2 1   
     2    1   25 1   
     3    1   26 1   
     4    1   27 1   
     5    2    3 1   
     6    2    4 1   
     7    2   45 1   
     8    3   28 1   
     9    3   29 1   
    10    3   30 1   
    11    4    5 1   
    12    4   31 1   
    13    4   32 1   
    14    5    6 1   
    15    5   33 1   
    16    5   34 1   
    17    6    7 1   
    18    6   35 1   
    19    6   46 1   
    20    7    8 2   
    21    7    9 1   
    22    9   10 ar  
    23    9   23 ar  
    24   10   11 ar  
    25   10   36 1   
    26   11   12 1   
    27   11   21 ar  
    28   12   13 1   
    29   12   20 2   
    30   13   14 1   
    31   14   15 2   
    32   14   38 1   
    33   15   16 1   
    34   15   20 1   
    35   16   17 1   
    36   17   18 1   
    37   17   39 1   
    38   17   40 1   
    39   18   19 1   
    40   18   41 1   
    41   18   42 1   
    42   19   20 1   
    43   21   22 ar  
    44   21   37 1   
    45   22   23 ar  
    46   23   24 1   
    47   24   43 1   
    48   24   44 1   
@<TRIPOS>SUBSTRUCTURE
     1 WTJ         1 TEMP              0 ****  ****    0 ROOT
