@<TRIPOS>MOLECULE
WTJ
   44    46     1     0     0
SMALL
bcc


@<TRIPOS>ATOM
      1 C01         6.1610    3.1880    0.2490 c3        1 WTJ      0.154600
      2 N02         6.0520    1.7800   -0.0660 n3        1 WTJ     -0.736600
      3 C03         7.0330    0.9750    0.6280 c3        1 WTJ      0.154600
      4 C04         4.6900    1.2880    0.0870 c3        1 WTJ      0.143800
      5 C05         4.4800   -0.0900   -0.5860 c3        1 WTJ      0.085000
      6 N06         3.0980   -0.4670   -0.6790 n         1 WTJ     -0.561900
      7 C07         2.5110   -1.3780    0.1770 c         1 WTJ      0.689700
      8 O08         3.2000   -2.0100    1.0090 o         1 WTJ     -0.633100
      9 C09         1.0480   -1.5970    0.0350 ca        1 WTJ     -0.333900
     10 C10         0.1810   -0.5140   -0.1090 ca        1 WTJ     -0.031000
     11 C11        -1.2000   -0.7200   -0.2150 ca        1 WTJ     -0.185300
     12 C12        -2.1140    0.3750   -0.3670 cc        1 WTJ     -0.033100
     13 S13        -1.6040    1.9100   -0.8900 ss        1 WTJ      0.007200
     14 C14        -3.1250    2.6010   -0.8230 cc        1 WTJ     -0.170100
     15 C15        -4.0620    1.6840   -0.4080 cd        1 WTJ      0.044100
     16 O16        -5.3970    1.9550   -0.2220 os        1 WTJ     -0.292900
     17 C17        -6.1840    0.7580   -0.1150 c3        1 WTJ      0.091400
     18 C18        -5.5200   -0.2810    0.7740 c3        1 WTJ      0.092400
     19 O19        -4.2390   -0.6830    0.2610 os        1 WTJ     -0.298900
     20 C20        -3.4800    0.3920   -0.1410 cd        1 WTJ      0.037100
     21 C21        -1.6550   -2.0630   -0.1570 ca        1 WTJ      0.491200
     22 N22        -0.8660   -3.1250   -0.0100 nb        1 WTJ     -0.739000
     23 C23         0.4990   -2.9240    0.0830 ca        1 WTJ      0.709200
     24 N24         1.3240   -4.0300    0.1500 nh        1 WTJ     -0.939500
     25 H011        7.2120    3.5220    0.0470 h1        1 WTJ      0.033200
     26 H012        5.4680    3.7660   -0.4160 h1        1 WTJ      0.033200
     27 H013        5.9100    3.4250    1.3200 h1        1 WTJ      0.033200
     28 H031        6.8550    0.9160    1.7370 h1        1 WTJ      0.033200
     29 H032        7.0110   -0.0650    0.2080 h1        1 WTJ      0.033200
     30 H033        8.0520    1.4090    0.4530 h1        1 WTJ      0.033200
     31 H041        4.3960    1.2050    1.1740 h1        1 WTJ      0.034200
     32 H042        4.0020    2.0390   -0.3950 h1        1 WTJ      0.034200
     33 H051        4.9040   -0.0630   -1.6310 h1        1 WTJ      0.070700
     34 H052        5.0280   -0.8790    0.0040 h1        1 WTJ      0.070700
     35 H06         2.5210    0.0570   -1.2920 hn        1 WTJ      0.310500
     36 H10         0.5760    0.5160   -0.1200 ha        1 WTJ      0.136000
     37 H21        -2.7390   -2.2850   -0.2250 h4        1 WTJ      0.045100
     38 H14        -3.3260    3.6400   -1.0760 h4        1 WTJ      0.187000
     39 H171       -7.1500    1.1150    0.3300 h1        1 WTJ      0.072700
     40 H172       -6.3510    0.3500   -1.1460 h1        1 WTJ      0.072700
     41 H181       -5.3780    0.1160    1.8130 h1        1 WTJ      0.073200
     42 H182       -6.1080   -1.2360    0.7920 h1        1 WTJ      0.073200
     43 H241        2.2420   -3.8840    0.5090 hn        1 WTJ      0.439300
     44 H242        0.9080   -4.9140    0.3310 hn        1 WTJ      0.439300
@<TRIPOS>BOND
     1    1    2 1   
     2    1   25 1   
     3    1   26 1   
     4    1   27 1   
     5    2    3 1   
     6    2    4 1   
     7    3   28 1   
     8    3   29 1   
     9    3   30 1   
    10    4    5 1   
    11    4   31 1   
    12    4   32 1   
    13    5    6 1   
    14    5   33 1   
    15    5   34 1   
    16    6    7 1   
    17    6   35 1   
    18    7    8 2   
    19    7    9 1   
    20    9   10 ar  
    21    9   23 ar  
    22   10   11 ar  
    23   10   36 1   
    24   11   12 1   
    25   11   21 ar  
    26   12   13 1   
    27   12   20 2   
    28   13   14 1   
    29   14   15 2   
    30   14   38 1   
    31   15   16 1   
    32   15   20 1   
    33   16   17 1   
    34   17   18 1   
    35   17   39 1   
    36   17   40 1   
    37   18   19 1   
    38   18   41 1   
    39   18   42 1   
    40   19   20 1   
    41   21   22 ar  
    42   21   37 1   
    43   22   23 ar  
    44   23   24 1   
    45   24   43 1   
    46   24   44 1   
@<TRIPOS>SUBSTRUCTURE
     1 WTJ         1 TEMP              0 ****  ****    0 ROOT
