@<TRIPOS>MOLECULE
WTJ
   46    48     1     0     0
SMALL
bcc


@<TRIPOS>ATOM
      1 C01        -0.0250    0.0440    0.2480 c3        1 WTJ      0.077100
      2 N02         1.4680   -0.0110    0.2300 n4        1 WTJ     -0.674400
      3 C03         2.0000   -0.0220    1.6220 c3        1 WTJ      0.077100
      4 C04         1.9290   -1.2020   -0.5520 c3        1 WTJ      0.077800
      5 C05         3.4100   -1.1030   -0.9670 c3        1 WTJ      0.081800
      6 N06         3.8520   -2.2350   -1.8100 n4        1 WTJ     -0.682800
      7 C07         5.3620   -2.1090   -2.2180 c         1 WTJ      0.587700
      8 O08         5.8640   -1.0750   -1.7760 o         1 WTJ     -0.530100
      9 C09         5.8770   -3.1750   -2.9930 ca        1 WTJ     -0.406900
     10 C10         5.0810   -4.2880   -3.4180 ca        1 WTJ     -0.113000
     11 C11         5.6170   -5.3180   -4.1530 ca        1 WTJ     -0.068300
     12 C12         4.8460   -6.4360   -4.6010 cc        1 WTJ     -0.134100
     13 S13         3.1460   -6.3960   -4.7080 ss        1 WTJ     -0.028800
     14 C14         3.0010   -7.9630   -5.2750 cc        1 WTJ     -0.109100
     15 C15         4.2330   -8.5600   -5.4020 cd        1 WTJ      0.045100
     16 O16         4.4460   -9.8490   -5.8140 os        1 WTJ     -0.272900
     17 C17         5.8060  -10.0660   -6.2350 c3        1 WTJ      0.086400
     18 C18         6.8000   -9.4800   -5.2470 c3        1 WTJ      0.091400
     19 O19         6.6210   -8.0550   -5.0700 os        1 WTJ     -0.310900
     20 C20         5.3100   -7.6800   -5.0120 cd        1 WTJ      0.114100
     21 C21         7.0300   -5.2300   -4.4750 ca        1 WTJ      0.559200
     22 N22         7.8080   -4.2360   -4.1250 nb        1 WTJ     -0.710000
     23 C23         7.2790   -3.1680   -3.3840 ca        1 WTJ      0.791200
     24 N24         8.1300   -2.1690   -3.0680 nh        1 WTJ     -0.887500
     25 H011       -0.4120    0.1440   -0.8020 hx        1 WTJ      0.119533
     26 H012       -0.4330   -0.8890    0.7200 hx        1 WTJ      0.119533
     27 H013       -0.3470    0.9390    0.8500 hx        1 WTJ      0.119533
     28 H031        1.6210   -0.9290    2.1670 hx        1 WTJ      0.119533
     29 H032        3.1220   -0.0290    1.6000 hx        1 WTJ      0.119533
     30 H033        1.6460    0.9040    2.1560 hx        1 WTJ      0.119533
     31 H041        1.2760   -1.2780   -1.4730 hx        1 WTJ      0.119700
     32 H042        1.7560   -2.1190    0.0840 hx        1 WTJ      0.119700
     33 H051        3.6000   -0.1510   -1.5490 hx        1 WTJ      0.132700
     34 H052        4.0790   -1.0790   -0.0540 hx        1 WTJ      0.132700
     35 H06         3.7380   -3.1210   -1.3080 hn        1 WTJ      0.456800
     36 H10         4.0110   -4.3430   -3.1700 ha        1 WTJ      0.113000
     37 H21         7.5150   -6.0470   -5.0600 h4        1 WTJ      0.091100
     38 H14         2.0450   -8.4310   -5.5160 h4        1 WTJ      0.209000
     39 H171        5.8910  -11.1850   -6.2790 h1        1 WTJ      0.094200
     40 H172        5.9390   -9.6200   -7.2550 h1        1 WTJ      0.094200
     41 H181        6.7000   -9.9610   -4.2390 h1        1 WTJ      0.091700
     42 H182        7.8520   -9.5620   -5.6270 h1        1 WTJ      0.091700
     43 H241        7.8300   -1.3740   -2.5500 hn        1 WTJ      0.479300
     44 H242        9.0870   -2.2070   -3.3580 hn        1 WTJ      0.479300
     45 H021        1.8130    0.8410   -0.2380 hn        1 WTJ      0.461800
     46 H062        3.3000   -2.2770   -2.6720 hn        1 WTJ      0.456800
@<TRIPOS>BOND
     1    1    2 1   
     2    1   25 1   
     3    1   26 1   
     4    1   27 1   
     5    2    3 1   
     6    2    4 1   
     7    2   45 1   
     8    3   28 1   
     9    3   29 1   
    10    3   30 1   
    11    4    5 1   
    12    4   31 1   
    13    4   32 1   
    14    5    6 1   
    15    5   33 1   
    16    5   34 1   
    17    6    7 1   
    18    6   35 1   
    19    6   46 1   
    20    7    8 2   
    21    7    9 1   
    22    9   10 ar  
    23    9   23 ar  
    24   10   11 ar  
    25   10   36 1   
    26   11   12 1   
    27   11   21 ar  
    28   12   13 1   
    29   12   20 2   
    30   13   14 1   
    31   14   15 2   
    32   14   38 1   
    33   15   16 1   
    34   15   20 1   
    35   16   17 1   
    36   17   18 1   
    37   17   39 1   
    38   17   40 1   
    39   18   19 1   
    40   18   41 1   
    41   18   42 1   
    42   19   20 1   
    43   21   22 ar  
    44   21   37 1   
    45   22   23 ar  
    46   23   24 1   
    47   24   43 1   
    48   24   44 1   
@<TRIPOS>SUBSTRUCTURE
     1 WTJ         1 TEMP              0 ****  ****    0 ROOT
