@<TRIPOS>MOLECULE
WTZ
   18    17     1     0     0
SMALL
bcc


@<TRIPOS>ATOM
      1 CA1         1.5100    0.0070    0.0760 c         1 WTZ      0.896600
      2 OA1         2.1380   -0.7420    0.8760 o         1 WTZ     -0.831300
      3 CA2        -0.0440   -0.1220    0.0020 c3        1 WTZ     -0.008200
      4 OA2         2.0460    0.8670   -0.6780 o         1 WTZ     -0.831300
      5 C3         -0.6410    0.0560    1.4160 c3        1 WTZ      0.163100
      6 OA3        -0.5990    0.8980   -0.8220 oh        1 WTZ     -0.640800
      7 CA5        -2.1560    0.1480    1.4010 c3        1 WTZ     -0.085100
      8 OA4        -0.3030   -1.0220    2.2780 oh        1 WTZ     -0.651800
      9 CA3        -0.4060   -1.4710   -0.5970 c3        1 WTZ     -0.077100
     10 HA4         0.6380   -1.2170    2.1320 ho        1 WTZ      0.447000
     11 H3         -0.2130    1.0070    1.8470 h1        1 WTZ      0.023700
     12 HA51       -2.6010   -0.8330    1.1070 hc        1 WTZ      0.028033
     13 HA52       -2.4680    0.9270    0.6650 hc        1 WTZ      0.028033
     14 HA53       -2.5350    0.4170    2.4150 hc        1 WTZ      0.028033
     15 HA31        0.0820   -1.5820   -1.5940 hc        1 WTZ      0.027367
     16 HA32       -1.5100   -1.5590   -0.7270 hc        1 WTZ      0.027367
     17 HA33       -0.0450   -2.2790    0.0840 hc        1 WTZ      0.027367
     18 HA3         0.1460    1.3930   -1.2000 ho        1 WTZ      0.427000
@<TRIPOS>BOND
     1    1    2 1   
     2    1    3 1   
     3    1    4 1   
     4    3    5 1   
     5    3    6 1   
     6    3    9 1   
     7    5    7 1   
     8    5    8 1   
     9    5   11 1   
    10    6   18 1   
    11    7   12 1   
    12    7   13 1   
    13    7   14 1   
    14    8   10 1   
    15    9   15 1   
    16    9   16 1   
    17    9   17 1   
@<TRIPOS>SUBSTRUCTURE
     1 WTZ         1 TEMP              0 ****  ****    0 ROOT
