@<TRIPOS>MOLECULE
WTZ
   18    17     1     0     0
SMALL
bcc


@<TRIPOS>ATOM
      1 CA1         1.4960    0.0880    0.0750 c         1 WTZ      0.896600
      2 OA1         2.1550   -0.6570    0.8530 o         1 WTZ     -0.831300
      3 CA2        -0.0530   -0.0970    0.0050 c3        1 WTZ     -0.008200
      4 OA2         1.9950    0.9860   -0.6590 o         1 WTZ     -0.831300
      5 C3         -0.6480    0.0230    1.4250 c3        1 WTZ      0.163100
      6 OA3        -0.6500    0.9220   -0.7910 oh        1 WTZ     -0.640800
      7 CA5        -2.1670    0.0580    1.4190 c3        1 WTZ     -0.085100
      8 OA4        -0.2660   -1.0620    2.2580 oh        1 WTZ     -0.651800
      9 CA3        -0.3670   -1.4440   -0.6260 c3        1 WTZ     -0.077100
     10 HA4         0.6810   -1.2190    2.1030 ho        1 WTZ      0.447000
     11 H3         -0.2540    0.9780    1.8780 h1        1 WTZ      0.023700
     12 HA51       -2.5490    0.2880    2.4410 hc        1 WTZ      0.028033
     13 HA52       -2.5760   -0.9300    1.1030 hc        1 WTZ      0.028033
     14 HA53       -2.5110    0.8430    0.7040 hc        1 WTZ      0.028033
     15 HA31        0.1190   -1.5120   -1.6280 hc        1 WTZ      0.027367
     16 HA32       -1.4680   -1.5700   -0.7530 hc        1 WTZ      0.027367
     17 HA33        0.0270   -2.2540    0.0320 hc        1 WTZ      0.027367
     18 HA3         0.0750    1.4540   -1.1590 ho        1 WTZ      0.427000
@<TRIPOS>BOND
     1    1    2 1   
     2    1    3 1   
     3    1    4 1   
     4    3    5 1   
     5    3    6 1   
     6    3    9 1   
     7    5    7 1   
     8    5    8 1   
     9    5   11 1   
    10    6   18 1   
    11    7   12 1   
    12    7   13 1   
    13    7   14 1   
    14    8   10 1   
    15    9   15 1   
    16    9   16 1   
    17    9   17 1   
@<TRIPOS>SUBSTRUCTURE
     1 WTZ         1 TEMP              0 ****  ****    0 ROOT
