@<TRIPOS>MOLECULE
WTZ
   18    17     1     0     0
SMALL
bcc


@<TRIPOS>ATOM
      1 CA1        -1.2180    0.3040    0.1180 c         1 WTZ      0.896600
      2 OA1        -1.3030    1.4830   -0.3250 o         1 WTZ     -0.831300
      3 CA2         0.1040   -0.4890   -0.1280 c3        1 WTZ     -0.008200
      4 OA2        -2.1290   -0.2950    0.7560 o         1 WTZ     -0.831300
      5 C3          1.2990    0.3280    0.4120 c3        1 WTZ      0.163100
      6 OA3         0.0900   -1.7300    0.5720 oh        1 WTZ     -0.640800
      7 CA5         2.5970   -0.4600    0.3970 c3        1 WTZ     -0.085100
      8 OA4         1.5260    1.5080   -0.3450 oh        1 WTZ     -0.651800
      9 CA3         0.2450   -0.7780   -1.6130 c3        1 WTZ     -0.077100
     10 HA4         0.6560    1.9090   -0.5120 ho        1 WTZ      0.447000
     11 H3          1.0540    0.6240    1.4740 h1        1 WTZ      0.023700
     12 HA51        2.9270   -0.6430   -0.6530 hc        1 WTZ      0.028033
     13 HA52        3.3990    0.1110    0.9240 hc        1 WTZ      0.028033
     14 HA53        2.4370   -1.4390    0.9070 hc        1 WTZ      0.028033
     15 HA31       -0.6560   -1.3250   -1.9760 hc        1 WTZ      0.027367
     16 HA32        0.3390    0.1880   -2.1640 hc        1 WTZ      0.027367
     17 HA33        1.1470   -1.4060   -1.8070 hc        1 WTZ      0.027367
     18 HA3        -0.7860   -1.8110    0.9840 ho        1 WTZ      0.427000
@<TRIPOS>BOND
     1    1    2 1   
     2    1    3 1   
     3    1    4 1   
     4    3    5 1   
     5    3    6 1   
     6    3    9 1   
     7    5    7 1   
     8    5    8 1   
     9    5   11 1   
    10    6   18 1   
    11    7   12 1   
    12    7   13 1   
    13    7   14 1   
    14    8   10 1   
    15    9   15 1   
    16    9   16 1   
    17    9   17 1   
@<TRIPOS>SUBSTRUCTURE
     1 WTZ         1 TEMP              0 ****  ****    0 ROOT
