@<TRIPOS>MOLECULE
WTZ
   18    16     1     0     0
SMALL
bcc


@<TRIPOS>ATOM
      1 CA1         1.6680    0.1040   -0.5250 c1        1 WTZ      0.314000
      2 OA1         2.2270    1.0180   -1.1860 o         1 WTZ     -0.566000
      3 CA2         0.1620   -0.0400   -0.5590 c2        1 WTZ      0.009000
      4 OA2         2.3610   -0.6890    0.1640 o         1 WTZ     -0.566000
      5 C3         -0.3700   -0.1050    0.8540 c3        1 WTZ      0.020000
      6 OA3        -0.4000    1.0660   -1.2220 oh        1 WTZ     -0.359000
      7 CA5        -0.2230    1.2490    1.5110 c3        1 WTZ     -0.244000
      8 OA4        -1.7300   -0.4690    0.8280 oh        1 WTZ     -0.335000
      9 CA3        -0.2060   -1.3100   -1.2950 c3        1 WTZ     -0.186000
     10 HA4        -1.9320   -0.9130    1.5700 ho        1 WTZ      0.168000
     11 H3          0.1350   -0.7700    1.3620 h1        1 WTZ      0.087000
     12 HA51        0.6710    1.6060    1.3270 hc        1 WTZ      0.077000
     13 HA52       -0.8990    1.8610    1.1520 hc        1 WTZ      0.077000
     14 HA53       -0.3450    1.1570    2.4790 hc        1 WTZ      0.077000
     15 HA31       -0.0790   -2.0800   -0.7020 hc        1 WTZ      0.068667
     16 HA32        0.3670   -1.4080   -2.0840 hc        1 WTZ      0.068667
     17 HA33       -1.1440   -1.2640   -1.5760 hc        1 WTZ      0.068667
     18 HA3        -0.2650    0.9870   -2.0970 ho        1 WTZ      0.219000
@<TRIPOS>BOND
     1    1    2 1   
     2    1    4 1   
     3    3    5 1   
     4    3    6 1   
     5    3    9 1   
     6    5    7 1   
     7    5    8 1   
     8    5   11 1   
     9    6   18 1   
    10    7   12 1   
    11    7   13 1   
    12    7   14 1   
    13    8   10 1   
    14    9   15 1   
    15    9   16 1   
    16    9   17 1   
@<TRIPOS>SUBSTRUCTURE
     1 WTZ         1 TEMP              0 ****  ****    0 ROOT
