@<TRIPOS>MOLECULE
WUB
   28    30     1     0     0
SMALL
bcc


@<TRIPOS>ATOM
      1 O01         0.2830    0.5970    0.2390 o         1 WUB     -0.834800
      2 C02         1.4320    0.0660    0.1630 c         1 WUB      0.913600
      3 O03         2.0450   -0.4290    1.1460 o         1 WUB     -0.834800
      4 C04         2.1000    0.0240   -1.2380 c3        1 WUB     -0.207700
      5 C05         3.2980   -0.9070   -1.2200 c3        1 WUB     -0.049200
      6 C06         4.2180   -0.7330   -2.3630 c2        1 WUB     -0.126200
      7 C07         4.1680    0.2990   -3.2170 ce        1 WUB     -0.248600
      8 C08         3.1520    1.3500   -3.0830 ce        1 WUB      0.448600
      9 N09         2.8340    2.1070   -4.0940 nf        1 WUB     -0.571100
     10 C10         1.7890    3.0360   -3.9270 ca        1 WUB      0.032400
     11 C11         1.4190    3.8640   -5.0020 ca        1 WUB     -0.061000
     12 C12         0.3420    4.7330   -4.8910 ca        1 WUB     -0.215000
     13 C13        -0.3990    4.7820   -3.7080 ca        1 WUB     -0.094000
     14 C14        -0.0610    3.9900   -2.6240 ca        1 WUB     -0.203000
     15 C15         1.0600    3.1220   -2.6910 ca        1 WUB      0.175600
     16 N16         1.4980    2.4450   -1.5680 nh        1 WUB     -0.725600
     17 C17         2.5370    1.4340   -1.6840 c3        1 WUB      0.149200
     18 H041        1.3310   -0.3610   -1.9600 hc        1 WUB      0.050700
     19 H052        2.9270   -1.9670   -1.1890 hc        1 WUB      0.070200
     20 H051        3.8660   -0.7430   -0.2590 hc        1 WUB      0.070200
     21 H061        4.9880   -1.5130   -2.4790 ha        1 WUB      0.105000
     22 H071        4.8730    0.3900   -4.0580 ha        1 WUB      0.125000
     23 H111        1.9860    3.8130   -5.9450 ha        1 WUB      0.127000
     24 H121        0.0670    5.3750   -5.7390 ha        1 WUB      0.113000
     25 H131       -1.2640    5.4570   -3.6360 ha        1 WUB      0.112000
     26 H141       -0.6590    4.0320   -1.7020 ha        1 WUB      0.137000
     27 H161        0.8000    2.2280   -0.8700 hn        1 WUB      0.474800
     28 H171        3.3620    1.7690   -0.9800 h1        1 WUB      0.066700
@<TRIPOS>BOND
     1    1    2 1   
     2    2    3 1   
     3    2    4 1   
     4    4    5 1   
     5    4   17 1   
     6    4   18 1   
     7    5    6 1   
     8    5   19 1   
     9    5   20 1   
    10    6    7 2   
    11    6   21 1   
    12    7    8 1   
    13    7   22 1   
    14    8    9 2   
    15    8   17 1   
    16    9   10 1   
    17   10   11 ar  
    18   10   15 ar  
    19   11   12 ar  
    20   11   23 1   
    21   12   13 ar  
    22   12   24 1   
    23   13   14 ar  
    24   13   25 1   
    25   14   15 ar  
    26   14   26 1   
    27   15   16 1   
    28   16   17 1   
    29   16   27 1   
    30   17   28 1   
@<TRIPOS>SUBSTRUCTURE
     1 WUB         1 TEMP              0 ****  ****    0 ROOT
