@<TRIPOS>MOLECULE
WUB
   28    30     1     0     0
SMALL
bcc


@<TRIPOS>ATOM
      1 O01         0.3120    0.6520    0.2510 o         1 WUB     -0.834800
      2 C02         1.4490    0.0990    0.1690 c         1 WUB      0.913600
      3 O03         2.0490   -0.4270    1.1450 o         1 WUB     -0.834800
      4 C04         2.1210    0.0680   -1.2300 c3        1 WUB     -0.207700
      5 C05         3.2990   -0.8880   -1.2250 c3        1 WUB     -0.049200
      6 C06         4.2280   -0.7120   -2.3620 c2        1 WUB     -0.126200
      7 C07         4.2020    0.3360   -3.1970 ce        1 WUB     -0.248600
      8 C08         3.2070    1.4050   -3.0470 ce        1 WUB      0.448600
      9 N09         2.9090    2.1860   -4.0460 nf        1 WUB     -0.571100
     10 C10         1.8820    3.1340   -3.8650 ca        1 WUB      0.032400
     11 C11         1.5340    3.9880   -4.9270 ca        1 WUB     -0.061000
     12 C12         0.4740    4.8770   -4.8040 ca        1 WUB     -0.215000
     13 C13        -0.2700    4.9200   -3.6230 ca        1 WUB     -0.094000
     14 C14         0.0480    4.1020   -2.5520 ca        1 WUB     -0.203000
     15 C15         1.1510    3.2120   -2.6300 ca        1 WUB      0.175600
     16 N16         1.5710    2.5070   -1.5190 nu        1 WUB     -0.725600
     17 C17         2.5890    1.4760   -1.6490 c3        1 WUB      0.149200
     18 H041        1.3470   -0.2880   -1.9610 hc        1 WUB      0.050700
     19 H052        2.9060   -1.9400   -1.2150 hc        1 WUB      0.070200
     20 H051        3.8670   -0.7530   -0.2600 hc        1 WUB      0.070200
     21 H061        4.9810   -1.5060   -2.4900 ha        1 WUB      0.105000
     22 H071        4.9120    0.4270   -4.0340 ha        1 WUB      0.125000
     23 H111        2.1030    3.9420   -5.8680 ha        1 WUB      0.127000
     24 H121        0.2150    5.5400   -5.6400 ha        1 WUB      0.113000
     25 H131       -1.1210    5.6120   -3.5410 ha        1 WUB      0.112000
     26 H141       -0.5520    4.1400   -1.6310 ha        1 WUB      0.137000
     27 H161        0.8660    2.2920   -0.8270 hn        1 WUB      0.474800
     28 H171        3.4180    1.7820   -0.9360 h1        1 WUB      0.066700
@<TRIPOS>BOND
     1    1    2 1   
     2    2    3 1   
     3    2    4 1   
     4    4    5 1   
     5    4   17 1   
     6    4   18 1   
     7    5    6 1   
     8    5   19 1   
     9    5   20 1   
    10    6    7 2   
    11    6   21 1   
    12    7    8 1   
    13    7   22 1   
    14    8    9 2   
    15    8   17 1   
    16    9   10 1   
    17   10   11 ar  
    18   10   15 ar  
    19   11   12 ar  
    20   11   23 1   
    21   12   13 ar  
    22   12   24 1   
    23   13   14 ar  
    24   13   25 1   
    25   14   15 ar  
    26   14   26 1   
    27   15   16 1   
    28   16   17 1   
    29   16   27 1   
    30   17   28 1   
@<TRIPOS>SUBSTRUCTURE
     1 WUB         1 TEMP              0 ****  ****    0 ROOT
