@<TRIPOS>MOLECULE
WUB
   28    30     1     0     0
SMALL
bcc


@<TRIPOS>ATOM
      1 O01         0.2550    0.5400    0.2240 o         1 WUB     -0.834800
      2 C02         1.4200    0.0440    0.1660 c         1 WUB      0.913600
      3 O03         2.0370   -0.4210    1.1610 o         1 WUB     -0.834800
      4 C04         2.1040    0.0070   -1.2270 c3        1 WUB     -0.207700
      5 C05         3.3300   -0.8870   -1.1850 c3        1 WUB     -0.049200
      6 C06         4.2580   -0.6970   -2.3200 c2        1 WUB     -0.126200
      7 C07         4.1860    0.3230   -3.1860 ce        1 WUB     -0.248600
      8 C08         3.1360    1.3440   -3.0750 ce        1 WUB      0.448600
      9 N09         2.8070    2.0790   -4.0990 nf        1 WUB     -0.571100
     10 C10         1.7310    2.9770   -3.9540 ca        1 WUB      0.032400
     11 C11         1.3480    3.7810   -5.0430 ca        1 WUB     -0.061000
     12 C12         0.2430    4.6180   -4.9540 ca        1 WUB     -0.215000
     13 C13        -0.5120    4.6570   -3.7790 ca        1 WUB     -0.094000
     14 C14        -0.1610    3.8880   -2.6830 ca        1 WUB     -0.203000
     15 C15         0.9860    3.0540   -2.7270 ca        1 WUB      0.175600
     16 N16         1.4330    2.4040   -1.5920 nh        1 WUB     -0.725600
     17 C17         2.5030    1.4240   -1.6840 c3        1 WUB      0.149200
     18 H041        1.3560   -0.4100   -1.9520 hc        1 WUB      0.050700
     19 H052        3.8820   -0.6950   -0.2200 hc        1 WUB      0.070200
     20 H051        2.9910   -1.9570   -1.1470 hc        1 WUB      0.070200
     21 H061        5.0520   -1.4540   -2.4190 ha        1 WUB      0.105000
     22 H071        4.8970    0.4270   -4.0200 ha        1 WUB      0.125000
     23 H111        1.9270    3.7370   -5.9780 ha        1 WUB      0.127000
     24 H121       -0.0420    5.2410   -5.8110 ha        1 WUB      0.113000
     25 H131       -1.3980    5.3060   -3.7240 ha        1 WUB      0.112000
     26 H141       -0.7710    3.9220   -1.7670 ha        1 WUB      0.137000
     27 H161        0.7330    2.1740   -0.8980 hn        1 WUB      0.474800
     28 H171        3.3090    1.7930   -0.9750 h1        1 WUB      0.066700
@<TRIPOS>BOND
     1    1    2 1   
     2    2    3 1   
     3    2    4 1   
     4    4    5 1   
     5    4   17 1   
     6    4   18 1   
     7    5    6 1   
     8    5   19 1   
     9    5   20 1   
    10    6    7 2   
    11    6   21 1   
    12    7    8 1   
    13    7   22 1   
    14    8    9 2   
    15    8   17 1   
    16    9   10 1   
    17   10   11 ar  
    18   10   15 ar  
    19   11   12 ar  
    20   11   23 1   
    21   12   13 ar  
    22   12   24 1   
    23   13   14 ar  
    24   13   25 1   
    25   14   15 ar  
    26   14   26 1   
    27   15   16 1   
    28   16   17 1   
    29   16   27 1   
    30   17   28 1   
@<TRIPOS>SUBSTRUCTURE
     1 WUB         1 TEMP              0 ****  ****    0 ROOT
