@<TRIPOS>MOLECULE
WUB
   28    30     1     0     0
SMALL
bcc


@<TRIPOS>ATOM
      1 O01        -1.8090   -2.5120    0.3660 o         1 WUB     -0.834800
      2 C02        -2.5100   -1.5040    0.0520 c         1 WUB      0.913600
      3 O03        -3.6460   -1.5770   -0.4870 o         1 WUB     -0.834800
      4 C04        -1.9190   -0.1040    0.3720 c3        1 WUB     -0.207700
      5 C05        -2.9900    0.9610    0.2350 c3        1 WUB     -0.049200
      6 C06        -2.4640    2.3400    0.1390 c2        1 WUB     -0.126200
      7 C07        -1.1740    2.6390   -0.0610 ce        1 WUB     -0.248600
      8 C08        -0.1580    1.5860   -0.1830 ce        1 WUB      0.448600
      9 N09         1.1010    1.8440    0.0290 nf        1 WUB     -0.571100
     10 C10         2.0160    0.7730   -0.0140 ca        1 WUB      0.032400
     11 C11         3.3810    1.0190    0.2160 ca        1 WUB     -0.061000
     12 C12         4.2940   -0.0280    0.2570 ca        1 WUB     -0.215000
     13 C13         3.8580   -1.3430    0.0840 ca        1 WUB     -0.094000
     14 C14         2.5230   -1.6250   -0.1540 ca        1 WUB     -0.203000
     15 C15         1.5720   -0.5750   -0.2430 ca        1 WUB      0.175600
     16 N16         0.2710   -0.8300   -0.6330 nh        1 WUB     -0.725600
     17 C17        -0.7330    0.2190   -0.5590 c3        1 WUB      0.149200
     18 H041       -1.5480   -0.1360    1.4310 hc        1 WUB      0.050700
     19 H052       -3.6060    0.7350   -0.6830 hc        1 WUB      0.070200
     20 H051       -3.6880    0.8810    1.1110 hc        1 WUB      0.070200
     21 H061       -3.2140    3.1430    0.2290 ha        1 WUB      0.105000
     22 H071       -0.8240    3.6810   -0.1240 ha        1 WUB      0.125000
     23 H111        3.7260    2.0520    0.3740 ha        1 WUB      0.127000
     24 H121        5.3570    0.1790    0.4340 ha        1 WUB      0.113000
     25 H131        4.5830   -2.1680    0.1400 ha        1 WUB      0.112000
     26 H141        2.1920   -2.6670   -0.2790 ha        1 WUB      0.137000
     27 H161       -0.0910   -1.7510   -0.4240 hn        1 WUB      0.474800
     28 H171       -1.1470    0.3130   -1.6120 h1        1 WUB      0.066700
@<TRIPOS>BOND
     1    1    2 1   
     2    2    3 1   
     3    2    4 1   
     4    4    5 1   
     5    4   17 1   
     6    4   18 1   
     7    5    6 1   
     8    5   19 1   
     9    5   20 1   
    10    6    7 2   
    11    6   21 1   
    12    7    8 1   
    13    7   22 1   
    14    8    9 2   
    15    8   17 1   
    16    9   10 1   
    17   10   11 ar  
    18   10   15 ar  
    19   11   12 ar  
    20   11   23 1   
    21   12   13 ar  
    22   12   24 1   
    23   13   14 ar  
    24   13   25 1   
    25   14   15 ar  
    26   14   26 1   
    27   15   16 1   
    28   16   17 1   
    29   16   27 1   
    30   17   28 1   
@<TRIPOS>SUBSTRUCTURE
     1 WUB         1 TEMP              0 ****  ****    0 ROOT
