@<TRIPOS>MOLECULE
WUL
   36    37     1     0     0
SMALL
bcc


@<TRIPOS>ATOM
      1 C14         1.0310   -0.6080    0.0930 c1        1 WUL      0.001000
      2 N3         -0.5910    2.2260    2.7190 n3        1 WUL      0.091000
      3 O3          0.5840    0.1250   -0.8670 oh        1 WUL     -0.151000
      4 C13         1.7750   -1.8530   -0.1730 c3        1 WUL     -0.332000
      5 N1          2.6460    1.4020    3.3980 n2        1 WUL     -0.164000
      6 C12        -0.6650    3.4490    2.3130 c2        1 WUL     -0.287000
      7 N2          1.0930    0.8110    5.1690 n         1 WUL     -0.298000
      8 C5          0.2770    1.0500    2.8480 cx        1 WUL      0.044000
      9 C3          1.4230    1.1030    3.8480 c2        1 WUL      0.114000
     10 C2          3.6350    1.4020    4.3570 c2        1 WUL      0.048000
     11 C7          5.0570    1.6690    4.2840 c2        1 WUL     -0.186000
     12 C11         5.9390    2.0220    3.2290 c2        1 WUL      0.087000
     13 C10         7.2720    2.2010    3.5250 c2        1 WUL     -0.294000
     14 C9          7.8110    2.0550    4.8250 c1        1 WUL     -0.059000
     15 C8          6.9570    1.6970    5.9560 c3        1 WUL     -0.167000
     16 O2          4.5450    1.1690    6.4860 os        1 WUL     -0.024000
     17 C6          5.5430    1.5130    5.5970 c2        1 WUL      0.053000
     18 C1          3.3780    1.1040    5.7150 c2        1 WUL     -0.176000
     19 C4          2.0540    0.7860    6.2090 c2        1 WUL      0.373000
     20 C15        -1.1050    1.1560    3.3270 cu        1 WUL     -0.473000
     21 H3          0.7730   -0.1860   -1.7820 ho        1 WUL      0.161000
     22 H14         3.1410    0.6700   -0.0670 ha        1 WUL      0.002500
     23 H151       -2.0300    0.7240    3.6380 h4        1 WUL      0.228000
     24 H152        2.8780    1.0080    0.4600 ha        1 WUL      0.002500
     25 H131        2.7750   -1.7800    0.3260 hc        1 WUL      0.110000
     26 H132        1.9290   -2.0810   -1.2590 hc        1 WUL      0.110000
     27 H121        1.2200   -2.7040    0.3000 hc        1 WUL      0.110000
     28 H122       -1.5990    4.0120    2.4480 h4        1 WUL      0.157000
     29 H51C        0.2010    3.9250    1.8360 h4        1 WUL      0.157000
     30 H52C        0.5820    0.5250    1.8970 h1        1 WUL      0.210000
     31 H2          0.1340    0.6370    5.3970 hn        1 WUL      0.274000
     32 H11         5.5230    2.1380    2.2140 ha        1 WUL      0.163000
     33 H9          7.3750    0.7540    6.4210 hc        1 WUL      0.182500
     34 H8          7.0650    2.5060    6.7400 hc        1 WUL      0.182500
     35 BR1         8.4730    2.6630    2.1640 br        1 WUL      0.069000
     36 O1          1.7140    0.5140    7.3690 o         1 WUL     -0.321000
@<TRIPOS>BOND
     1    1    3 1   
     2    1    4 1   
     3    2    6 1   
     4    2    8 1   
     5    2   20 1   
     6    3   21 1   
     7    4   25 1   
     8    4   26 1   
     9    4   27 1   
    10    5    9 1   
    11    5   10 1   
    12    6   28 1   
    13    6   29 1   
    14    7    9 1   
    15    7   19 1   
    16    7   31 1   
    17    8    9 1   
    18    8   20 1   
    19    8   30 1   
    20   10   11 1   
    21   10   18 1   
    22   11   12 1   
    23   11   17 1   
    24   12   13 1   
    25   12   32 1   
    26   13   14 1   
    27   13   35 1   
    28   14   15 1   
    29   15   17 1   
    30   15   33 1   
    31   15   34 1   
    32   16   17 1   
    33   16   18 1   
    34   18   19 1   
    35   19   36 1   
    36   20   23 1   
    37   22   24 1   
@<TRIPOS>SUBSTRUCTURE
     1 WUL         1 TEMP              0 ****  ****    0 ROOT
