@<TRIPOS>MOLECULE
WUL
   36    36     1     0     0
SMALL
bcc


@<TRIPOS>ATOM
      1 C14         0.4400    0.1550   -1.0130 c1        1 WUL     -0.026000
      2 N3          0.3740    0.9770    2.4760 n3        1 WUL      0.063000
      3 O3          0.7030    1.2390   -1.6570 oh        1 WUL     -0.153000
      4 C13         0.4900   -1.1640   -1.6650 c3        1 WUL     -0.332000
      5 N1          2.8070    1.4900    4.1090 n2        1 WUL     -0.267000
      6 C12         1.1910    1.7470    1.7580 c2        1 WUL     -0.186000
      7 N2          1.6250    0.3750    5.9290 ns        1 WUL     -0.328000
      8 C5          0.5480    0.6190    3.7980 c2        1 WUL     -0.354000
      9 C3          1.7100    0.8560    4.6080 c2        1 WUL      0.220000
     10 C2          3.8540    1.6280    4.9710 c2        1 WUL      0.095000
     11 C7          5.1680    2.2280    4.8080 c2        1 WUL     -0.207000
     12 C11         5.8290    2.8650    3.7320 c2        1 WUL      0.095000
     13 C10         7.1140    3.3270    3.9300 c2        1 WUL     -0.301000
     14 C9          7.8090    3.1980    5.1520 c1        1 WUL     -0.071000
     15 C8          7.1840    2.5510    6.3050 c3        1 WUL     -0.165000
     16 O2          5.0290    1.4310    6.9780 os        1 WUL     -0.024000
     17 C6          5.8170    2.0720    6.0520 c2        1 WUL      0.064000
     18 C1          3.8260    1.1600    6.3070 c2        1 WUL     -0.227000
     19 C4          2.6770    0.4930    6.8670 c2        1 WUL      0.388000
     20 C15        -0.8120    0.4790    1.9060 c1        1 WUL      0.076000
     21 H3          0.9390    1.1420   -2.6070 ho        1 WUL      0.171000
     22 H14        -0.4210   -1.7010    1.5400 ha        1 WUL      0.012000
     23 H151       -0.9200    0.7470    0.8260 ha        1 WUL      0.069000
     24 H152       -0.1930   -1.5120    0.9260 ha        1 WUL      0.012000
     25 H131        0.7620   -1.1370   -2.7510 hc        1 WUL      0.115333
     26 H132        1.2350   -1.7990   -1.1190 hc        1 WUL      0.115333
     27 H121        0.9670    1.8960    0.6840 h4        1 WUL      0.186000
     28 H122       -0.5130   -1.6520   -1.5540 hc        1 WUL      0.115333
     29 H51C       -0.3130    0.0790    4.2290 h4        1 WUL      0.182000
     30 H52C        2.0870    2.2260    2.1830 h4        1 WUL      0.186000
     31 H2          0.7880   -0.0760    6.2280 hn        1 WUL      0.251000
     32 H11         5.2930    2.9720    2.7740 ha        1 WUL      0.154000
     33 H9          7.8500    1.6940    6.6240 hc        1 WUL      0.179500
     34 H8          7.1920    3.2890    7.1620 hc        1 WUL      0.179500
     35 Br1         8.0190    4.1750    2.5250 br        1 WUL      0.057000
     36 O1          2.5280    0.0420    8.0150 o         1 WUL     -0.342000
@<TRIPOS>BOND
     1    1    3 1   
     2    1    4 1   
     3    2    6 1   
     4    2    8 1   
     5    2   20 1   
     6    3   21 1   
     7    4   25 1   
     8    4   26 1   
     9    4   28 1   
    10    5    9 1   
    11    5   10 1   
    12    6   27 1   
    13    6   30 1   
    14    7    9 1   
    15    7   19 1   
    16    7   31 1   
    17    8    9 1   
    18    8   29 1   
    19   10   11 1   
    20   10   18 1   
    21   11   12 1   
    22   11   17 1   
    23   12   13 1   
    24   12   32 1   
    25   13   14 1   
    26   13   35 1   
    27   14   15 1   
    28   15   17 1   
    29   15   33 1   
    30   15   34 1   
    31   16   17 1   
    32   16   18 1   
    33   18   19 1   
    34   19   36 1   
    35   20   23 1   
    36   22   24 1   
@<TRIPOS>SUBSTRUCTURE
     1 WUL         1 TEMP              0 ****  ****    0 ROOT
