@<TRIPOS>MOLECULE
WUL
   36    39     1     0     0
SMALL
bcc


@<TRIPOS>ATOM
      1 C14        -5.6240    2.3250   -0.3440 c3        1 WUL      0.122100
      2 N3         -4.0730    0.4590    0.0560 n3        1 WUL     -0.730600
      3 O3         -6.8290    2.5100    0.3760 oh        1 WUL     -0.590800
      4 C13        -4.3990    2.8700    0.4000 c3        1 WUL     -0.136400
      5 N1         -0.7720   -0.4990   -0.8390 nc        1 WUL     -0.595300
      6 C12        -3.5130    1.6520    0.7000 c3        1 WUL      0.152800
      7 N2         -2.1950   -1.6940    0.7200 n         1 WUL     -0.462400
      8 C5         -3.2070   -0.1340   -0.9490 c3        1 WUL      0.120500
      9 C3         -1.9680   -0.7950   -0.3220 cd        1 WUL      0.480900
     10 C2          0.2950   -1.1610   -0.2720 cc        1 WUL      0.174400
     11 C7          1.7210   -1.1100   -0.5570 ca        1 WUL     -0.102800
     12 C11         2.5220   -0.4210   -1.4600 ca        1 WUL     -0.028000
     13 C10         3.9000   -0.6500   -1.4230 ca        1 WUL     -0.056900
     14 C9          4.4710   -1.5490   -0.5040 ca        1 WUL     -0.072000
     15 C8          3.6910   -2.2530    0.4100 ca        1 WUL     -0.129000
     16 O2          1.3660   -2.6240    1.2000 os        1 WUL     -0.141200
     17 C6          2.3200   -2.0220    0.3710 ca        1 WUL      0.094100
     18 C1          0.1470   -2.0800    0.7840 cd        1 WUL     -0.107100
     19 C4         -1.1460   -2.3980    1.3600 c         1 WUL      0.725700
     20 C15        -5.4030    0.7950   -0.4560 c3        1 WUL      0.157800
     21 H3         -6.9360    3.4610    0.5040 ho        1 WUL      0.405000
     22 H14        -5.7220    2.7920   -1.3610 h1        1 WUL      0.041700
     23 H151       -6.1540    0.2640    0.1940 h1        1 WUL      0.067700
     24 H152       -5.5540    0.4660   -1.5180 h1        1 WUL      0.067700
     25 H131       -3.8520    3.6120   -0.2290 hc        1 WUL      0.059200
     26 H132       -4.7040    3.3730    1.3500 hc        1 WUL      0.059200
     27 H121       -3.5060    1.4470    1.8060 h1        1 WUL      0.059700
     28 H122       -2.4540    1.8450    0.3750 h1        1 WUL      0.059700
     29 H51C       -3.7770   -0.9520   -1.4780 h1        1 WUL      0.070700
     30 H52C       -2.8640    0.6100   -1.7260 h1        1 WUL      0.070700
     31 H2         -3.1220   -1.8140    1.0710 hn        1 WUL      0.356500
     32 H11         2.0700    0.2820   -2.1780 ha        1 WUL      0.166000
     33 H9          5.5620   -1.7070   -0.5020 ha        1 WUL      0.154000
     34 H8          4.1330   -2.9560    1.1290 ha        1 WUL      0.163000
     35 BR1         5.0160    0.2590   -2.6230 br        1 WUL     -0.080100
     36 O1         -1.4000   -3.1760    2.2910 o         1 WUL     -0.596500
@<TRIPOS>BOND
     1    1    3 1   
     2    1    4 1   
     3    1   20 1   
     4    1   22 1   
     5    2    6 1   
     6    2    8 1   
     7    2   20 1   
     8    3   21 1   
     9    4    6 1   
    10    4   25 1   
    11    4   26 1   
    12    5    9 2   
    13    5   10 1   
    14    6   27 1   
    15    6   28 1   
    16    7    9 1   
    17    7   19 1   
    18    7   31 1   
    19    8    9 1   
    20    8   29 1   
    21    8   30 1   
    22   10   11 1   
    23   10   18 2   
    24   11   12 ar  
    25   11   17 ar  
    26   12   13 ar  
    27   12   32 1   
    28   13   14 ar  
    29   13   35 1   
    30   14   15 ar  
    31   14   33 1   
    32   15   17 ar  
    33   15   34 1   
    34   16   17 1   
    35   16   18 1   
    36   18   19 1   
    37   19   36 2   
    38   20   23 1   
    39   20   24 1   
@<TRIPOS>SUBSTRUCTURE
     1 WUL         1 TEMP              0 ****  ****    0 ROOT
