@<TRIPOS>MOLECULE
WUL
   36    35     1     0     0
SMALL
bcc


@<TRIPOS>ATOM
      1 C14        -3.6270   -2.7030   -1.1840 c3        1 WUL      0.012000
      2 N3         -2.2850   -1.2580   -0.0430 n3        1 WUL     -0.254000
      3 O3         -4.8180   -3.2310   -0.8120 oh        1 WUL     -0.314000
      4 C13        -3.8290   -1.3260   -1.7970 c3        1 WUL     -0.176000
      5 N1          0.9240    0.3900   -0.3220 n1        1 WUL     -0.167000
      6 O1          1.3330   -1.0640    3.4600 o         1 WUL     -0.321000
      7 C12        -3.3800   -0.4730   -0.8850 c3        1 WUL     -0.089000
      8 N2          0.2370   -1.2040    1.4720 n3        1 WUL     -0.302000
      9 C5         -1.0290   -1.2580   -0.7630 c3        1 WUL     -0.040000
     10 C3          0.0840   -0.7030    0.1440 c2        1 WUL      0.111000
     11 C2          1.9260    0.9770    0.5680 c1        1 WUL     -0.034500
     12 C7          2.8640    2.0180    0.3820 c1        1 WUL     -0.034500
     13 BR1         4.8810    4.8390   -2.0700 br        1 WUL      0.060000
     14 C11         3.1530    2.8450   -0.7240 c1        1 WUL     -0.028000
     15 C10         4.1580    3.8050   -0.6320 c2        1 WUL     -0.197000
     16 C9          4.8770    3.9500    0.5510 c2        1 WUL     -0.072000
     17 C8          4.5920    3.1360    1.6420 c1        1 WUL     -0.129000
     18 O2          3.0930    1.2240    2.4640 os        1 WUL     -0.052000
     19 C6          3.5740    2.1610    1.5490 c1        1 WUL     -0.041000
     20 C1          2.0750    0.4980    1.8450 c1        1 WUL     -0.041000
     21 C4          1.2020   -0.6390    2.3310 c1        1 WUL      0.364000
     22 C15        -2.7220   -2.4780    0.0670 c3        1 WUL     -0.115000
     23 H3         -4.7860   -4.1210   -0.8860 ho        1 WUL      0.201000
     24 H14        -3.1810   -3.2930   -1.8200 h1        1 WUL      0.081000
     25 H151       -3.2470   -2.5780    0.8900 h1        1 WUL      0.096500
     26 H152       -1.9720   -3.1080    0.0630 h1        1 WUL      0.096500
     27 H131       -4.7820   -1.1670   -1.9730 hc        1 WUL      0.108000
     28 H132       -3.3130   -1.2420   -2.6230 hc        1 WUL      0.108000
     29 H121       -4.1140   -0.1880   -0.3010 h1        1 WUL      0.099500
     30 H122       -2.9740    0.3060   -1.3230 h1        1 WUL      0.099500
     31 H51C       -0.8060   -2.1750   -1.0310 h1        1 WUL      0.109500
     32 H52C       -1.1110   -0.6950   -1.5610 h1        1 WUL      0.109500
     33 H2         -0.2890   -1.8900    1.7640 hn        1 WUL      0.269000
     34 H11         2.6410    2.7510   -1.5500 ha        1 WUL      0.166000
     35 H9          5.5520    4.6570    0.6310 ha        1 WUL      0.154000
     36 H8          5.0980    3.2370    2.4730 ha        1 WUL      0.163000
@<TRIPOS>BOND
     1    1    3 1   
     2    1    4 1   
     3    1   22 1   
     4    1   24 1   
     5    2    7 1   
     6    2    9 1   
     7    2   22 1   
     8    3   23 1   
     9    4    7 1   
    10    4   27 1   
    11    4   28 1   
    12    5   10 1   
    13    6   21 1   
    14    7   29 1   
    15    7   30 1   
    16    8   10 1   
    17    8   21 1   
    18    8   33 1   
    19    9   10 1   
    20    9   31 1   
    21    9   32 1   
    22   11   12 1   
    23   11   20 1   
    24   12   19 1   
    25   13   15 1   
    26   14   15 1   
    27   14   34 1   
    28   15   16 1   
    29   16   17 1   
    30   16   35 1   
    31   17   36 1   
    32   18   19 1   
    33   18   20 1   
    34   22   25 1   
    35   22   26 1   
@<TRIPOS>SUBSTRUCTURE
     1 WUL         1 TEMP              0 ****  ****    0 ROOT
