@<TRIPOS>MOLECULE
WUN
   38    39     1     0     0
SMALL
bcc


@<TRIPOS>ATOM
      1 C1         -4.3610   -0.2310   -0.0560 c3        1 WUN      0.296900
      2 O1         -4.3780   -0.3800   -1.4560 oh        1 WUN     -0.629800
      3 C2         -3.8200    1.1780    0.2950 c3        1 WUN      0.120500
      4 N2         -4.5480    2.2580   -0.3350 n3        1 WUN     -0.903800
      5 C3         -2.3040    1.2680   -0.0140 c3        1 WUN      0.128100
      6 O3         -1.7500    2.4200    0.6020 oh        1 WUN     -0.607800
      7 C4         -1.5570    0.0620    0.5850 c3        1 WUN      0.127100
      8 O4         -0.2160    0.0170    0.1050 os        1 WUN     -0.418600
      9 C5         -2.1990   -1.2460    0.0980 c3        1 WUN      0.100100
     10 O5         -3.5820   -1.2900    0.4570 os        1 WUN     -0.454600
     11 C6         -1.5560   -2.4610    0.7730 c3        1 WUN      0.140400
     12 O6         -2.0770   -3.6670    0.2590 oh        1 WUN     -0.594800
     13 CAN         4.4060    1.2080    0.3380 ca        1 WUN     -0.125000
     14 CAO         3.7280   -0.9700   -0.4940 ca        1 WUN     -0.125000
     15 CAP         3.0830    1.4910    0.6630 ca        1 WUN     -0.110500
     16 CAQ         2.4060   -0.6800   -0.1600 ca        1 WUN     -0.110500
     17 CAU         0.6750    0.8850    0.8120 c3        1 WUN      0.173700
     18 CBD         4.7260   -0.0240   -0.2410 ca        1 WUN      0.016400
     19 CBE         2.0760    0.5480    0.4200 ca        1 WUN     -0.086300
     20 H1         -5.3840   -0.3990    0.3910 h2        1 WUN      0.068700
     21 H2         -3.9390    1.2910    1.4150 h1        1 WUN      0.082700
     22 HN2        -4.4920    2.1830   -1.3330 hn        1 WUN      0.361800
     23 HN2A       -5.5100    2.2370   -0.0570 hn        1 WUN      0.361800
     24 H3         -2.1290    1.3010   -1.1250 h1        1 WUN      0.066700
     25 HO3        -2.2260    3.1880    0.2620 ho        1 WUN      0.424000
     26 H4         -1.5790    0.1240    1.7070 h1        1 WUN      0.064700
     27 H5         -2.1070   -1.3230   -1.0210 h1        1 WUN      0.080700
     28 H6         -0.4600   -2.4770    0.5270 h1        1 WUN      0.061200
     29 H6A        -1.7070   -2.4090    1.8830 h1        1 WUN      0.061200
     30 HO6        -3.0250   -3.6650    0.4420 ho        1 WUN      0.408000
     31 HAN         5.1940    1.9520    0.5330 ha        1 WUN      0.147000
     32 HAO         3.9810   -1.9380   -0.9520 ha        1 WUN      0.147000
     33 HAP         2.8270    2.4620    1.1130 ha        1 WUN      0.145000
     34 HAQ         1.6130   -1.4180   -0.3600 ha        1 WUN      0.145000
     35 HAU         0.4280    1.9500    0.5480 h1        1 WUN      0.056200
     36 HAUA        0.5450    0.7430    1.9210 h1        1 WUN      0.056200
     37 H7         -4.6280   -1.2930   -1.6500 ho        1 WUN      0.425000
     38 CLA         6.3410   -0.3730   -0.6420 cl        1 WUN     -0.098400
@<TRIPOS>BOND
     1    1    2 1   
     2    1    3 1   
     3    1   10 1   
     4    1   20 1   
     5    2   37 1   
     6    3    4 1   
     7    3    5 1   
     8    3   21 1   
     9    4   22 1   
    10    4   23 1   
    11    5    6 1   
    12    5    7 1   
    13    5   24 1   
    14    6   25 1   
    15    7    8 1   
    16    7    9 1   
    17    7   26 1   
    18    8   17 1   
    19    9   10 1   
    20    9   11 1   
    21    9   27 1   
    22   11   12 1   
    23   11   28 1   
    24   11   29 1   
    25   12   30 1   
    26   13   15 ar  
    27   13   18 ar  
    28   13   31 1   
    29   14   16 ar  
    30   14   18 ar  
    31   14   32 1   
    32   15   19 ar  
    33   15   33 1   
    34   16   19 ar  
    35   16   34 1   
    36   17   19 1   
    37   17   35 1   
    38   17   36 1   
    39   18   38 1   
@<TRIPOS>SUBSTRUCTURE
     1 WUN         1 TEMP              0 ****  ****    0 ROOT
