@<TRIPOS>MOLECULE
WUN
   38    34     1     0     0
SMALL
bcc


@<TRIPOS>ATOM
      1 C1         -1.1090   -2.2400   -1.3970 c2        1 WUN      0.260000
      2 O1          0.0340   -2.8260   -0.9500 oh        1 WUN     -0.343000
      3 C2          1.7050    0.7960    0.1620 c2        1 WUN     -0.019000
      4 N2          1.5160   -0.1780   -0.8060 n3        1 WUN     -0.346000
      5 C3          1.3580    0.6850    1.4620 c2        1 WUN     -0.297000
      6 O3          3.2580   -1.0360    3.2620 oh        1 WUN     -0.407000
      7 C4          1.4470    1.8440    2.4000 c3        1 WUN      0.136000
      8 O4          2.2040    1.3740    3.5300 os        1 WUN     -0.333000
      9 C5          0.0890    2.2810    2.8410 c2        1 WUN     -0.330000
     10 O5         -2.0920   -2.9650   -1.5440 o         1 WUN     -0.353000
     11 C6         -0.5070    3.3830    2.3590 c2        1 WUN      0.013000
     12 O6         -1.7600    3.8080    2.7060 oh        1 WUN     -0.256000
     13 CAN         3.9190    0.2320    7.2050 c1        1 WUN     -0.121000
     14 CAO         4.1540    4.6350    7.3470 c1        1 WUN     -0.237000
     15 CAP         3.3730    0.5210    5.9150 c3        1 WUN     -0.102000
     16 CAQ         4.4300    5.6880    7.8440 c1        1 WUN     -0.237000
     17 CAU         2.5910    2.4210    4.4240 c3        1 WUN     -0.088000
     18 CBD         4.3760   -0.0210    8.2810 c1        1 WUN     -0.197000
     19 CBE         3.2250    1.9400    5.6380 c1        1 WUN     -0.047000
     20 H1          0.9760   -0.2470    1.9010 ha        1 WUN      0.139000
     21 H2         -0.9850   -1.1570   -1.5700 h5        1 WUN      0.194000
     22 HN2         2.1050    1.7510   -0.2360 h4        1 WUN      0.132000
     23 HN2A        2.1830   -0.1580   -1.5460 hn        1 WUN      0.195000
     24 H3          1.3370   -1.1000   -0.4660 hn        1 WUN      0.195000
     25 HO3         2.3830   -0.8580    3.6220 ho        1 WUN      0.202000
     26 H4          3.4000   -0.2960    2.6610 ho        1 WUN      0.202000
     27 H5          2.0060    2.7050    1.9290 h1        1 WUN      0.073000
     28 H6         -0.4050    1.6210    3.5680 ha        1 WUN      0.139000
     29 H6A        -0.0710    4.0850    1.6290 h4        1 WUN      0.165000
     30 HO6        -2.1480    3.1800    3.3340 ho        1 WUN      0.217000
     31 HAN         4.0360    0.0620    5.1060 hc        1 WUN      0.155000
     32 HAO         3.9070    3.6910    6.9040 ha        1 WUN      0.232000
     33 HAP         2.3760   -0.0080    5.7990 hc        1 WUN      0.155000
     34 HAQ         4.6750    6.6190    8.2860 ha        1 WUN      0.232000
     35 HAU         1.6850    3.0250    4.7280 h1        1 WUN      0.134000
     36 HAUA        3.3140    3.1130    3.9010 h1        1 WUN      0.134000
     37 H7         -0.1010   -3.7760   -0.8020 ho        1 WUN      0.245000
     38 CLA         4.9840   -0.3640    9.7160 cl        1 WUN      0.163000
@<TRIPOS>BOND
     1    1    2 1   
     2    1   10 1   
     3    1   21 1   
     4    2   37 1   
     5    3    4 1   
     6    3    5 1   
     7    3   22 1   
     8    4   23 1   
     9    4   24 1   
    10    5    7 1   
    11    5   20 1   
    12    6   25 1   
    13    6   26 1   
    14    7    8 1   
    15    7    9 1   
    16    7   27 1   
    17    8   17 1   
    18    9   11 1   
    19    9   28 1   
    20   11   12 1   
    21   11   29 1   
    22   12   30 1   
    23   13   15 1   
    24   13   18 1   
    25   14   16 1   
    26   14   32 1   
    27   15   19 1   
    28   15   31 1   
    29   15   33 1   
    30   16   34 1   
    31   17   19 1   
    32   17   35 1   
    33   17   36 1   
    34   18   38 1   
@<TRIPOS>SUBSTRUCTURE
     1 WUN         1 TEMP              0 ****  ****    0 ROOT
