@<TRIPOS>MOLECULE
WV7
   27    28     1     0     0
SMALL
bcc


@<TRIPOS>ATOM
      1 OAA         0.0850    0.3900   -0.5200 o         1 WV7     -0.259000
      2 FAC         1.4320   -0.4390   -2.6710 f         1 WV7     -0.142333
      3 FAD         2.7020   -1.5870   -1.3260 f         1 WV7     -0.142333
      4 FAE         3.2090    0.4790   -1.8120 f         1 WV7     -0.142333
      5 CAF         5.7010   -0.2860    3.9290 c3        1 WV7     -0.192000
      6 CAG         5.1190   -0.1900    2.5940 c1        1 WV7     -0.062000
      7 CAH         3.4900    0.3590    4.9110 c2        1 WV7     -0.222000
      8 CAI         1.5020    0.4030    3.4180 c3        1 WV7     -0.165000
      9 CAJ         1.0040    0.7850    2.0270 c3        1 WV7     -0.039000
     10 CAK         3.2000    0.0540    1.2100 c2        1 WV7      0.125000
     11 CAL         1.2780    0.1530   -0.3090 c2        1 WV7      0.271000
     12 CAM         4.7480   -0.0980    5.0630 c2        1 WV7      0.003000
     13 CAN         3.7700    0.2130    2.4510 c2        1 WV7     -0.235000
     14 CAO         2.9690    0.7780    3.5840 c3        1 WV7     -0.037000
     15 NAP         1.8670    0.3140    0.9420 n         1 WV7     -0.260000
     16 CAQ         2.1580   -0.3460   -1.5180 c3        1 WV7      0.406000
     17 HOAB        6.0890   -0.7160    6.2770 ho        1 WV7      0.212000
     18 HAF         6.5240    0.4850    3.9870 hc        1 WV7      0.140000
     19 HAG         6.1980   -1.2960    4.0080 hc        1 WV7      0.140000
     20 HAH         3.0490    1.9070    3.5320 hc        1 WV7      0.101000
     21 HAI         2.8110    0.4660    5.7680 ha        1 WV7      0.143000
     22 HAIA        1.3700   -0.6960    3.5910 hc        1 WV7      0.104000
     23 HAJ         0.8760    0.9470    4.1710 hc        1 WV7      0.104000
     24 HAJA       -0.0290    0.3590    1.8710 h1        1 WV7      0.111500
     25 HAK         0.9360    1.9080    1.9440 h1        1 WV7      0.111500
     26 HAKA        3.8200   -0.3280    0.3690 h4        1 WV7      0.184000
     27 OAB         5.1670   -0.4310    6.3370 oh        1 WV7     -0.258000
@<TRIPOS>BOND
     1    1   11 1   
     2    2   16 1   
     3    3   16 1   
     4    4   16 1   
     5    5    6 1   
     6    5   12 1   
     7    5   18 1   
     8    5   19 1   
     9    6   13 1   
    10    7   12 1   
    11    7   14 1   
    12    7   21 1   
    13    8    9 1   
    14    8   14 1   
    15    8   22 1   
    16    8   23 1   
    17    9   15 1   
    18    9   24 1   
    19    9   25 1   
    20   10   13 1   
    21   10   15 1   
    22   10   26 1   
    23   11   15 1   
    24   11   16 1   
    25   12   27 1   
    26   13   14 1   
    27   14   20 1   
    28   17   27 1   
@<TRIPOS>SUBSTRUCTURE
     1 WV7         1 TEMP              0 ****  ****    0 ROOT
