@<TRIPOS>MOLECULE
WV7
   27    27     1     0     0
SMALL
bcc


@<TRIPOS>ATOM
      1 OAA        -0.5610   -0.2860    0.3070 o         1 WV7     -0.315000
      2 FAC         0.1350   -1.7530   -1.8760 f         1 WV7     -0.155667
      3 FAD         2.2020   -1.6900   -1.1990 f         1 WV7     -0.155667
      4 FAE         1.4000   -0.0550   -2.3870 f         1 WV7     -0.155667
      5 CAF         5.7450    0.1900    4.6700 c3        1 WV7     -0.142000
      6 CAG         5.4370    0.9490    3.4400 c2        1 WV7     -0.077000
      7 CAH         3.3290   -0.4700    4.6620 c2        1 WV7     -0.177000
      8 CAI         1.7930    0.4260    3.0120 c2        1 WV7     -0.173000
      9 CAJ         1.3580    1.2240    1.8250 c3        1 WV7      0.015000
     10 CAK         4.0900    1.4590    1.5140 c1        1 WV7     -0.073000
     11 CAL         0.6200   -0.1770   -0.0480 c2        1 WV7      0.273000
     12 CAM         4.5590   -0.5260    5.2150 c2        1 WV7      0.026000
     13 CAN         4.2160    0.9600    2.8350 c2        1 WV7     -0.139000
     14 CAO         3.0580    0.3120    3.4650 c2        1 WV7      0.002000
     15 NAP         1.5790    0.5860    0.5510 ns        1 WV7     -0.336000
     16 CAQ         1.0840   -0.9140   -1.3670 c3        1 WV7      0.387000
     17 HOAB        5.6600   -1.2500    6.6030 ho        1 WV7      0.215000
     18 HAF         6.1400    0.9070    5.4470 hc        1 WV7      0.119500
     19 HAG         6.5670   -0.5520    4.4580 hc        1 WV7      0.119500
     20 HAH         6.2940    1.4730    2.9840 ha        1 WV7      0.134000
     21 HAI         2.4890   -1.0230    5.1120 ha        1 WV7      0.156000
     22 HAIA        0.9750   -0.0910    3.5430 ha        1 WV7      0.141000
     23 HAJ         0.2570    1.4570    1.9240 h1        1 WV7      0.106000
     24 HAJA        1.9220    2.2070    1.8010 h1        1 WV7      0.106000
     25 HAK         2.5430    0.4920    0.2770 hn        1 WV7      0.275000
     26 HAKA        4.6430    2.3640    1.2320 ha        1 WV7      0.071000
     27 OAB         4.7250   -1.2850    6.3550 oh        1 WV7     -0.247000
@<TRIPOS>BOND
     1    1   11 1   
     2    2   16 1   
     3    3   16 1   
     4    4   16 1   
     5    5    6 1   
     6    5   12 1   
     7    5   18 1   
     8    5   19 1   
     9    6   13 1   
    10    6   20 1   
    11    7   12 1   
    12    7   14 1   
    13    7   21 1   
    14    8    9 1   
    15    8   14 1   
    16    8   22 1   
    17    9   15 1   
    18    9   23 1   
    19    9   24 1   
    20   10   13 1   
    21   10   26 1   
    22   11   15 1   
    23   11   16 1   
    24   12   27 1   
    25   13   14 1   
    26   15   25 1   
    27   17   27 1   
@<TRIPOS>SUBSTRUCTURE
     1 WV7         1 TEMP              0 ****  ****    0 ROOT
