@<TRIPOS>MOLECULE
WV7
   27    28     1     0     0
SMALL
bcc


@<TRIPOS>ATOM
      1 OAA        -2.6520   -1.7600   -0.5970 o         1 WV7     -0.542100
      2 FAC        -4.1180    0.4450   -0.8540 f         1 WV7     -0.223300
      3 FAD        -2.2350    1.4850   -1.1690 f         1 WV7     -0.223300
      4 FAE        -3.0770    1.3300    0.8350 f         1 WV7     -0.223300
      5 CAF         3.3250    1.5740    0.2590 ca        1 WV7     -0.153000
      6 CAG         1.9860    1.5500    0.6240 ca        1 WV7     -0.084000
      7 CAH         3.1920   -0.8010   -0.2910 ca        1 WV7     -0.212000
      8 CAI         1.0630   -2.0700   -0.0380 c3        1 WV7     -0.064100
      9 CAJ        -0.2380   -2.0270    0.7650 c3        1 WV7      0.081000
     10 CAK        -0.1950    0.4020    0.9830 c3        1 WV7      0.135300
     11 CAL        -2.1140   -0.7490   -0.1220 c         1 WV7      0.631100
     12 CAM         3.9250    0.3880   -0.2010 ca        1 WV7      0.135100
     13 CAN         1.2400    0.3680    0.5410 ca        1 WV7     -0.144300
     14 CAO         1.8440   -0.8100    0.0820 ca        1 WV7     -0.027300
     15 NAP        -0.9630   -0.7750    0.6300 n         1 WV7     -0.434800
     16 CAQ        -2.8730    0.6200   -0.3190 c3        1 WV7      0.562900
     17 HOAB        5.5370   -0.4040   -0.8550 ho        1 WV7      0.421000
     18 HAF         3.9200    2.4960    0.3190 ha        1 WV7      0.156000
     19 HAG         1.5040    2.4740    0.9830 ha        1 WV7      0.139000
     20 HAH         3.6680   -1.7230   -0.6530 ha        1 WV7      0.138000
     21 HAI         1.6700   -2.9410    0.3280 hc        1 WV7      0.067700
     22 HAIA        0.8350   -2.2520   -1.1230 hc        1 WV7      0.067700
     23 HAJ        -0.8990   -2.8820    0.4460 h1        1 WV7      0.075200
     24 HAJA       -0.0000   -2.1490    1.8610 h1        1 WV7      0.075200
     25 HAK        -0.2150    0.4830    2.1120 h1        1 WV7      0.070200
     26 HAKA       -0.6810    1.3300    0.5650 h1        1 WV7      0.070200
     27 OAB         5.2530    0.4690   -0.5470 oh        1 WV7     -0.494100
@<TRIPOS>BOND
     1    1   11 2   
     2    2   16 1   
     3    3   16 1   
     4    4   16 1   
     5    5    6 ar  
     6    5   12 ar  
     7    5   18 1   
     8    6   13 ar  
     9    6   19 1   
    10    7   12 ar  
    11    7   14 ar  
    12    7   20 1   
    13    8    9 1   
    14    8   14 1   
    15    8   21 1   
    16    8   22 1   
    17    9   15 1   
    18    9   23 1   
    19    9   24 1   
    20   10   13 1   
    21   10   15 1   
    22   10   25 1   
    23   10   26 1   
    24   11   15 1   
    25   11   16 1   
    26   12   27 1   
    27   13   14 ar  
    28   17   27 1   
@<TRIPOS>SUBSTRUCTURE
     1 WV7         1 TEMP              0 ****  ****    0 ROOT
