@<TRIPOS>MOLECULE
WV7
   27    25     1     0     0
SMALL
bcc


@<TRIPOS>ATOM
      1 OAA         0.1050   -0.8810   -1.3790 o         1 WV7     -0.196000
      2 FAC         2.5790   -1.7800   -2.0020 f         1 WV7     -0.153667
      3 FAD         2.9890   -1.6960    0.1360 f         1 WV7     -0.153667
      4 FAE         3.3740    0.0420   -1.1140 f         1 WV7     -0.153667
      5 CAF         5.8660   -0.1670    3.8590 c3        1 WV7     -0.183000
      6 CAG         5.2550    0.9620    3.2060 c1        1 WV7     -0.018000
      7 CAH         3.6500   -0.9370    4.7250 c1        1 WV7      0.145000
      8 CAI         1.5910    1.4840    4.1640 c3        1 WV7     -0.227000
      9 CAJ        -0.2880    0.9920    0.7130 c1        1 WV7     -0.075000
     10 CAK         3.2950    1.2060    1.7930 c1        1 WV7     -0.083000
     11 CAL         0.9960   -0.4650   -0.6490 c2        1 WV7      0.285000
     12 CAM         4.9550   -1.1580    4.5400 c2        1 WV7     -0.282000
     13 CAN         3.8410    1.1090    3.0930 c2        1 WV7     -0.262000
     14 CAO         3.0340    1.2170    4.2130 c2        1 WV7      0.069000
     15 NAP         0.8780    0.4340    0.4300 n         1 WV7     -0.276000
     16 CAQ         2.4750   -0.9720   -0.9070 c3        1 WV7      0.376000
     17 HOAB        6.3540   -2.1640    5.3470 ho        1 WV7      0.211000
     18 HAF         6.6360    0.2140    4.5910 hc        1 WV7      0.164000
     19 HAG         6.4430   -0.7250    3.0560 hc        1 WV7      0.164000
     20 HAH         3.4980    1.3110    5.2170 ha        1 WV7      0.139000
     21 HAI         1.0720    0.8340    4.9150 hc        1 WV7      0.117000
     22 HAIA        1.1630    1.2810    3.1500 hc        1 WV7      0.117000
     23 HAJ         1.3850    2.5540    4.4300 hc        1 WV7      0.117000
     24 HAJA       -0.2350    1.6870    1.5850 ha        1 WV7      0.029000
     25 HAK         1.7600    0.6190    0.9500 hn        1 WV7      0.261000
     26 HAKA        3.9570    1.5560    0.9860 ha        1 WV7      0.095000
     27 OAB         5.5360   -2.3740    4.8710 oh        1 WV7     -0.229000
@<TRIPOS>BOND
     1    1   11 1   
     2    2   16 1   
     3    3   16 1   
     4    4   16 1   
     5    5    6 1   
     6    5   12 1   
     7    5   18 1   
     8    5   19 1   
     9    6   13 1   
    10    7   12 1   
    11    8   14 1   
    12    8   21 1   
    13    8   22 1   
    14    8   23 1   
    15    9   15 1   
    16    9   24 1   
    17   10   13 1   
    18   10   26 1   
    19   11   15 1   
    20   11   16 1   
    21   12   27 1   
    22   13   14 1   
    23   14   20 1   
    24   15   25 1   
    25   17   27 1   
@<TRIPOS>SUBSTRUCTURE
     1 WV7         1 TEMP              0 ****  ****    0 ROOT
