@<TRIPOS>MOLECULE
WVH
   74    79     1     0     0
SMALL
bcc


@<TRIPOS>ATOM
      1 O1          0.3170    1.0010    1.1850 o         1 WVH     -0.608100
      2 C5          1.1970    0.4460    0.4960 c         1 WVH      0.658100
      3 N1          1.0870    0.1160   -0.8270 ns        1 WVH     -0.431100
      4 C4         -0.0350    0.3350   -1.6570 ca        1 WVH      0.070600
      5 C3         -0.0200   -0.2120   -2.9630 ca        1 WVH     -0.272800
      6 C2         -1.1300    0.0100   -3.7920 ca        1 WVH      0.424700
      7 N          -2.2170    0.7150   -3.4210 nb        1 WVH     -0.652000
      8 C1         -2.2180    1.2290   -2.1790 ca        1 WVH      0.424700
      9 C          -1.1650    1.0750   -1.2580 ca        1 WVH     -0.272800
     10 C6          2.5650    0.1150    1.1580 c3        1 WVH      0.037500
     11 C24         3.5690    1.1920    0.7060 c3        1 WVH     -0.006200
     12 C25         4.7140    1.3650    1.6030 cc        1 WVH     -0.252400
     13 C28         5.5880    0.3490    2.1570 ca        1 WVH     -0.112800
     14 C29         5.6230   -1.0480    2.1200 ca        1 WVH     -0.125000
     15 C30         6.6450   -1.7140    2.7760 ca        1 WVH     -0.122000
     16 C31         7.6450   -1.0140    3.4800 ca        1 WVH     -0.103000
     17 C32         7.6500    0.3690    3.5450 ca        1 WVH     -0.122000
     18 C27         6.6210    1.0570    2.8800 ca        1 WVH     -0.049200
     19 N5          6.3690    2.4300    2.7690 na        1 WVH     -0.167400
     20 C26         5.2370    2.6090    1.9900 cd        1 WVH     -0.050100
     21 N2          2.4160    0.0430    2.6450 ny        1 WVH     -0.670800
     22 C7          1.9340   -1.3180    3.1430 c         1 WVH      0.598700
     23 O           2.4980   -2.2820    2.6400 o         1 WVH     -0.445100
     24 C8          0.9170   -1.2770    4.1720 ca        1 WVH     -0.335600
     25 C23         0.9680   -2.2200    5.2360 ca        1 WVH      0.269900
     26 F2          2.0040   -3.0810    5.3180 f         1 WVH     -0.109900
     27 C22        -0.0210   -2.2530    6.2180 ca        1 WVH     -0.278000
     28 C11        -1.1370   -1.3670    6.1640 ca        1 WVH      0.288600
     29 C10        -1.1630   -0.4160    5.0900 ca        1 WVH     -0.227000
     30 C9         -0.1750   -0.3870    4.1350 ca        1 WVH     -0.017000
     31 N3         -2.1530   -1.4420    7.0840 nh        1 WVH     -0.631000
     32 C21        -3.2020   -0.4410    7.0660 c3        1 WVH      0.166300
     33 C20        -4.4050   -0.7300    7.9880 c3        1 WVH      0.175300
     34 N4         -4.0790   -1.2950    9.2790 nh        1 WVH     -0.614000
     35 C13        -3.2430   -2.4630    9.1400 c3        1 WVH      0.175300
     36 C12        -2.0050   -2.3240    8.2250 c3        1 WVH      0.166300
     37 C14        -3.7830   -0.3750   10.3220 ca        1 WVH      0.057600
     38 C19        -4.8090    0.4970   10.8000 ca        1 WVH      0.146900
     39 F1         -6.0290    0.5250   10.2130 f         1 WVH     -0.125900
     40 C18        -4.5780    1.3570   11.8840 ca        1 WVH     -0.188000
     41 C17        -3.3270    1.3570   12.5190 ca        1 WVH      0.147900
     42 F          -3.1050    2.1810   13.5680 f         1 WVH     -0.123900
     43 C16        -2.3070    0.5040   12.0640 ca        1 WVH     -0.161000
     44 C15        -2.5390   -0.3350   10.9830 ca        1 WVH     -0.129000
     45 H1          1.8600   -0.3400   -1.2630 hn        1 WVH      0.335500
     46 H6          2.9360   -0.9030    0.8250 hx        1 WVH      0.131700
     47 H3          0.8290   -0.7990   -3.3380 ha        1 WVH      0.161500
     48 H          -1.2460    1.5290   -0.2600 ha        1 WVH      0.161500
     49 H2         -1.1510   -0.4030   -4.8190 h4        1 WVH      0.039100
     50 HA         -3.1190    1.8050   -1.8970 h4        1 WVH      0.039100
     51 H241        3.9280    0.8830   -0.3160 hc        1 WVH      0.081700
     52 H242        3.0300    2.1740    0.5920 hc        1 WVH      0.081700
     53 HB          1.7620    0.7760    2.9520 hn        1 WVH      0.475800
     54 H26         4.8690    3.6110    1.7510 h4        1 WVH      0.182000
     55 H29         4.8570   -1.6140    1.5690 ha        1 WVH      0.130000
     56 H30         6.6870   -2.8140    2.7470 ha        1 WVH      0.149000
     57 H31         8.4420   -1.5840    3.9840 ha        1 WVH      0.152000
     58 H32         8.4340    0.9130    4.0900 ha        1 WVH      0.151000
     59 H5          6.9580    3.1470    3.1100 hn        1 WVH      0.318700
     60 H9         -0.2770    0.3320    3.3000 ha        1 WVH      0.162000
     61 H22         0.0900   -2.9920    7.0270 ha        1 WVH      0.173000
     62 H10        -1.9880    0.3090    5.0070 ha        1 WVH      0.161000
     63 H211       -3.6140   -0.3680    6.0170 h1        1 WVH      0.059200
     64 H212       -2.7540    0.5580    7.3430 h1        1 WVH      0.059200
     65 H121       -1.1270   -1.9700    8.8410 h1        1 WVH      0.059200
     66 H122       -1.7690   -3.3620    7.8470 h1        1 WVH      0.059200
     67 H201       -4.9710    0.2350    8.1190 h1        1 WVH      0.081950
     68 H202       -5.0850   -1.4700    7.4760 h1        1 WVH      0.081950
     69 H131       -2.8860   -2.8110   10.1490 h1        1 WVH      0.081950
     70 H132       -3.9070   -3.2690    8.7100 h1        1 WVH      0.081950
     71 H15        -1.7170   -0.9880   10.6510 ha        1 WVH      0.135000
     72 H18        -5.3830    2.0180   12.2390 ha        1 WVH      0.175000
     73 H16        -1.3300    0.5080   12.5690 ha        1 WVH      0.158000
     74 H221        3.3440    0.2180    3.0650 hn        1 WVH      0.475800
@<TRIPOS>BOND
     1    1    2 2   
     2    2    3 1   
     3    2   10 1   
     4    3    4 1   
     5    3   45 1   
     6    4    5 ar  
     7    4    9 ar  
     8    5    6 ar  
     9    5   47 1   
    10    6    7 ar  
    11    6   49 1   
    12    7    8 ar  
    13    8    9 ar  
    14    8   50 1   
    15    9   48 1   
    16   10   11 1   
    17   10   21 1   
    18   10   46 1   
    19   11   12 1   
    20   11   51 1   
    21   11   52 1   
    22   12   13 1   
    23   12   20 2   
    24   13   14 ar  
    25   13   18 ar  
    26   14   15 ar  
    27   14   55 1   
    28   15   16 ar  
    29   15   56 1   
    30   16   17 ar  
    31   16   57 1   
    32   17   18 ar  
    33   17   58 1   
    34   18   19 1   
    35   19   20 1   
    36   19   59 1   
    37   20   54 1   
    38   21   22 1   
    39   21   53 1   
    40   21   74 1   
    41   22   23 2   
    42   22   24 1   
    43   24   25 ar  
    44   24   30 ar  
    45   25   26 1   
    46   25   27 ar  
    47   27   28 ar  
    48   27   61 1   
    49   28   29 ar  
    50   28   31 1   
    51   29   30 ar  
    52   29   62 1   
    53   30   60 1   
    54   31   32 1   
    55   31   36 1   
    56   32   33 1   
    57   32   63 1   
    58   32   64 1   
    59   33   34 1   
    60   33   67 1   
    61   33   68 1   
    62   34   35 1   
    63   34   37 1   
    64   35   36 1   
    65   35   69 1   
    66   35   70 1   
    67   36   65 1   
    68   36   66 1   
    69   37   38 ar  
    70   37   44 ar  
    71   38   39 1   
    72   38   40 ar  
    73   40   41 ar  
    74   40   72 1   
    75   41   42 1   
    76   41   43 ar  
    77   43   44 ar  
    78   43   73 1   
    79   44   71 1   
@<TRIPOS>SUBSTRUCTURE
     1 WVH         1 TEMP              0 ****  ****    0 ROOT
