@<TRIPOS>MOLECULE
WVH
   75    80     1     0     0
SMALL
bcc


@<TRIPOS>ATOM
      1 O1         -0.6700    1.0970   -0.8540 o         1 WVH     -0.390100
      2 C5          0.1920    0.2610   -0.6270 c         1 WVH      0.539100
      3 N1          0.1250   -1.0180   -1.4120 n4        1 WVH     -0.532200
      4 C4          1.2850   -1.2210   -2.2870 ca        1 WVH     -0.025400
      5 C3          2.2950   -2.1270   -1.9150 ca        1 WVH     -0.234300
      6 C2          3.3620   -2.3150   -2.8170 ca        1 WVH      0.446200
      7 N           3.4610   -1.6770   -3.9980 nb        1 WVH     -0.587000
      8 C1          2.4810   -0.8210   -4.3370 ca        1 WVH      0.446200
      9 C           1.3620   -0.5500   -3.5190 ca        1 WVH     -0.234300
     10 C6          1.3190    0.4210    0.3960 c3        1 WVH      0.082500
     11 C24         2.2260    1.5900   -0.0660 c3        1 WVH      0.005800
     12 C25         2.9670    2.1970    1.0390 cc        1 WVH     -0.294400
     13 C28         3.7770    1.5350    2.0430 ca        1 WVH     -0.115800
     14 C29         4.0620    0.2030    2.3580 ca        1 WVH     -0.154000
     15 C30         4.9190   -0.0720    3.4120 ca        1 WVH     -0.106000
     16 C31         5.5060    0.9620    4.1690 ca        1 WVH     -0.101000
     17 C32         5.2580    2.2950    3.8880 ca        1 WVH     -0.103000
     18 C27         4.3930    2.5860    2.8200 ca        1 WVH     -0.049200
     19 N5          3.9670    3.8180    2.3020 na        1 WVH     -0.153400
     20 C26         3.1330    3.5810    1.2270 cd        1 WVH     -0.023100
     21 N2          0.7520    0.6510    1.7620 n4        1 WVH     -0.676800
     22 C7         -0.1440   -0.4950    2.2480 c         1 WVH      0.601700
     23 O          -0.3840   -1.3160    1.3500 o         1 WVH     -0.598100
     24 C8         -0.5770   -0.4640    3.5940 ca        1 WVH     -0.345600
     25 C23        -1.4270   -1.5310    4.0600 ca        1 WVH      0.299900
     26 F2         -1.7400   -2.5310    3.2140 f         1 WVH     -0.095900
     27 C22        -1.9240   -1.5540    5.3510 ca        1 WVH     -0.289000
     28 C11        -1.6300   -0.5020    6.2820 ca        1 WVH      0.304600
     29 C10        -0.7240    0.5300    5.8180 ca        1 WVH     -0.211000
     30 C9         -0.2410    0.5400    4.5440 ca        1 WVH     -0.011000
     31 N3         -2.1760   -0.4730    7.5220 nh        1 WVH     -0.568000
     32 C21        -1.7890    0.5670    8.4640 c3        1 WVH      0.146300
     33 C20        -2.7010    0.7120    9.7020 c3        1 WVH      0.179300
     34 N4         -3.1740   -0.5260   10.2730 nh        1 WVH     -0.615000
     35 C13        -3.7980   -1.3590    9.2780 c3        1 WVH      0.179300
     36 C12        -3.0050   -1.5840    7.9690 c3        1 WVH      0.146300
     37 C14        -2.3500   -1.1410   11.2570 ca        1 WVH      0.041600
     38 C19        -2.1380   -0.4790   12.5050 ca        1 WVH      0.153900
     39 F1         -2.6300    0.7620   12.7260 f         1 WVH     -0.122900
     40 C18        -1.4040   -1.0940   13.5300 ca        1 WVH     -0.186000
     41 C17        -0.8760   -2.3790   13.3350 ca        1 WVH      0.160900
     42 F          -0.1730   -2.9760   14.3220 f         1 WVH     -0.114900
     43 C16        -1.0760   -3.0450   12.1120 ca        1 WVH     -0.161000
     44 C15        -1.7950   -2.4260   11.0990 ca        1 WVH     -0.128000
     45 H1          0.0510   -1.8050   -0.7410 hn        1 WVH      0.493300
     46 H6          1.9390   -0.5270    0.4580 hx        1 WVH      0.134700
     47 H3          2.2670   -2.7000   -0.9770 ha        1 WVH      0.174500
     48 H           0.5900    0.1530   -3.8670 ha        1 WVH      0.174500
     49 H2          4.1820   -3.0250   -2.5780 h4        1 WVH      0.076100
     50 HA          2.5870   -0.3220   -5.3230 h4        1 WVH      0.076100
     51 H241        2.9390    1.1590   -0.8240 hc        1 WVH      0.091200
     52 H242        1.6000    2.3700   -0.5810 hc        1 WVH      0.091200
     53 HB          1.5580    0.7600    2.4080 hn        1 WVH      0.483300
     54 H26         2.7050    4.4090    0.6500 h4        1 WVH      0.191000
     55 H29         3.6530   -0.6170    1.7520 ha        1 WVH      0.109000
     56 H30         5.1660   -1.1170    3.6610 ha        1 WVH      0.154000
     57 H31         6.1900    0.6980    4.9930 ha        1 WVH      0.165000
     58 H32         5.7320    3.0990    4.4710 ha        1 WVH      0.165000
     59 H5          4.3020    4.7040    2.5950 hn        1 WVH      0.331700
     60 H9          0.4380    1.3630    4.2620 ha        1 WVH      0.127000
     61 H22        -2.5520   -2.4120    5.6430 ha        1 WVH      0.186000
     62 H10        -0.4040    1.3260    6.5110 ha        1 WVH      0.170000
     63 H211       -1.8070    1.5650    7.9380 h1        1 WVH      0.072200
     64 H212       -0.7330    0.3540    8.8020 h1        1 WVH      0.072200
     65 H121       -3.7700   -1.8100    7.1700 h1        1 WVH      0.072200
     66 H122       -2.3350   -2.4850    8.0880 h1        1 WVH      0.072200
     67 H201       -2.1290    1.3030   10.4720 h1        1 WVH      0.089950
     68 H202       -3.6150    1.3070    9.4090 h1        1 WVH      0.089950
     69 H131       -4.0380   -2.3720    9.7070 h1        1 WVH      0.089950
     70 H132       -4.7740   -0.8540    9.0130 h1        1 WVH      0.089950
     71 H15        -1.9360   -2.9770   10.1550 ha        1 WVH      0.129000
     72 H18        -1.2570   -0.5710   14.4880 ha        1 WVH      0.182000
     73 H16        -0.6640   -4.0560   11.9700 ha        1 WVH      0.163000
     74 H12        -0.7310   -1.0040   -1.9940 hn        1 WVH      0.493300
     75 H221        0.2180    1.5270    1.7700 hn        1 WVH      0.483300
@<TRIPOS>BOND
     1    1    2 2   
     2    2    3 1   
     3    2   10 1   
     4    3    4 1   
     5    3   45 1   
     6    3   74 1   
     7    4    5 ar  
     8    4    9 ar  
     9    5    6 ar  
    10    5   47 1   
    11    6    7 ar  
    12    6   49 1   
    13    7    8 ar  
    14    8    9 ar  
    15    8   50 1   
    16    9   48 1   
    17   10   11 1   
    18   10   21 1   
    19   10   46 1   
    20   11   12 1   
    21   11   51 1   
    22   11   52 1   
    23   12   13 1   
    24   12   20 2   
    25   13   14 ar  
    26   13   18 ar  
    27   14   15 ar  
    28   14   55 1   
    29   15   16 ar  
    30   15   56 1   
    31   16   17 ar  
    32   16   57 1   
    33   17   18 ar  
    34   17   58 1   
    35   18   19 1   
    36   19   20 1   
    37   19   59 1   
    38   20   54 1   
    39   21   22 1   
    40   21   53 1   
    41   21   75 1   
    42   22   23 2   
    43   22   24 1   
    44   24   25 ar  
    45   24   30 ar  
    46   25   26 1   
    47   25   27 ar  
    48   27   28 ar  
    49   27   61 1   
    50   28   29 ar  
    51   28   31 1   
    52   29   30 ar  
    53   29   62 1   
    54   30   60 1   
    55   31   32 1   
    56   31   36 1   
    57   32   33 1   
    58   32   63 1   
    59   32   64 1   
    60   33   34 1   
    61   33   67 1   
    62   33   68 1   
    63   34   35 1   
    64   34   37 1   
    65   35   36 1   
    66   35   69 1   
    67   35   70 1   
    68   36   65 1   
    69   36   66 1   
    70   37   38 ar  
    71   37   44 ar  
    72   38   39 1   
    73   38   40 ar  
    74   40   41 ar  
    75   40   72 1   
    76   41   42 1   
    77   41   43 ar  
    78   43   44 ar  
    79   43   73 1   
    80   44   71 1   
@<TRIPOS>SUBSTRUCTURE
     1 WVH         1 TEMP              0 ****  ****    0 ROOT
