@<TRIPOS>MOLECULE
WVH
   74    79     1     0     0
SMALL
bcc


@<TRIPOS>ATOM
      1 O1          0.2930    1.0380    1.2000 o         1 WVH     -0.608100
      2 C5          1.1810    0.5050    0.5030 c         1 WVH      0.658100
      3 N1          1.0740    0.1910   -0.8240 n         1 WVH     -0.431100
      4 C4         -0.0520    0.4030   -1.6500 ca        1 WVH      0.070600
      5 C3         -0.0290   -0.1240   -2.9640 ca        1 WVH     -0.272800
      6 C2         -1.1430    0.0910   -3.7890 ca        1 WVH      0.424700
      7 N          -2.2410    0.7720   -3.4080 nb        1 WVH     -0.652000
      8 C1         -2.2490    1.2690   -2.1590 ca        1 WVH      0.424700
      9 C          -1.1930    1.1190   -1.2400 ca        1 WVH     -0.272800
     10 C6          2.5540    0.1870    1.1590 c3        1 WVH      0.037500
     11 C24         3.5410    1.2850    0.7200 c3        1 WVH     -0.006200
     12 C25         4.6850    1.4640    1.6180 cc        1 WVH     -0.252400
     13 C28         5.5750    0.4550    2.1580 ca        1 WVH     -0.112800
     14 C29         5.6320   -0.9420    2.1030 ca        1 WVH     -0.125000
     15 C30         6.6640   -1.6000    2.7500 ca        1 WVH     -0.122000
     16 C31         7.6530   -0.8940    3.4620 ca        1 WVH     -0.103000
     17 C32         7.6370    0.4880    3.5450 ca        1 WVH     -0.122000
     18 C27         6.5970    1.1680    2.8890 ca        1 WVH     -0.049200
     19 N5          6.3240    2.5390    2.7970 na        1 WVH     -0.167400
     20 C26         5.1890    2.7100    2.0200 cd        1 WVH     -0.050100
     21 N2          2.4080    0.0930    2.6450 n4        1 WVH     -0.670800
     22 C7          1.9480   -1.2810    3.1260 c         1 WVH      0.598700
     23 O           2.5260   -2.2290    2.6110 o         1 WVH     -0.445100
     24 C8          0.9320   -1.2680    4.1580 ca        1 WVH     -0.335600
     25 C23         0.9990   -2.2230    5.2100 ca        1 WVH      0.269900
     26 F2          2.0490   -3.0680    5.2800 f         1 WVH     -0.109900
     27 C22         0.0130   -2.2830    6.1930 ca        1 WVH     -0.278000
     28 C11        -1.1160   -1.4140    6.1510 ca        1 WVH      0.288600
     29 C10        -1.1590   -0.4510    5.0890 ca        1 WVH     -0.227000
     30 C9         -0.1730   -0.3950    4.1320 ca        1 WVH     -0.017000
     31 N3         -2.1300   -1.5160    7.0720 nh        1 WVH     -0.631000
     32 C21        -3.1940   -0.5310    7.0670 c3        1 WVH      0.166300
     33 C20        -4.3910   -0.8490    7.9880 c3        1 WVH      0.175300
     34 N4         -4.0540   -1.4240    9.2720 nh        1 WVH     -0.614000
     35 C13        -3.2000   -2.5770    9.1170 c3        1 WVH      0.175300
     36 C12        -1.9660   -2.4090    8.2020 c3        1 WVH      0.166300
     37 C14        -3.7690   -0.5120   10.3250 ca        1 WVH      0.057600
     38 C19        -4.8070    0.3400   10.8140 ca        1 WVH      0.146900
     39 F1         -6.0290    0.3550   10.2310 f         1 WVH     -0.125900
     40 C18        -4.5870    1.1900   11.9080 ca        1 WVH     -0.188000
     41 C17        -3.3350    1.2030   12.5400 ca        1 WVH      0.147900
     42 F          -3.1230    2.0180   13.5980 f         1 WVH     -0.123900
     43 C16        -2.3030    0.3710   12.0730 ca        1 WVH     -0.161000
     44 C15        -2.5250   -0.4600   10.9840 ca        1 WVH     -0.129000
     45 H1          1.8550   -0.2470   -1.2670 hn        1 WVH      0.335500
     46 H6          2.9400   -0.8210    0.8130 hx        1 WVH      0.131700
     47 H3          0.8290   -0.6920   -3.3480 ha        1 WVH      0.161500
     48 H          -1.2810    1.5580   -0.2360 ha        1 WVH      0.161500
     49 H2         -1.1580   -0.3080   -4.8210 h4        1 WVH      0.039100
     50 HA         -3.1600    1.8260   -1.8670 h4        1 WVH      0.039100
     51 H241        2.9880    2.2600    0.6190 hc        1 WVH      0.081700
     52 H242        3.9040    0.9940   -0.3070 hc        1 WVH      0.081700
     53 HB          1.7440    0.8130    2.9620 hn        1 WVH      0.475800
     54 H26         4.8050    3.7100    1.7950 h4        1 WVH      0.182000
     55 H29         4.8740   -1.5120    1.5450 ha        1 WVH      0.130000
     56 H30         6.7230   -2.7000    2.7070 ha        1 WVH      0.149000
     57 H31         8.4590   -1.4580    3.9580 ha        1 WVH      0.152000
     58 H32         8.4140    1.0360    4.0970 ha        1 WVH      0.151000
     59 H5          6.9020    3.2600    3.1460 hn        1 WVH      0.318700
     60 H9         -0.2880    0.3330    3.3070 ha        1 WVH      0.162000
     61 H22         0.1370   -3.0290    6.9930 ha        1 WVH      0.173000
     62 H10        -1.9950    0.2620    5.0150 ha        1 WVH      0.161000
     63 H211       -2.7620    0.4710    7.3540 h1        1 WVH      0.059200
     64 H212       -3.6090   -0.4520    6.0200 h1        1 WVH      0.059200
     65 H121       -1.0920   -2.0480    8.8200 h1        1 WVH      0.059200
     66 H122       -1.7160   -3.4380    7.8110 h1        1 WVH      0.059200
     67 H201       -5.0610   -1.5940    7.4680 h1        1 WVH      0.081950
     68 H202       -4.9710    0.1050    8.1310 h1        1 WVH      0.081950
     69 H131       -3.8530   -3.3880    8.6800 h1        1 WVH      0.081950
     70 H132       -2.8350   -2.9320   10.1220 h1        1 WVH      0.081950
     71 H15        -1.6930   -1.0970   10.6420 ha        1 WVH      0.135000
     72 H18        -5.4020    1.8360   12.2720 ha        1 WVH      0.175000
     73 H16        -1.3250    0.3840   12.5770 ha        1 WVH      0.158000
     74 H221        3.3350    0.2780    3.0670 hn        1 WVH      0.475800
@<TRIPOS>BOND
     1    1    2 2   
     2    2    3 1   
     3    2   10 1   
     4    3    4 1   
     5    3   45 1   
     6    4    5 ar  
     7    4    9 ar  
     8    5    6 ar  
     9    5   47 1   
    10    6    7 ar  
    11    6   49 1   
    12    7    8 ar  
    13    8    9 ar  
    14    8   50 1   
    15    9   48 1   
    16   10   11 1   
    17   10   21 1   
    18   10   46 1   
    19   11   12 1   
    20   11   51 1   
    21   11   52 1   
    22   12   13 1   
    23   12   20 2   
    24   13   14 ar  
    25   13   18 ar  
    26   14   15 ar  
    27   14   55 1   
    28   15   16 ar  
    29   15   56 1   
    30   16   17 ar  
    31   16   57 1   
    32   17   18 ar  
    33   17   58 1   
    34   18   19 1   
    35   19   20 1   
    36   19   59 1   
    37   20   54 1   
    38   21   22 1   
    39   21   53 1   
    40   21   74 1   
    41   22   23 2   
    42   22   24 1   
    43   24   25 ar  
    44   24   30 ar  
    45   25   26 1   
    46   25   27 ar  
    47   27   28 ar  
    48   27   61 1   
    49   28   29 ar  
    50   28   31 1   
    51   29   30 ar  
    52   29   62 1   
    53   30   60 1   
    54   31   32 1   
    55   31   36 1   
    56   32   33 1   
    57   32   63 1   
    58   32   64 1   
    59   33   34 1   
    60   33   67 1   
    61   33   68 1   
    62   34   35 1   
    63   34   37 1   
    64   35   36 1   
    65   35   69 1   
    66   35   70 1   
    67   36   65 1   
    68   36   66 1   
    69   37   38 ar  
    70   37   44 ar  
    71   38   39 1   
    72   38   40 ar  
    73   40   41 ar  
    74   40   72 1   
    75   41   42 1   
    76   41   43 ar  
    77   43   44 ar  
    78   43   73 1   
    79   44   71 1   
@<TRIPOS>SUBSTRUCTURE
     1 WVH         1 TEMP              0 ****  ****    0 ROOT
