@<TRIPOS>MOLECULE
WVI
   21    21     1     0     0
SMALL
bcc


@<TRIPOS>ATOM
      1 C1         -0.0090   -0.1130    0.2570 c3        1 WVI     -0.039900
      2 C4          3.6110    0.5660    1.1550 c3        1 WVI      0.297900
      3 C5          2.5480    0.1390    0.1110 ce        1 WVI     -0.129200
      4 C6          1.3420    0.1800    0.7540 cf        1 WVI      0.054400
      5 N7          1.5570    0.6160    2.1450 nf        1 WVI     -0.151600
      6 C9          3.4510   -1.4020   -1.5460 c2        1 WVI     -0.188000
      7 C10         2.8990   -0.2220   -1.2410 ce        1 WVI     -0.018400
      8 S11         2.5230    1.0570   -2.3070 ss        1 WVI      0.081300
      9 C12         2.9780    0.5760   -3.7480 c1        1 WVI     -0.218900
     10 N           2.7380    0.8040    2.3940 n2        1 WVI     -0.154200
     11 C13         3.2980    0.2810   -4.8720 c1        1 WVI     -0.075500
     12 H11C        0.0250   -0.3590   -0.8330 hc        1 WVI      0.061700
     13 H12C       -0.6840    0.7680    0.4080 hc        1 WVI      0.061700
     14 H13C       -0.4430   -0.9830    0.8130 hc        1 WVI      0.061700
     15 H31N        5.0610   -0.6370    0.4500 hn        1 WVI      0.369800
     16 H32N        5.3660   -0.0570    1.9580 hn        1 WVI      0.369800
     17 H           4.0000    1.5960    0.8750 h2        1 WVI      0.072700
     18 H9          3.6510   -2.1720   -0.7880 ha        1 WVI      0.133000
     19 H13         3.7250   -1.6680   -2.5770 ha        1 WVI      0.133000
     20 H12         3.5760    0.0290   -5.8650 ha        1 WVI      0.168500
     21 N3          4.6630   -0.4100    1.3400 n8        1 WVI     -0.889800
@<TRIPOS>BOND
     1    1    4 1   
     2    1   12 1   
     3    1   13 1   
     4    1   14 1   
     5    2    3 1   
     6    2   10 1   
     7    2   17 1   
     8    2   21 1   
     9    3    4 2   
    10    3    7 1   
    11    4    5 1   
    12    5   10 2   
    13    6    7 2   
    14    6   18 1   
    15    6   19 1   
    16    7    8 1   
    17    8    9 1   
    18    9   11 3   
    19   11   20 1   
    20   15   21 1   
    21   16   21 1   
@<TRIPOS>SUBSTRUCTURE
     1 WVI         1 TEMP              0 ****  ****    0 ROOT
