@<TRIPOS>MOLECULE
WVI
   21    21     1     0     0
SMALL
bcc


@<TRIPOS>ATOM
      1 C1         -0.0210   -0.0510    0.2440 c3        1 WVI     -0.039900
      2 C4          3.6120    0.5060    1.1770 c3        1 WVI      0.297900
      3 C5          2.5440    0.1260    0.1190 ce        1 WVI     -0.129200
      4 C6          1.3360    0.1940    0.7550 cf        1 WVI      0.054400
      5 N7          1.5530    0.6030    2.1540 nf        1 WVI     -0.151600
      6 C9          3.4120   -1.4180   -1.5540 c2        1 WVI     -0.188000
      7 C10         2.8940   -0.2260   -1.2350 ce        1 WVI     -0.018400
      8 S11         2.5640    1.0790   -2.2840 ss        1 WVI      0.081300
      9 C12         3.0160    0.6050   -3.7290 c1        1 WVI     -0.218900
     10 N           2.7370    0.7530    2.4130 n2        1 WVI     -0.154200
     11 C13         3.3360    0.3160   -4.8550 c1        1 WVI     -0.075500
     12 H11C        0.0140   -0.2840   -0.8490 hc        1 WVI      0.061700
     13 H12C       -0.6700    0.8470    0.4030 hc        1 WVI      0.061700
     14 H13C       -0.4840   -0.9150    0.7850 hc        1 WVI      0.061700
     15 H31N        5.0300   -0.7310    0.4640 hn        1 WVI      0.369800
     16 H32N        5.3410   -0.1810    1.9820 hn        1 WVI      0.369800
     17 H           4.0340    1.5270    0.9140 h2        1 WVI      0.072700
     18 H9          3.5830   -2.2040   -0.8050 ha        1 WVI      0.133000
     19 H13         3.6850   -1.6780   -2.5860 ha        1 WVI      0.133000
     20 H12         3.6140    0.0700   -5.8490 ha        1 WVI      0.168500
     21 N3          4.6320   -0.5030    1.3550 n3        1 WVI     -0.889800
@<TRIPOS>BOND
     1    1    4 1   
     2    1   12 1   
     3    1   13 1   
     4    1   14 1   
     5    2    3 1   
     6    2   10 1   
     7    2   17 1   
     8    2   21 1   
     9    3    4 2   
    10    3    7 1   
    11    4    5 1   
    12    5   10 2   
    13    6    7 2   
    14    6   18 1   
    15    6   19 1   
    16    7    8 1   
    17    8    9 1   
    18    9   11 3   
    19   11   20 1   
    20   15   21 1   
    21   16   21 1   
@<TRIPOS>SUBSTRUCTURE
     1 WVI         1 TEMP              0 ****  ****    0 ROOT
