@<TRIPOS>MOLECULE
WVI
   21    22     1     0     0
SMALL
bcc


@<TRIPOS>ATOM
      1 C1         -1.0410    2.5650   -0.3140 c3        1 WVI     -0.130400
      2 C4         -1.5940   -1.0950   -0.0080 cc        1 WVI      0.114300
      3 C5         -0.6780   -0.0150   -0.1540 cd        1 WVI     -0.242300
      4 C6         -1.5180    1.1760   -0.1700 cd        1 WVI      0.357600
      5 N7         -2.8240    0.8250   -0.0420 nc        1 WVI     -0.526800
      6 C9          1.4410   -1.1070   -0.9270 cc        1 WVI     -0.181000
      7 C10         0.7340   -0.1200   -0.2580 cd        1 WVI      0.001900
      8 S11         1.7950    0.9690    0.4830 ss        1 WVI      0.006200
      9 C12         3.1640    0.1790   -0.0510 cd        1 WVI     -0.179100
     10 N          -2.8760   -0.5040    0.1210 na        1 WVI     -0.037600
     11 C13         2.8530   -0.9320   -0.8010 cc        1 WVI     -0.151000
     12 H11C       -1.4400    3.0200   -1.2560 hc        1 WVI      0.054700
     13 H12C       -1.3780    3.1920    0.5500 hc        1 WVI      0.054700
     14 H13C        0.0780    2.5810   -0.3550 hc        1 WVI      0.054700
     15 H31N       -0.3740   -2.6490    0.2070 hn        1 WVI      0.398800
     16 H32N       -1.9660   -3.0060    0.5420 hn        1 WVI      0.398800
     17 H          -3.7360   -0.9740   -0.0500 hn        1 WVI      0.314700
     18 H9          0.9920   -1.9100   -1.5160 ha        1 WVI      0.157000
     19 H13         3.5790   -1.6060   -1.2600 ha        1 WVI      0.151000
     20 H12         4.1700    0.5280    0.1770 h4        1 WVI      0.169000
     21 N3         -1.3340   -2.4620   -0.0090 nh        1 WVI     -0.785200
@<TRIPOS>BOND
     1    1    4 1   
     2    1   12 1   
     3    1   13 1   
     4    1   14 1   
     5    2    3 2   
     6    2   10 1   
     7    2   21 1   
     8    3    4 1   
     9    3    7 1   
    10    4    5 2   
    11    5   10 1   
    12    6    7 2   
    13    6   11 1   
    14    6   18 1   
    15    7    8 1   
    16    8    9 1   
    17    9   11 2   
    18    9   20 1   
    19   10   17 1   
    20   11   19 1   
    21   15   21 1   
    22   16   21 1   
@<TRIPOS>SUBSTRUCTURE
     1 WVI         1 TEMP              0 ****  ****    0 ROOT
