@<TRIPOS>MOLECULE
WVI
   22    23     1     0     0
SMALL
bcc


@<TRIPOS>ATOM
      1 C1          0.1220   -0.3850   -0.0150 c3        1 WVI     -0.180000
      2 C4          3.5430    0.7920    1.0840 c3        1 WVI     -0.126000
      3 C5          2.5950    0.3590   -0.0590 c2        1 WVI     -0.101000
      4 C6          1.4100    0.0260    0.5540 c2        1 WVI     -0.046000
      5 N7          1.5650    0.1750    2.0150 n2        1 WVI      0.062000
      6 C9          2.8400   -0.8310   -2.2800 c3        1 WVI     -0.187000
      7 C10         2.9820    0.3930   -1.4170 c2        1 WVI     -0.633000
      8 S11         3.4860    1.6370   -2.3230 ss        1 WVI      1.205000
      9 C12         3.5940    0.8830   -3.6200 c1        1 WVI     -0.859000
     10 N           2.6830    0.5400    2.3360 n2        1 WVI     -0.025000
     11 C13         3.2670   -0.4160   -3.6810 c2        1 WVI      0.059000
     12 H11C        0.1510   -0.3240   -1.1320 hc        1 WVI      0.126000
     13 H12C       -0.1180   -1.4380    0.2870 hc        1 WVI      0.126000
     14 H13C       -0.7040    0.2750    0.3610 hc        1 WVI      0.126000
     15 H31N        4.6750   -0.9580    1.2060 hn        1 WVI      0.266000
     16 H32N        5.4350    0.3850    1.8460 hn        1 WVI      0.266000
     17 H           3.7680    1.9010    1.0460 hx        1 WVI      0.196000
     18 H9          3.4580   -1.6870   -1.9080 hc        1 WVI      0.156000
     19 H13         1.7690   -1.1740   -2.3210 hc        1 WVI      0.156000
     20 H12         3.2550   -1.1180   -4.5170 ha        1 WVI      0.185000
     21 H33         5.3000    0.2000    0.1800 hn        1 WVI      0.266000
     22 N3          4.8370    0.0480    1.0830 n4        1 WVI     -0.037000
@<TRIPOS>BOND
     1    1    4 1   
     2    1   12 1   
     3    1   13 1   
     4    1   14 1   
     5    2    3 1   
     6    2   10 1   
     7    2   17 1   
     8    2   22 1   
     9    3    4 1   
    10    3    7 1   
    11    4    5 1   
    12    5   10 1   
    13    6    7 1   
    14    6   11 1   
    15    6   18 1   
    16    6   19 1   
    17    7    8 1   
    18    8    9 1   
    19    9   11 1   
    20   11   20 1   
    21   15   22 1   
    22   16   22 1   
    23   21   22 1   
@<TRIPOS>SUBSTRUCTURE
     1 WVI         1 TEMP              0 ****  ****    0 ROOT
