@<TRIPOS>MOLECULE
WVL
   25    22     1     0     0
SMALL
bcc


@<TRIPOS>ATOM
      1 C          -1.6170    0.4840   -1.8340 c1        1 WVL      0.306000
      2 CA         -0.1050    0.4840   -1.8340 c3        1 WVL     -0.125000
      3 O          -2.2460   -0.4960   -2.3120 o         1 WVL     -0.574000
      4 CB          0.3990    0.4840   -0.4090 c3        1 WVL     -0.064000
      5 CG2         1.8830    0.7810   -0.3980 c3        1 WVL     -0.194000
      6 CG1         0.1520   -0.8730    0.2140 c2        1 WVL     -0.104000
      7 CD         -0.2510   -0.9630    1.4960 c1        1 WVL     -0.181000
      8 CE1        -0.4980   -2.3200    2.1190 c3        1 WVL     -0.161000
      9 CE2        -0.4560    0.2930    2.3140 c2        1 WVL     -0.162000
     10 N           0.3690    1.6450   -2.5050 n3        1 WVL     -0.324000
     11 OXT        -2.2460    1.4640   -1.3560 os        1 WVL     -0.580000
     12 H1          0.2200   -0.3130   -2.2940 h1        1 WVL      0.083000
     13 H2         -0.0740    1.1680    0.1030 hc        1 WVL      0.093000
     14 H3          2.2840    0.4070    0.4090 hc        1 WVL      0.061333
     15 H4          2.0210    1.7470   -0.4130 hc        1 WVL      0.061333
     16 H5          2.3000    0.3810   -1.1850 hc        1 WVL      0.061333
     17 H6          0.3350   -1.6840   -0.2980 ha        1 WVL      0.170000
     18 H7         -0.1750   -3.0170    1.5170 hc        1 WVL      0.064000
     19 H8         -0.0230   -2.3790    2.9700 hc        1 WVL      0.064000
     20 H9         -1.4550   -2.4380    2.2710 hc        1 WVL      0.064000
     21 H10        -0.7390    0.0510    3.2170 ha        1 WVL      0.063333
     22 H11         0.3810    0.7930    2.3590 ha        1 WVL      0.063333
     23 H12        -1.1430    0.8460    1.8950 ha        1 WVL      0.063333
     24 H13         1.0090    1.4070   -3.1090 hn        1 WVL      0.125500
     25 H14        -0.3240    2.0500   -2.9390 hn        1 WVL      0.125500
@<TRIPOS>BOND
     1    1    2 1   
     2    1    3 1   
     3    2    4 1   
     4    2   10 1   
     5    2   12 1   
     6    4    5 1   
     7    4    6 1   
     8    4   13 1   
     9    5   14 1   
    10    5   15 1   
    11    5   16 1   
    12    6    7 1   
    13    6   17 1   
    14    7    8 1   
    15    8   18 1   
    16    8   19 1   
    17    8   20 1   
    18    9   21 1   
    19    9   22 1   
    20    9   23 1   
    21   10   24 1   
    22   10   25 1   
@<TRIPOS>SUBSTRUCTURE
     1 WVL         1 TEMP              0 ****  ****    0 ROOT
