@<TRIPOS>MOLECULE
WVL
   25    24     1     0     0
SMALL
bcc


@<TRIPOS>ATOM
      1 C           2.2560   -0.3850    0.3540 c         1 WVL      0.886600
      2 CA          0.9880    0.4950    0.6190 c3        1 WVL      0.023500
      3 O           3.2640    0.1680   -0.1730 o         1 WVL     -0.843800
      4 CB         -0.1280   -0.0030   -0.3200 c3        1 WVL     -0.030500
      5 CG2         0.1630    0.3390   -1.7690 c3        1 WVL     -0.082100
      6 CG1        -1.4570    0.5350    0.0820 c2        1 WVL     -0.116200
      7 CD         -2.6000   -0.1690    0.0940 c2        1 WVL     -0.182400
      8 CE1        -2.6720   -1.5970   -0.3000 c3        1 WVL     -0.042900
      9 CE2        -3.8830    0.4410    0.5190 c3        1 WVL     -0.042900
     10 N           1.2290    1.9300    0.5350 n3        1 WVL     -0.890800
     11 OXT         2.1990   -1.6000    0.6900 o         1 WVL     -0.843800
     12 H1          0.6580    0.2840    1.6780 h1        1 WVL      0.044700
     13 H2         -0.1210   -1.1280   -0.2130 hc        1 WVL      0.076700
     14 H3          1.2400    0.1280   -1.9860 hc        1 WVL      0.030033
     15 H4         -0.4750   -0.2790   -2.4460 hc        1 WVL      0.030033
     16 H5         -0.0440    1.4150   -1.9810 hc        1 WVL      0.030033
     17 H6         -1.4560    1.5950    0.3890 ha        1 WVL      0.125000
     18 H7         -2.1310   -2.2330    0.4460 hc        1 WVL      0.027533
     19 H8         -3.7310   -1.9490   -0.3610 hc        1 WVL      0.027533
     20 H9         -2.1890   -1.7540   -1.2970 hc        1 WVL      0.027533
     21 H10        -3.7500    1.5060    0.8310 hc        1 WVL      0.027533
     22 H11        -4.6240    0.4100   -0.3190 hc        1 WVL      0.027533
     23 H12        -4.3140   -0.1260    1.3820 hc        1 WVL      0.027533
     24 H13         2.0520    2.1240    1.0790 hn        1 WVL      0.330300
     25 H14         1.4670    2.1530   -0.4170 hn        1 WVL      0.330300
@<TRIPOS>BOND
     1    1    2 1   
     2    1    3 1   
     3    1   11 1   
     4    2    4 1   
     5    2   10 1   
     6    2   12 1   
     7    4    5 1   
     8    4    6 1   
     9    4   13 1   
    10    5   14 1   
    11    5   15 1   
    12    5   16 1   
    13    6    7 2   
    14    6   17 1   
    15    7    8 1   
    16    7    9 1   
    17    8   18 1   
    18    8   19 1   
    19    8   20 1   
    20    9   21 1   
    21    9   22 1   
    22    9   23 1   
    23   10   24 1   
    24   10   25 1   
@<TRIPOS>SUBSTRUCTURE
     1 WVL         1 TEMP              0 ****  ****    0 ROOT
