@<TRIPOS>MOLECULE
WW2
   25    25     1     0     0
SMALL
bcc


@<TRIPOS>ATOM
      1 C1          0.5850   -0.9440   -0.9340 c3        1 WW2     -0.089400
      2 F1         -2.0910    2.4440    0.2540 f         1 WW2     -0.341400
      3 O1         -2.0370    1.3470   -1.9770 o         1 WW2     -0.842300
      4 P1         -2.3400    1.1220   -0.5450 p5        1 WW2      1.599300
      5 C2          2.0980   -0.9440   -0.9340 c3        1 WW2     -0.076400
      6 O2         -1.4020   -0.0190    0.0190 os        1 WW2     -0.614200
      7 C3          2.6770   -0.9440    0.4670 c3        1 WW2     -0.079400
      8 C4          2.0980    0.1570    1.3340 c3        1 WW2     -0.076400
      9 C5          0.5850    0.1570    1.3340 c3        1 WW2     -0.089400
     10 C6          0.0050    0.1570   -0.0670 c3        1 WW2      0.183100
     11 C7         -4.0760    0.6230   -0.3650 c3        1 WW2     -0.459300
     12 H1          0.2690   -0.8240   -1.8500 hc        1 WW2      0.049950
     13 H1A         0.2690   -1.8060   -0.6020 hc        1 WW2      0.049950
     14 H2          2.4130   -0.1500   -1.4060 hc        1 WW2      0.044200
     15 H2A         2.4130   -1.7380   -1.4060 hc        1 WW2      0.044200
     16 H3          2.4910   -1.8060    0.8860 hc        1 WW2      0.042200
     17 H3A         3.6440   -0.8240    0.4090 hc        1 WW2      0.042200
     18 H4          2.4140    0.0360    2.2500 hc        1 WW2      0.044200
     19 H4A         2.4140    1.0190    1.0020 hc        1 WW2      0.044200
     20 H5          0.2700   -0.6370    1.8060 hc        1 WW2      0.049950
     21 H5A         0.2700    0.9510    1.8060 hc        1 WW2      0.049950
     22 H6          0.1910    1.0190   -0.4850 h1        1 WW2      0.075700
     23 H7         -4.2650    0.4370    0.5740 hc        1 WW2      0.116700
     24 H7A        -4.6560    1.3440   -0.6770 hc        1 WW2      0.116700
     25 H7B        -4.2400   -0.1800   -0.8950 hc        1 WW2      0.116700
@<TRIPOS>BOND
     1    1    5 1   
     2    1   10 1   
     3    1   12 1   
     4    1   13 1   
     5    2    4 1   
     6    3    4 2   
     7    4    6 1   
     8    4   11 1   
     9    5    7 1   
    10    5   14 1   
    11    5   15 1   
    12    6   10 1   
    13    7    8 1   
    14    7   16 1   
    15    7   17 1   
    16    8    9 1   
    17    8   18 1   
    18    8   19 1   
    19    9   10 1   
    20    9   20 1   
    21    9   21 1   
    22   10   22 1   
    23   11   23 1   
    24   11   24 1   
    25   11   25 1   
@<TRIPOS>SUBSTRUCTURE
     1 WW2         1 TEMP              0 ****  ****    0 ROOT
