@<TRIPOS>MOLECULE
WW2
   25    25     1     0     0
SMALL
bcc


@<TRIPOS>ATOM
      1 C1         -0.2150    0.0180    0.1200 c3        1 WW2     -0.089400
      2 F1         -3.0980    3.3910    1.6550 f         1 WW2     -0.341400
      3 O1         -2.1070    3.3230   -0.6100 o         1 WW2     -0.842300
      4 P1         -2.8350    2.5590    0.3960 p5        1 WW2      1.599300
      5 C2          1.2850   -0.1030   -0.0410 c3        1 WW2     -0.076400
      6 O2         -1.9760    1.3560    1.0320 os        1 WW2     -0.614200
      7 C3          1.9970    0.0090    1.2910 c3        1 WW2     -0.079400
      8 C4          1.6280    1.2950    2.0010 c3        1 WW2     -0.076400
      9 C5          0.1290    1.4220    2.1730 c3        1 WW2     -0.089400
     10 C6         -0.5740    1.3290    0.8190 c3        1 WW2      0.183100
     11 C7         -4.2520    1.8610   -0.0370 c3        1 WW2     -0.459300
     12 H1         -0.7080   -0.0210   -0.8850 hc        1 WW2      0.049950
     13 H1A        -0.6110   -0.8370    0.7260 hc        1 WW2      0.049950
     14 H2          1.6540    0.7020   -0.7310 hc        1 WW2      0.044200
     15 H2A         1.5280   -1.0900   -0.5150 hc        1 WW2      0.044200
     16 H3          1.7220   -0.8670    1.9370 hc        1 WW2      0.042200
     17 H3A         3.1060   -0.0260    1.1290 hc        1 WW2      0.042200
     18 H4          2.1190    1.3220    3.0090 hc        1 WW2      0.044200
     19 H4A         2.0130    2.1700    1.4150 hc        1 WW2      0.044200
     20 H5         -0.2560    0.6060    2.8380 hc        1 WW2      0.049950
     21 H5A        -0.1160    2.3990    2.6620 hc        1 WW2      0.049950
     22 H6         -0.2860    2.2060    0.1660 h1        1 WW2      0.075700
     23 H7         -4.4110    1.8980   -1.1440 hc        1 WW2      0.116700
     24 H7A        -5.1520    2.3400    0.4200 hc        1 WW2      0.116700
     25 H7B        -4.3060    0.7790    0.2470 hc        1 WW2      0.116700
@<TRIPOS>BOND
     1    1    5 1   
     2    1   10 1   
     3    1   12 1   
     4    1   13 1   
     5    2    4 1   
     6    3    4 2   
     7    4    6 1   
     8    4   11 1   
     9    5    7 1   
    10    5   14 1   
    11    5   15 1   
    12    6   10 1   
    13    7    8 1   
    14    7   16 1   
    15    7   17 1   
    16    8    9 1   
    17    8   18 1   
    18    8   19 1   
    19    9   10 1   
    20    9   20 1   
    21    9   21 1   
    22   10   22 1   
    23   11   23 1   
    24   11   24 1   
    25   11   25 1   
@<TRIPOS>SUBSTRUCTURE
     1 WW2         1 TEMP              0 ****  ****    0 ROOT
