@<TRIPOS>MOLECULE
WW2
   25    25     1     0     0
SMALL
bcc


@<TRIPOS>ATOM
      1 C1         -1.4310   -1.1620   -0.5490 c3        1 WW2     -0.089400
      2 F1          2.2560    1.7000   -0.0360 f         1 WW2     -0.341400
      3 O1          1.7760   -0.2360    1.4250 o         1 WW2     -0.842300
      4 P1          1.9110    0.2100    0.0430 p5        1 WW2      1.599300
      5 C2         -2.7830   -1.2820    0.1220 c3        1 WW2     -0.076400
      6 O2          0.5220    0.2020   -0.7700 os        1 WW2     -0.614200
      7 C3         -3.6190   -0.0370   -0.0900 c3        1 WW2     -0.079400
      8 C4         -2.8850    1.2010    0.3810 c3        1 WW2     -0.076400
      9 C5         -1.5340    1.3330   -0.2890 c3        1 WW2     -0.089400
     10 C6         -0.6930    0.0800   -0.0480 c3        1 WW2      0.183100
     11 C7          2.9560   -0.5900   -0.9310 c3        1 WW2     -0.459300
     12 H1         -0.8200   -2.0760   -0.3350 hc        1 WW2      0.049950
     13 H1A        -1.5540   -1.0890   -1.6600 hc        1 WW2      0.049950
     14 H2         -3.3230   -2.1730   -0.2910 hc        1 WW2      0.044200
     15 H2A        -2.6400   -1.4540    1.2220 hc        1 WW2      0.044200
     16 H3         -3.8660    0.0660   -1.1790 hc        1 WW2      0.042200
     17 H3A        -4.5870   -0.1350    0.4670 hc        1 WW2      0.042200
     18 H4         -3.5000    2.1110    0.1560 hc        1 WW2      0.044200
     19 H4A        -2.7480    1.1540    1.4940 hc        1 WW2      0.044200
     20 H5         -1.6610    1.4780   -1.3930 hc        1 WW2      0.049950
     21 H5A        -0.9990    2.2320    0.1090 hc        1 WW2      0.049950
     22 H6         -0.4560   -0.0290    1.0520 h1        1 WW2      0.075700
     23 H7          3.3230   -1.5360   -0.4580 hc        1 WW2      0.116700
     24 H7A         2.4950   -0.8900   -1.9070 hc        1 WW2      0.116700
     25 H7B         3.8700   -0.0020   -1.1940 hc        1 WW2      0.116700
@<TRIPOS>BOND
     1    1    5 1   
     2    1   10 1   
     3    1   12 1   
     4    1   13 1   
     5    2    4 1   
     6    3    4 2   
     7    4    6 1   
     8    4   11 1   
     9    5    7 1   
    10    5   14 1   
    11    5   15 1   
    12    6   10 1   
    13    7    8 1   
    14    7   16 1   
    15    7   17 1   
    16    8    9 1   
    17    8   18 1   
    18    8   19 1   
    19    9   10 1   
    20    9   20 1   
    21    9   21 1   
    22   10   22 1   
    23   11   23 1   
    24   11   24 1   
    25   11   25 1   
@<TRIPOS>SUBSTRUCTURE
     1 WW2         1 TEMP              0 ****  ****    0 ROOT
