@<TRIPOS>MOLECULE
WW2
   25    25     1     0     0
SMALL
bcc


@<TRIPOS>ATOM
      1 C1         -0.2170    0.0220    0.1130 c3        1 WW2     -0.089400
      2 F1         -3.0990    3.3810    1.6810 f         1 WW2     -0.341400
      3 O1         -2.1200    3.3280   -0.5890 o         1 WW2     -0.842300
      4 P1         -2.8410    2.5560    0.4160 p5        1 WW2      1.599300
      5 C2          1.2830   -0.0950   -0.0580 c3        1 WW2     -0.076400
      6 O2         -1.9750    1.3520    1.0420 os        1 WW2     -0.614200
      7 C3          2.0020    0.0120    1.2710 c3        1 WW2     -0.079400
      8 C4          1.6340    1.2940    1.9900 c3        1 WW2     -0.076400
      9 C5          0.1370    1.4170    2.1710 c3        1 WW2     -0.089400
     10 C6         -0.5750    1.3290    0.8200 c3        1 WW2      0.183100
     11 C7         -4.2580    1.8560   -0.0130 c3        1 WW2     -0.459300
     12 H1         -0.7160   -0.0140   -0.8890 hc        1 WW2      0.049950
     13 H1A        -0.6070   -0.8370    0.7180 hc        1 WW2      0.049950
     14 H2          1.6450    0.7140   -0.7460 hc        1 WW2      0.044200
     15 H2A         1.5240   -1.0790   -0.5380 hc        1 WW2      0.044200
     16 H3          1.7330   -0.8670    1.9140 hc        1 WW2      0.042200
     17 H3A         3.1100   -0.0190    1.1020 hc        1 WW2      0.042200
     18 H4          2.1310    1.3180    2.9940 hc        1 WW2      0.044200
     19 H4A         2.0140    2.1730    1.4050 hc        1 WW2      0.044200
     20 H5         -0.1080    2.3920    2.6660 hc        1 WW2      0.049950
     21 H5A        -0.2430    0.5970    2.8340 hc        1 WW2      0.049950
     22 H6         -0.2930    2.2100    0.1690 h1        1 WW2      0.075700
     23 H7         -4.3080    0.7730    0.2650 hc        1 WW2      0.116700
     24 H7A        -4.4230    1.9000   -1.1190 hc        1 WW2      0.116700
     25 H7B        -5.1570    2.3310    0.4520 hc        1 WW2      0.116700
@<TRIPOS>BOND
     1    1    5 1   
     2    1   10 1   
     3    1   12 1   
     4    1   13 1   
     5    2    4 1   
     6    3    4 2   
     7    4    6 1   
     8    4   11 1   
     9    5    7 1   
    10    5   14 1   
    11    5   15 1   
    12    6   10 1   
    13    7    8 1   
    14    7   16 1   
    15    7   17 1   
    16    8    9 1   
    17    8   18 1   
    18    8   19 1   
    19    9   10 1   
    20    9   20 1   
    21    9   21 1   
    22   10   22 1   
    23   11   23 1   
    24   11   24 1   
    25   11   25 1   
@<TRIPOS>SUBSTRUCTURE
     1 WW2         1 TEMP              0 ****  ****    0 ROOT
