@<TRIPOS>MOLECULE
WW3
   38    39     1     0     0
SMALL
bcc


@<TRIPOS>ATOM
      1 O9          0.0210    0.4330    0.3930 o         1 WW3     -0.580800
      2 S7          1.3870    0.4560    0.2080 sy        1 WW3      1.514200
      3 O8          2.2440   -0.0490    1.1640 o         1 WW3     -0.580800
      4 N10         1.5260   -1.0000   -1.1040 n4        1 WW3     -0.779500
      5 C3          1.9520    1.6050   -0.6980 ca        1 WW3     -0.637500
      6 C2          1.0960    2.4110   -1.4970 ca        1 WW3      0.028500
      7 C4          3.3300    1.9490   -0.6990 ca        1 WW3      0.028500
      8 C5          3.8220    2.9950   -1.4400 ca        1 WW3     -0.183500
      9 C6          2.9570    3.7920   -2.2460 ca        1 WW3      0.340400
     10 C1          1.5650    3.4610   -2.2460 ca        1 WW3     -0.183500
     11 N11         3.3480    4.8350   -3.0870 ne        1 WW3     -0.416400
     12 N12         4.4810    5.3880   -2.9120 n2        1 WW3      0.018300
     13 N13         4.9400    6.2240   -3.7880 nh        1 WW3     -0.379700
     14 C16         6.1080    7.0420   -3.3960 c3        1 WW3      0.190800
     15 C15         5.7520    8.4040   -2.8140 c3        1 WW3     -0.100400
     16 C17         4.8530    9.2350   -3.7040 c3        1 WW3     -0.084900
     17 C18         3.4200    8.7450   -3.7260 c3        1 WW3     -0.084900
     18 C19         3.1320    7.6940   -4.7760 c3        1 WW3     -0.100400
     19 C14         4.2520    6.6860   -5.0050 c3        1 WW3      0.190800
     20 H1          2.1340   -1.7320   -0.7500 hn        1 WW3      0.446133
     21 H2          0.6100   -1.4040   -1.2740 hn        1 WW3      0.446133
     22 H3          0.0110    2.1910   -1.4940 ha        1 WW3      0.161000
     23 H4          4.0210    1.3600   -0.0640 ha        1 WW3      0.161000
     24 H5          4.9020    3.2230   -1.3990 ha        1 WW3      0.177000
     25 H6          0.8640    4.0650   -2.8480 ha        1 WW3      0.177000
     26 H7          6.7200    7.1710   -4.3340 h1        1 WW3      0.077450
     27 H8          6.7340    6.4760   -2.6470 h1        1 WW3      0.077450
     28 H9          6.7210    8.9500   -2.6570 hc        1 WW3      0.064450
     29 H10         5.2740    8.2750   -1.8070 hc        1 WW3      0.064450
     30 H11         5.2660    9.2650   -4.7460 hc        1 WW3      0.054200
     31 H12         4.8630   10.2900   -3.3160 hc        1 WW3      0.054200
     32 H13         3.1470    8.3470   -2.7120 hc        1 WW3      0.054200
     33 H14         2.7410    9.6200   -3.9180 hc        1 WW3      0.054200
     34 H15         2.1920    7.1500   -4.4930 hc        1 WW3      0.064450
     35 H16         2.9440    8.1930   -5.7650 hc        1 WW3      0.064450
     36 H17         5.0410    7.1460   -5.6650 h1        1 WW3      0.077450
     37 H18         3.8340    5.7900   -5.5480 h1        1 WW3      0.077450
     38 H103        1.8990   -0.6750   -1.9880 hn        1 WW3      0.446133
@<TRIPOS>BOND
     1    1    2 2   
     2    2    3 2   
     3    2    4 1   
     4    2    5 1   
     5    4   20 1   
     6    4   21 1   
     7    4   38 1   
     8    5    6 ar  
     9    5    7 ar  
    10    6   10 ar  
    11    6   22 1   
    12    7    8 ar  
    13    7   23 1   
    14    8    9 ar  
    15    8   24 1   
    16    9   10 ar  
    17    9   11 1   
    18   10   25 1   
    19   11   12 2   
    20   12   13 1   
    21   13   14 1   
    22   13   19 1   
    23   14   15 1   
    24   14   26 1   
    25   14   27 1   
    26   15   16 1   
    27   15   28 1   
    28   15   29 1   
    29   16   17 1   
    30   16   30 1   
    31   16   31 1   
    32   17   18 1   
    33   17   32 1   
    34   17   33 1   
    35   18   19 1   
    36   18   34 1   
    37   18   35 1   
    38   19   36 1   
    39   19   37 1   
@<TRIPOS>SUBSTRUCTURE
     1 WW3         1 TEMP              0 ****  ****    0 ROOT
