@<TRIPOS>MOLECULE
WW3
   38    39     1     0     0
SMALL
bcc


@<TRIPOS>ATOM
      1 O9          0.0240    0.4380    0.4060 o         1 WW3     -0.580800
      2 S7          1.3910    0.4610    0.2180 sy        1 WW3      1.514200
      3 O8          2.2480   -0.0430    1.1740 o         1 WW3     -0.580800
      4 N10         1.5270   -0.9960   -1.0920 nz        1 WW3     -0.779500
      5 C3          1.9540    1.6090   -0.6900 ca        1 WW3     -0.637500
      6 C2          1.0970    2.4140   -1.4890 ca        1 WW3      0.028500
      7 C4          3.3320    1.9520   -0.6930 ca        1 WW3      0.028500
      8 C5          3.8240    2.9970   -1.4370 ca        1 WW3     -0.183500
      9 C6          2.9570    3.7930   -2.2430 ca        1 WW3      0.340400
     10 C1          1.5650    3.4630   -2.2400 ca        1 WW3     -0.183500
     11 N11         3.3480    4.8350   -3.0850 ne        1 WW3     -0.416400
     12 N12         4.4810    5.3880   -2.9130 n2        1 WW3      0.018300
     13 N13         4.9390    6.2210   -3.7910 nh        1 WW3     -0.379700
     14 C16         6.1080    7.0410   -3.4010 c3        1 WW3      0.190800
     15 C15         5.7510    8.4050   -2.8230 c3        1 WW3     -0.100400
     16 C17         4.8510    9.2330   -3.7150 c3        1 WW3     -0.084900
     17 C18         3.4180    8.7430   -3.7350 c3        1 WW3     -0.084900
     18 C19         3.1310    7.6890   -4.7820 c3        1 WW3     -0.100400
     19 C14         4.2500    6.6810   -5.0090 c3        1 WW3      0.190800
     20 H1          2.1350   -1.7290   -0.7380 hn        1 WW3      0.446133
     21 H2          0.6100   -1.4010   -1.2600 hn        1 WW3      0.446133
     22 H3          0.0120    2.1940   -1.4840 ha        1 WW3      0.161000
     23 H4          4.0230    1.3640   -0.0580 ha        1 WW3      0.161000
     24 H5          4.9030    3.2240   -1.3980 ha        1 WW3      0.177000
     25 H6          0.8630    4.0660   -2.8420 ha        1 WW3      0.177000
     26 H7          6.7190    7.1680   -4.3400 h1        1 WW3      0.077450
     27 H8          6.7340    6.4770   -2.6520 h1        1 WW3      0.077450
     28 H9          6.7210    8.9510   -2.6670 hc        1 WW3      0.064450
     29 H10         5.2730    8.2780   -1.8160 hc        1 WW3      0.064450
     30 H11         5.2640    9.2610   -4.7570 hc        1 WW3      0.054200
     31 H12         4.8620   10.2890   -3.3300 hc        1 WW3      0.054200
     32 H13         2.7390    9.6170   -3.9290 hc        1 WW3      0.054200
     33 H14         3.1470    8.3470   -2.7190 hc        1 WW3      0.054200
     34 H15         2.9410    8.1850   -5.7720 hc        1 WW3      0.064450
     35 H16         2.1910    7.1450   -4.4970 hc        1 WW3      0.064450
     36 H17         5.0390    7.1400   -5.6710 h1        1 WW3      0.077450
     37 H18         3.8320    5.7830   -5.5500 h1        1 WW3      0.077450
     38 H103        1.8990   -0.6730   -1.9770 hn        1 WW3      0.446133
@<TRIPOS>BOND
     1    1    2 2   
     2    2    3 2   
     3    2    4 1   
     4    2    5 1   
     5    4   20 1   
     6    4   21 1   
     7    4   38 1   
     8    5    6 ar  
     9    5    7 ar  
    10    6   10 ar  
    11    6   22 1   
    12    7    8 ar  
    13    7   23 1   
    14    8    9 ar  
    15    8   24 1   
    16    9   10 ar  
    17    9   11 1   
    18   10   25 1   
    19   11   12 2   
    20   12   13 1   
    21   13   14 1   
    22   13   19 1   
    23   14   15 1   
    24   14   26 1   
    25   14   27 1   
    26   15   16 1   
    27   15   28 1   
    28   15   29 1   
    29   16   17 1   
    30   16   30 1   
    31   16   31 1   
    32   17   18 1   
    33   17   32 1   
    34   17   33 1   
    35   18   19 1   
    36   18   34 1   
    37   18   35 1   
    38   19   36 1   
    39   19   37 1   
@<TRIPOS>SUBSTRUCTURE
     1 WW3         1 TEMP              0 ****  ****    0 ROOT
