@<TRIPOS>MOLECULE
WW7
   45    46     1     0     0
SMALL
bcc


@<TRIPOS>ATOM
      1 S1         -0.9720   -0.1010   -0.8070 s6        1 WW7      2.816000
      2 O1          0.2110    0.5770   -0.5980 o         1 WW7     -0.823500
      3 O2         -1.9470   -0.2390    0.1520 o         1 WW7     -0.823500
      4 N1         -1.8020    0.9080   -2.1210 ny        1 WW7     -0.489000
      5 C4         -0.7490   -3.4960   -3.7870 c3        1 WW7     -0.112000
      6 C3         -1.8510   -3.4340   -2.7570 c2        1 WW7     -0.017000
      7 C2         -1.7190   -2.3190   -2.0650 c1        1 WW7      0.123000
      8 C1         -0.7340   -1.4980   -1.6390 c2        1 WW7     -0.955000
      9 C9          0.5550   -2.0840   -2.0530 c2        1 WW7      0.268000
     10 C10         0.5420   -3.0000   -3.1620 c2        1 WW7     -0.192000
     11 C5          1.7500   -3.4460   -3.6820 c2        1 WW7      0.071000
     12 C6          3.0440   -3.0770   -3.0750 c3        1 WW7     -0.227000
     13 C7          2.9700   -2.1810   -1.9230 c2        1 WW7      0.079000
     14 C8          1.7730   -1.7020   -1.4530 c2        1 WW7     -0.220000
     15 C11        -2.4920    2.0860   -1.5110 c3        1 WW7     -0.148000
     16 C12        -3.2260    2.9540   -2.5250 c3        1 WW7     -0.181000
     17 C14        -4.6770    4.9670   -2.7770 c3        1 WW7     -0.157000
     18 C13        -3.9190    4.0920   -1.7980 c3        1 WW7     -0.159000
     19 C15        -5.4290    6.0560   -2.0420 c3        1 WW7     -0.164000
     20 C16        -6.2200    6.9120   -3.0350 c3        1 WW7     -0.067000
     21 N2         -7.0790    7.8650   -2.3810 n8        1 WW7     -0.353000
     22 HN1         1.7740   -1.0070   -0.5870 ha        1 WW7      0.217000
     23 H4         -0.9780   -2.9180   -4.7240 hc        1 WW7      0.177000
     24 H3         -0.6540   -4.5830   -4.0800 hc        1 WW7      0.177000
     25 H2         -2.5660   -4.2620   -2.6200 ha        1 WW7      0.250000
     26 H6          3.6050   -4.0270   -2.7670 hc        1 WW7      0.241500
     27 H7          3.7340   -2.6190   -3.8630 hc        1 WW7      0.241500
     28 H8          3.9260   -1.8990   -1.4320 ha        1 WW7      0.213000
     29 H111       -2.4990    0.3760   -2.6430 hn        1 WW7      0.252000
     30 H112       -3.2290    1.6960   -0.7460 hx        1 WW7      0.160000
     31 H121       -1.7050    2.7050   -0.9860 hx        1 WW7      0.160000
     32 H122       -2.5060    3.3740   -3.2770 hc        1 WW7      0.105500
     33 H141       -3.9900    2.3470   -3.0790 hc        1 WW7      0.105500
     34 H142       -5.4000    4.3400   -3.3630 hc        1 WW7      0.087500
     35 H131       -3.9610    5.4260   -3.5090 hc        1 WW7      0.087500
     36 H132       -3.1620    4.7120   -1.2500 hc        1 WW7      0.100000
     37 H151       -4.6330    3.6780   -1.0370 hc        1 WW7      0.100000
     38 H152       -4.7080    6.7000   -1.4740 hc        1 WW7      0.095000
     39 H161       -6.1290    5.5960   -1.2960 hc        1 WW7      0.095000
     40 H162       -6.8740    6.2340   -3.6560 h1        1 WW7      0.064000
     41 HN21       -5.4800    7.3950   -3.7420 h1        1 WW7      0.064000
     42 HN22       -7.6310    8.3630   -3.0500 hn        1 WW7      0.157500
     43 Cl1         1.8250   -4.4310   -5.0270 cl        1 WW7      0.173000
     44 H12        -1.1310    1.2650   -2.8040 hn        1 WW7      0.252000
     45 H23        -6.5560    8.5110   -1.8260 hn        1 WW7      0.157500
@<TRIPOS>BOND
     1    1    2 1   
     2    1    3 1   
     3    1    4 1   
     4    1    8 1   
     5    4   15 1   
     6    4   29 1   
     7    4   44 1   
     8    5    6 1   
     9    5   10 1   
    10    5   23 1   
    11    5   24 1   
    12    6    7 1   
    13    6   25 1   
    14    7    8 1   
    15    8    9 1   
    16    9   10 1   
    17    9   14 1   
    18   10   11 1   
    19   11   12 1   
    20   11   43 1   
    21   12   13 1   
    22   12   26 1   
    23   12   27 1   
    24   13   14 1   
    25   13   28 1   
    26   14   22 1   
    27   15   16 1   
    28   15   30 1   
    29   15   31 1   
    30   16   18 1   
    31   16   32 1   
    32   16   33 1   
    33   17   18 1   
    34   17   19 1   
    35   17   34 1   
    36   17   35 1   
    37   18   36 1   
    38   18   37 1   
    39   19   20 1   
    40   19   38 1   
    41   19   39 1   
    42   20   21 1   
    43   20   40 1   
    44   20   41 1   
    45   21   42 1   
    46   21   45 1   
@<TRIPOS>SUBSTRUCTURE
     1 WW7         1 TEMP              0 ****  ****    0 ROOT
