@<TRIPOS>MOLECULE
WW7
   43    44     1     0     0
SMALL
bcc


@<TRIPOS>ATOM
      1 S1          1.8940    0.1900   -0.3160 sy        1 WW7      1.511200
      2 O1          2.5940    1.3480   -0.7150 o         1 WW7     -0.654300
      3 O2          2.6730   -0.8490    0.2450 o         1 WW7     -0.654300
      4 N1          0.7110    0.6170    0.6930 n3        1 WW7     -0.920100
      5 C4         -0.3500   -1.7170   -3.7470 ca        1 WW7     -0.047000
      6 C3          0.4290   -2.4570   -2.8930 ca        1 WW7     -0.163000
      7 C2          1.1180   -1.8220   -1.8410 ca        1 WW7      0.004000
      8 C1          1.0440   -0.4560   -1.6430 ca        1 WW7     -0.364500
      9 C9          0.2650    0.3310   -2.5440 ca        1 WW7      0.068000
     10 C10        -0.4550   -0.3080   -3.5920 ca        1 WW7     -0.059000
     11 C5         -1.2560    0.4900   -4.4630 ca        1 WW7      0.039400
     12 C6         -1.3260    1.8580   -4.3160 ca        1 WW7     -0.131000
     13 C7         -0.5850    2.4870   -3.2920 ca        1 WW7     -0.095000
     14 C8          0.1890    1.7490   -2.4310 ca        1 WW7     -0.153000
     15 C11         0.2400   -0.1800    1.7880 c3        1 WW7      0.223800
     16 C12         0.1620    0.5710    3.1190 c3        1 WW7     -0.095400
     17 C14        -0.4470    0.3670    5.5310 c3        1 WW7     -0.078400
     18 C13        -0.3600   -0.3510    4.2010 c3        1 WW7     -0.078400
     19 C15        -0.9790   -0.5510    6.6100 c3        1 WW7     -0.083400
     20 C16        -1.0510    0.1900    7.9440 c3        1 WW7      0.159800
     21 N2         -1.5070   -0.6380    9.0350 n3        1 WW7     -0.916800
     22 HN1         0.2380    1.4850    0.6010 hn        1 WW7      0.446800
     23 H4         -0.9010   -2.2100   -4.5640 ha        1 WW7      0.150000
     24 H3          0.5230   -3.5470   -3.0180 ha        1 WW7      0.146000
     25 H2          1.7340   -2.4440   -1.1610 ha        1 WW7      0.167000
     26 H6         -1.9440    2.4710   -4.9890 ha        1 WW7      0.152000
     27 H7         -0.6310    3.5830   -3.2000 ha        1 WW7      0.144000
     28 H8          0.7930    2.2690   -1.6680 ha        1 WW7      0.157000
     29 H111        0.9310   -1.0650    1.9130 h1        1 WW7      0.052700
     30 H112       -0.7900   -0.5770    1.5460 h1        1 WW7      0.052700
     31 H121       -0.5150    1.4590    3.0210 hc        1 WW7      0.048200
     32 H122        1.1770    0.9530    3.4050 hc        1 WW7      0.048200
     33 H141       -1.1150    1.2630    5.4320 hc        1 WW7      0.042200
     34 H142        0.5700    0.7420    5.8220 hc        1 WW7      0.042200
     35 H131        0.3170   -1.2410    4.2980 hc        1 WW7      0.044200
     36 H132       -1.3740   -0.7350    3.9130 hc        1 WW7      0.044200
     37 H151       -0.3110   -1.4470    6.7080 hc        1 WW7      0.047200
     38 H152       -1.9970   -0.9220    6.3210 hc        1 WW7      0.047200
     39 H161       -1.6980    1.1080    7.7980 h1        1 WW7      0.024200
     40 H162       -0.0180    0.5560    8.2120 h1        1 WW7      0.024200
     41 HN21       -1.6420   -0.0860    9.8580 hn        1 WW7      0.348300
     42 HN22       -2.3630   -1.1010    8.8040 hn        1 WW7      0.348300
     43 CL1        -2.1490   -0.2420   -5.7160 cl        1 WW7     -0.090400
@<TRIPOS>BOND
     1    1    2 2   
     2    1    3 2   
     3    1    4 1   
     4    1    8 1   
     5    4   15 1   
     6    4   22 1   
     7    5    6 ar  
     8    5   10 ar  
     9    5   23 1   
    10    6    7 ar  
    11    6   24 1   
    12    7    8 ar  
    13    7   25 1   
    14    8    9 ar  
    15    9   10 ar  
    16    9   14 ar  
    17   10   11 ar  
    18   11   12 ar  
    19   11   43 1   
    20   12   13 ar  
    21   12   26 1   
    22   13   14 ar  
    23   13   27 1   
    24   14   28 1   
    25   15   16 1   
    26   15   29 1   
    27   15   30 1   
    28   16   18 1   
    29   16   31 1   
    30   16   32 1   
    31   17   18 1   
    32   17   19 1   
    33   17   33 1   
    34   17   34 1   
    35   18   35 1   
    36   18   36 1   
    37   19   20 1   
    38   19   37 1   
    39   19   38 1   
    40   20   21 1   
    41   20   39 1   
    42   20   40 1   
    43   21   41 1   
    44   21   42 1   
@<TRIPOS>SUBSTRUCTURE
     1 WW7         1 TEMP              0 ****  ****    0 ROOT
