@<TRIPOS>MOLECULE
WW7
   45    45     1     0     0
SMALL
bcc


@<TRIPOS>ATOM
      1 S1        146.4620 -190.6880   33.8130 s6        1 WW7      2.864000
      2 O1        147.0640 -190.0330   32.7320 o         1 WW7     -0.912000
      3 O2        146.6060 -190.1140   35.0860 o         1 WW7     -0.912000
      4 N1        144.9700 -191.1030   33.4840 n3        1 WW7     -0.904000
      5 C4        148.9690 -194.3540   32.8500 c3        1 WW7     -0.097000
      6 C3        147.4700 -194.5140   32.9440 c2        1 WW7     -0.091000
      7 C2        146.9460 -193.3480   33.2590 c1        1 WW7      0.110000
      8 C1        147.2840 -192.2330   33.9180 c2        1 WW7     -0.788000
      9 C9        148.5770 -192.4330   34.5460 c2        1 WW7      0.290000
     10 C10       149.4530 -193.4250   33.9490 c2        1 WW7     -0.174000
     11 C5        150.7650 -193.4830   34.3560 c2        1 WW7      0.037000
     12 C6        151.3070 -192.6200   35.4300 c3        1 WW7     -0.199000
     13 C7        150.3390 -191.6940   36.0310 c2        1 WW7      0.030000
     14 C8        149.0510 -191.6060   35.5970 c2        1 WW7     -0.213000
     15 C11       143.9380 -191.3170   34.4710 c3        1 WW7     -0.023000
     16 C12       142.6180 -190.6170   34.1490 c3        1 WW7     -0.173000
     17 C14       140.2800 -190.2460   34.9390 c3        1 WW7     -0.158000
     18 C13       141.6000 -190.9290   35.2270 c3        1 WW7     -0.158000
     19 C15       139.2570 -190.5610   36.0010 c3        1 WW7     -0.213000
     20 C16      -961.9220    0.7320 -242.4360 c2        1 WW7      0.119000
     21 N2       -962.4030    0.9300 -242.4880 n2        1 WW7     -0.136000
     22 HN1       148.3460 -190.8850   36.0690 ha        1 WW7      0.232000
     23 H4        149.3040 -193.9600   31.8520 hc        1 WW7      0.156500
     24 H3        149.4120 -195.3800   32.9850 hc        1 WW7      0.156500
     25 H2        146.9910 -195.4930   32.8310 ha        1 WW7      0.214000
     26 H6        151.7530 -193.2710   36.2490 hc        1 WW7      0.203500
     27 H7        152.1840 -192.0180   35.0260 hc        1 WW7      0.203500
     28 H8        150.7040 -191.0600   36.8610 ha        1 WW7      0.189000
     29 H111      143.7440 -192.4260   34.5600 h1        1 WW7      0.098000
     30 H112      144.3120 -190.9460   35.4700 h1        1 WW7      0.098000
     31 H121      142.2310 -190.9600   33.1540 hc        1 WW7      0.095000
     32 H122      142.7740 -189.5080   34.0850 hc        1 WW7      0.095000
     33 H141      139.8970 -190.5760   33.9370 hc        1 WW7      0.083500
     34 H142      140.4360 -189.1360   34.8840 hc        1 WW7      0.083500
     35 H131      141.4430 -192.0380   35.2900 hc        1 WW7      0.084500
     36 H132      141.9880 -190.5890   36.2240 hc        1 WW7      0.084500
     37 H151      139.0660 -191.6600   36.0520 hc        1 WW7      0.078667
     38 H152      139.6100 -190.2190   37.0040 hc        1 WW7      0.078667
     39 H161      138.2930 -190.0460   35.7720 hc        1 WW7      0.078667
     40 H162     -961.1820    0.3750 -243.1910 ha        1 WW7      0.215000
     41 HN21     -962.2320    0.0210 -241.6340 ha        1 WW7      0.215000
     42 HN22     -963.0730    0.2750 -241.8160 hn        1 WW7      0.293000
     43 CL1       151.8700 -194.5370   33.6550 cl        1 WW7      0.106000
     44 H12       144.6350 -191.1770   32.5480 hn        1 WW7      0.266000
     45 H23      -962.1360    0.5910 -243.2050 DU        1 WW7      0.293000
@<TRIPOS>BOND
     1    1    2 1   
     2    1    3 1   
     3    1    4 1   
     4    1    8 1   
     5    4   15 1   
     6    4   44 1   
     7    5    6 1   
     8    5   10 1   
     9    5   23 1   
    10    5   24 1   
    11    6    7 1   
    12    6   25 1   
    13    7    8 1   
    14    8    9 1   
    15    9   10 1   
    16    9   14 1   
    17   10   11 1   
    18   11   12 1   
    19   11   43 1   
    20   12   13 1   
    21   12   26 1   
    22   12   27 1   
    23   13   14 1   
    24   13   28 1   
    25   14   22 1   
    26   15   16 1   
    27   15   29 1   
    28   15   30 1   
    29   16   18 1   
    30   16   31 1   
    31   16   32 1   
    32   17   18 1   
    33   17   19 1   
    34   17   33 1   
    35   17   34 1   
    36   18   35 1   
    37   18   36 1   
    38   19   37 1   
    39   19   38 1   
    40   19   39 1   
    41   20   40 1   
    42   20   41 1   
    43   20   45 1   
    44   21   42 1   
    45   21   45 1   
@<TRIPOS>SUBSTRUCTURE
     1 WW7         1 TEMP              0 ****  ****    0 ROOT
