@<TRIPOS>MOLECULE
WW7
   45    46     1     0     0
SMALL
bcc


@<TRIPOS>ATOM
      1 S1          0.1120    0.7120   -1.2480 s6        1 WW7      2.812000
      2 O1          1.4200    1.1310   -1.4150 o         1 WW7     -0.842000
      3 O2         -0.3880    0.3870   -0.0070 o         1 WW7     -0.842000
      4 N1         -0.8810    2.1180   -1.8270 n4        1 WW7     -0.498000
      5 C4         -1.4860   -2.3290   -4.1220 c2        1 WW7     -0.098000
      6 C3         -2.1760   -1.2470   -3.6990 c2        1 WW7     -0.108000
      7 C2         -1.5650   -0.2670   -2.8680 c1        1 WW7     -0.086000
      8 C1         -0.2470   -0.4800   -2.3740 c2        1 WW7     -0.915000
      9 C9          0.5090   -1.5530   -2.7640 c2        1 WW7      0.232000
     10 C10        -0.0420   -2.5200   -3.7870 c3        1 WW7     -0.167000
     11 C5          0.3730   -3.9240   -3.5300 c2        1 WW7      0.219000
     12 C6          1.6920   -4.2000   -2.9440 c3        1 WW7     -0.246000
     13 C7          2.4110   -3.0300   -2.3940 c2        1 WW7     -0.029000
     14 C8          1.8530   -1.8100   -2.3040 c2        1 WW7     -0.218000
     15 C11        -1.2400    3.0540   -0.7220 c3        1 WW7     -0.133000
     16 C12        -2.1410    4.1980   -1.1640 c3        1 WW7     -0.189000
     17 C14        -4.4070    4.9070   -1.9290 c3        1 WW7     -0.159000
     18 C13        -3.5180    3.7290   -1.5810 c3        1 WW7     -0.168000
     19 C15        -5.7660    4.4300   -2.3930 c3        1 WW7     -0.162000
     20 C16        -6.6140    5.6160   -2.8580 c3        1 WW7     -0.071000
     21 N2         -7.8760    5.2030   -3.4190 n3        1 WW7     -0.355000
     22 HN1         2.4180   -0.9600   -1.8610 ha        1 WW7      0.227000
     23 H4          0.5130   -2.2210   -4.7670 hc        1 WW7      0.264000
     24 H3         -1.9450   -3.0770   -4.7940 ha        1 WW7      0.185000
     25 H2         -3.2370   -1.0930   -3.9860 ha        1 WW7      0.215000
     26 H6          1.6130   -5.0020   -2.1310 hc        1 WW7      0.242000
     27 H7          2.3510   -4.7070   -3.7350 hc        1 WW7      0.242000
     28 H8          3.4390   -3.2290   -2.0270 ha        1 WW7      0.218000
     29 H111       -1.7630    1.7720   -2.2610 hn        1 WW7      0.280000
     30 H112       -1.7610    2.4510    0.0810 hx        1 WW7      0.153000
     31 H121       -0.2780    3.4740   -0.3050 hx        1 WW7      0.153000
     32 H122       -2.2340    4.8950   -0.2840 hc        1 WW7      0.129500
     33 H141       -1.6610    4.7820   -1.9940 hc        1 WW7      0.129500
     34 H142       -3.9230    5.5180   -2.7370 hc        1 WW7      0.095000
     35 H131       -4.5220    5.5720   -1.0330 hc        1 WW7      0.095000
     36 H132       -3.9890    3.1400   -0.7510 hc        1 WW7      0.079500
     37 H151       -3.4480    3.0540   -2.4760 hc        1 WW7      0.079500
     38 H152       -6.2850    3.8950   -1.5550 hc        1 WW7      0.086500
     39 H161       -5.6460    3.6990   -3.2350 hc        1 WW7      0.086500
     40 H162       -6.0480    6.1710   -3.6610 h1        1 WW7      0.069500
     41 HN21       -6.7290    6.3250   -1.9850 h1        1 WW7      0.069500
     42 HN22       -8.3570    5.9840   -3.8180 hn        1 WW7      0.156500
     43 CL1        -0.5780   -5.1810   -3.9420 cl        1 WW7      0.333000
     44 H12        -0.3930    2.6560   -2.5470 hn        1 WW7      0.280000
     45 H23        -8.4560    4.7700   -2.7290 hn        1 WW7      0.156500
@<TRIPOS>BOND
     1    1    2 1   
     2    1    3 1   
     3    1    4 1   
     4    1    8 1   
     5    4   15 1   
     6    4   29 1   
     7    4   44 1   
     8    5    6 1   
     9    5   10 1   
    10    5   24 1   
    11    6    7 1   
    12    6   25 1   
    13    7    8 1   
    14    8    9 1   
    15    9   10 1   
    16    9   14 1   
    17   10   11 1   
    18   10   23 1   
    19   11   12 1   
    20   11   43 1   
    21   12   13 1   
    22   12   26 1   
    23   12   27 1   
    24   13   14 1   
    25   13   28 1   
    26   14   22 1   
    27   15   16 1   
    28   15   30 1   
    29   15   31 1   
    30   16   18 1   
    31   16   32 1   
    32   16   33 1   
    33   17   18 1   
    34   17   19 1   
    35   17   34 1   
    36   17   35 1   
    37   18   36 1   
    38   18   37 1   
    39   19   20 1   
    40   19   38 1   
    41   19   39 1   
    42   20   21 1   
    43   20   40 1   
    44   20   41 1   
    45   21   42 1   
    46   21   45 1   
@<TRIPOS>SUBSTRUCTURE
     1 WW7         1 TEMP              0 ****  ****    0 ROOT
