@<TRIPOS>MOLECULE
WW8
   84    89     1     0     0
SMALL
bcc


@<TRIPOS>ATOM
      1 C1          0.7380    0.1080    0.7840 ca        1 WW8     -0.156000
      2 C2          1.8880    0.4590    1.4780 ca        1 WW8      0.074400
      3 CL3         3.3550    0.5760    0.6430 cl        1 WW8     -0.035400
      4 C4          1.8750    0.7200    2.8710 ca        1 WW8     -0.139000
      5 C5          0.7050    0.6370    3.5990 ca        1 WW8     -0.050000
      6 C6         -0.4830    0.2890    2.9400 ca        1 WW8     -0.125800
      7 C7         -0.4560    0.0180    1.5220 ca        1 WW8      0.001800
      8 N8         -1.7540   -0.2700    1.0920 na        1 WW8     -0.160400
      9 C9         -2.5930   -0.2610    2.2300 cc        1 WW8     -0.171300
     10 C10        -4.0150   -0.5650    2.1640 c         1 WW8      0.692300
     11 O11        -4.8480   -0.1550    3.0060 o         1 WW8     -0.663100
     12 N12        -4.4710   -1.4330    1.1020 n         1 WW8     -0.411800
     13 C13        -5.6810   -2.1820    1.4190 c3        1 WW8      0.025000
     14 C14        -6.8920   -1.3830    0.8420 c3        1 WW8      0.092500
     15 N15        -7.4560   -0.3480    1.7950 n4        1 WW8     -0.678400
     16 C16        -7.7460   -0.9010    3.1570 c3        1 WW8      0.109800
     17 C17        -8.3920    0.1210    4.0970 c3        1 WW8     -0.127400
     18 C18        -8.1250   -0.3030    5.5400 c3        1 WW8      0.105800
     19 N19        -8.6750    0.6570    6.5530 n4        1 WW8     -0.692400
     20 C20       -10.1390    0.4740    6.7380 c3        1 WW8      0.081100
     21 C21        -7.9670    0.4880    7.8530 c3        1 WW8      0.081100
     22 C22        -8.6730    0.2720    1.2100 c3        1 WW8      0.074100
     23 C23        -6.2570   -0.7190   -0.4060 c3        1 WW8     -0.131400
     24 C24        -4.7270   -0.7720   -0.1830 c3        1 WW8      0.029000
     25 C25        -1.8450    0.0950    3.3730 cd        1 WW8      0.091600
     26 C26        -2.2800    0.1650    4.7430 cd        1 WW8     -0.166400
     27 C27        -2.4220   -0.8790    5.6960 cc        1 WW8      0.398800
     28 C28        -2.2090   -2.3070    5.5140 ca        1 WW8     -0.129500
     29 C29        -1.5040   -3.0310    6.4870 ca        1 WW8     -0.110000
     30 C30        -1.2870   -4.3990    6.3210 ca        1 WW8     -0.130000
     31 C31        -1.7730   -5.0560    5.1900 ca        1 WW8     -0.108000
     32 C32        -2.4810   -4.3410    4.2240 ca        1 WW8     -0.130000
     33 C33        -2.7010   -2.9750    4.3860 ca        1 WW8     -0.110000
     34 N34        -2.7530   -0.3300    6.9460 nc        1 WW8     -0.657000
     35 C35        -2.8010    1.0010    6.7690 cd        1 WW8      0.393400
     36 N36        -2.5010    1.3670    5.4470 na        1 WW8     -0.196900
     37 C37        -2.7010    2.6810    4.9000 c3        1 WW8      0.075600
     38 C38        -4.1420    3.1130    4.9950 ca        1 WW8     -0.088300
     39 C39        -4.6280    3.6760    6.1800 ca        1 WW8     -0.088500
     40 C40        -5.9930    3.9170    6.3370 ca        1 WW8     -0.137000
     41 C41        -6.8630    3.5920    5.2940 ca        1 WW8     -0.018600
     42 CL42       -8.5530    3.7210    5.5270 cl        1 WW8     -0.111400
     43 C43        -6.3760    3.1410    4.0640 ca        1 WW8     -0.137000
     44 C44        -5.0130    2.8890    3.9240 ca        1 WW8     -0.088500
     45 H1          0.7580   -0.0970   -0.2960 ha        1 WW8      0.166000
     46 H4          2.8200    0.9880    3.3740 ha        1 WW8      0.170000
     47 H5          0.6970    0.8320    4.6830 ha        1 WW8      0.158000
     48 HN8        -1.9500   -0.8010    0.2790 hn        1 WW8      0.306700
     49 H13        -5.7480   -2.4270    2.5090 h1        1 WW8      0.106700
     50 H13A       -5.6330   -3.1540    0.8450 h1        1 WW8      0.106700
     51 H14        -7.7360   -2.0740    0.5710 hx        1 WW8      0.120700
     52 H16        -8.4150   -1.7980    3.0370 hx        1 WW8      0.122700
     53 H16A       -6.7560   -1.2240    3.6030 hx        1 WW8      0.122700
     54 H17        -7.9560    1.1460    3.9290 hc        1 WW8      0.083700
     55 H17A       -9.4950    0.1750    3.8970 hc        1 WW8      0.083700
     56 H18        -7.0070   -0.3720    5.7050 hx        1 WW8      0.119200
     57 H18A       -8.5760   -1.3170    5.7400 hx        1 WW8      0.119200
     58 H20       -10.3470   -0.5470    7.1560 hx        1 WW8      0.110700
     59 H20A      -10.6590    0.5930    5.7510 hx        1 WW8      0.110700
     60 H20B      -10.5190    1.2510    7.4560 hx        1 WW8      0.110700
     61 H21        -8.0940   -0.5660    8.2200 hx        1 WW8      0.110700
     62 H21A       -8.4060    1.2010    8.6030 hx        1 WW8      0.110700
     63 H21B       -6.8740    0.7100    7.7190 hx        1 WW8      0.110700
     64 H22        -8.9460    1.1900    1.7960 hx        1 WW8      0.105033
     65 H22A       -9.5210   -0.4640    1.2390 hx        1 WW8      0.105033
     66 H22B       -8.4830    0.5660    0.1420 hx        1 WW8      0.105033
     67 H23        -6.5360   -1.3230   -1.3080 hc        1 WW8      0.094200
     68 H23A       -6.5880    0.3320   -0.5880 hc        1 WW8      0.094200
     69 H24        -4.2450   -1.3990   -0.9860 h1        1 WW8      0.093700
     70 H24A       -4.2770    0.2560   -0.2240 h1        1 WW8      0.093700
     71 H29        -1.1150   -2.5200    7.3820 ha        1 WW8      0.129000
     72 H30        -0.7260   -4.9590    7.0850 ha        1 WW8      0.140500
     73 H31        -1.5930   -6.1340    5.0590 ha        1 WW8      0.148000
     74 H32        -2.8580   -4.8560    3.3290 ha        1 WW8      0.140500
     75 H33        -3.2550   -2.4140    3.6190 ha        1 WW8      0.129000
     76 H35        -2.9930    1.7440    7.5520 h5        1 WW8      0.065100
     77 H37        -2.0530    3.4080    5.4730 h1        1 WW8      0.092200
     78 H37A       -2.3630    2.6820    3.8230 h1        1 WW8      0.092200
     79 H39        -3.9330    3.9280    6.9990 ha        1 WW8      0.157500
     80 H40        -6.3720    4.3650    7.2710 ha        1 WW8      0.149500
     81 H43        -7.0540    3.0100    3.2080 ha        1 WW8      0.149500
     82 H44        -4.6210    2.4910    2.9740 ha        1 WW8      0.157500
     83 H151       -6.7230    0.3740    1.9190 hn        1 WW8      0.464800
     84 H191       -8.5110    1.6340    6.2130 hn        1 WW8      0.467800
@<TRIPOS>BOND
     1    1    2 ar  
     2    1    7 ar  
     3    1   45 1   
     4    2    3 1   
     5    2    4 ar  
     6    4    5 ar  
     7    4   46 1   
     8    5    6 ar  
     9    5   47 1   
    10    6    7 ar  
    11    6   25 1   
    12    7    8 1   
    13    8    9 1   
    14    8   48 1   
    15    9   10 1   
    16    9   25 2   
    17   10   11 2   
    18   10   12 1   
    19   12   13 1   
    20   12   24 1   
    21   13   14 1   
    22   13   49 1   
    23   13   50 1   
    24   14   15 1   
    25   14   23 1   
    26   14   51 1   
    27   15   16 1   
    28   15   22 1   
    29   15   83 1   
    30   16   17 1   
    31   16   52 1   
    32   16   53 1   
    33   17   18 1   
    34   17   54 1   
    35   17   55 1   
    36   18   19 1   
    37   18   56 1   
    38   18   57 1   
    39   19   20 1   
    40   19   21 1   
    41   19   84 1   
    42   20   58 1   
    43   20   59 1   
    44   20   60 1   
    45   21   61 1   
    46   21   62 1   
    47   21   63 1   
    48   22   64 1   
    49   22   65 1   
    50   22   66 1   
    51   23   24 1   
    52   23   67 1   
    53   23   68 1   
    54   24   69 1   
    55   24   70 1   
    56   25   26 1   
    57   26   27 2   
    58   26   36 1   
    59   27   28 1   
    60   27   34 1   
    61   28   29 ar  
    62   28   33 ar  
    63   29   30 ar  
    64   29   71 1   
    65   30   31 ar  
    66   30   72 1   
    67   31   32 ar  
    68   31   73 1   
    69   32   33 ar  
    70   32   74 1   
    71   33   75 1   
    72   34   35 2   
    73   35   36 1   
    74   35   76 1   
    75   36   37 1   
    76   37   38 1   
    77   37   77 1   
    78   37   78 1   
    79   38   39 ar  
    80   38   44 ar  
    81   39   40 ar  
    82   39   79 1   
    83   40   41 ar  
    84   40   80 1   
    85   41   42 1   
    86   41   43 ar  
    87   43   44 ar  
    88   43   81 1   
    89   44   82 1   
@<TRIPOS>SUBSTRUCTURE
     1 WW8         1 TEMP              0 ****  ****    0 ROOT
