@<TRIPOS>MOLECULE
WW8
   84    89     1     0     0
SMALL
bcc


@<TRIPOS>ATOM
      1 C1          0.7410    0.0370    1.3860 ca        1 WW8     -0.152000
      2 C2          1.7580    0.2380    2.3040 ca        1 WW8      0.070400
      3 Cl3         3.3680    0.1500    1.7940 cl        1 WW8     -0.029400
      4 C4          1.4940    0.5160    3.6730 ca        1 WW8     -0.130000
      5 C5          0.2030    0.6030    4.1450 ca        1 WW8     -0.063000
      6 C6         -0.8670    0.4140    3.2520 ca        1 WW8     -0.106800
      7 C7         -0.5840    0.1190    1.8620 ca        1 WW8     -0.000200
      8 N8         -1.7870   -0.0460    1.1870 na        1 WW8     -0.130400
      9 C9         -2.8330    0.1540    2.0980 cc        1 WW8     -0.155300
     10 C10        -4.2480    0.0390    1.7770 c         1 WW8      0.681300
     11 O11        -5.1410    0.5690    2.4750 o         1 WW8     -0.634100
     12 N12        -4.6090   -0.7950    0.6390 n         1 WW8     -0.406800
     13 C13        -5.4080   -1.9500    1.0520 c3        1 WW8      0.015000
     14 C14        -6.9170   -1.6090    0.8190 c3        1 WW8      0.093500
     15 N15        -7.5720   -0.9530    2.0140 nx        1 WW8     -0.691400
     16 C16        -7.5450   -1.8150    3.2440 c3        1 WW8      0.112800
     17 C17        -7.2650   -1.0020    4.5110 c3        1 WW8     -0.134400
     18 C18        -7.1520   -1.9570    5.6960 c3        1 WW8      0.117800
     19 N19        -6.7740   -1.2920    6.9800 nx        1 WW8     -0.710400
     20 C20        -7.8640   -0.4270    7.4920 c3        1 WW8      0.084600
     21 C21        -6.4150   -2.3210    7.9920 c3        1 WW8      0.084600
     22 C22        -8.9760   -0.5630    1.7120 c3        1 WW8      0.082100
     23 C23        -6.8290   -0.6610   -0.4010 c3        1 WW8     -0.124400
     24 C24        -5.3910   -0.1010   -0.3950 c3        1 WW8      0.019000
     25 C25        -2.2930    0.4300    3.3820 cd        1 WW8      0.026600
     26 C26        -3.0760    0.6070    4.5750 cd        1 WW8     -0.105400
     27 C27        -3.6600   -0.3740    5.4230 cc        1 WW8      0.349800
     28 C28        -3.4080   -1.8060    5.4470 ca        1 WW8     -0.136500
     29 C29        -3.2350   -2.4610    6.6770 ca        1 WW8     -0.142500
     30 C30        -2.9610   -3.8260    6.7140 ca        1 WW8     -0.126000
     31 C31        -2.8520   -4.5540    5.5270 ca        1 WW8     -0.108000
     32 C32        -3.0140   -3.9070    4.3020 ca        1 WW8     -0.126000
     33 C33        -3.2920   -2.5420    4.2610 ca        1 WW8     -0.142500
     34 N34        -4.4740    0.2690    6.3690 nc        1 WW8     -0.800000
     35 C35        -4.3560    1.5970    6.1370 cd        1 WW8      0.438400
     36 N36        -3.5100    1.8520    5.0610 na        1 WW8     -0.152900
     37 C37        -3.1080    3.1520    4.5750 c3        1 WW8      0.075600
     38 C38        -4.2360    4.1260    4.4200 ca        1 WW8     -0.142300
     39 C39        -4.2390    5.3120    5.1620 ca        1 WW8     -0.105000
     40 C40        -5.2520    6.2520    4.9800 ca        1 WW8     -0.126500
     41 C41        -6.2710    6.0020    4.0530 ca        1 WW8      0.036400
     42 Cl42       -7.5060    7.1360    3.8290 cl        1 WW8     -0.046400
     43 C43        -6.2710    4.8170    3.3060 ca        1 WW8     -0.126500
     44 C44        -5.2550    3.8850    3.4920 ca        1 WW8     -0.105000
     45 H1          0.9520   -0.1790    0.3280 ha        1 WW8      0.170000
     46 H4          2.3450    0.6630    4.3590 ha        1 WW8      0.171000
     47 H5          0.0020    0.8130    5.2070 ha        1 WW8      0.154000
     48 HN8        -1.8940   -0.2590    0.2270 hn        1 WW8      0.326700
     49 H13        -5.1590   -2.2690    2.0960 h1        1 WW8      0.100200
     50 H13A       -5.1550   -2.7980    0.3520 h1        1 WW8      0.100200
     51 H14        -7.5060   -2.5380    0.5870 hx        1 WW8      0.120700
     52 H16        -8.5390   -2.3410    3.3330 hx        1 WW8      0.106700
     53 H16A       -6.7560   -2.6100    3.1250 hx        1 WW8      0.106700
     54 H17        -6.3060   -0.4200    4.3880 hc        1 WW8      0.095700
     55 H17A       -8.0960   -0.2660    4.6800 hc        1 WW8      0.095700
     56 H18        -8.1310   -2.4930    5.8530 hx        1 WW8      0.102700
     57 H18A       -6.3520   -2.7250    5.4740 hx        1 WW8      0.102700
     58 H20        -7.5320    0.0490    8.4550 hx        1 WW8      0.102533
     59 H20A       -8.7870   -1.0360    7.6800 hx        1 WW8      0.102533
     60 H20B       -8.0860    0.3790    6.7440 hx        1 WW8      0.102533
     61 H21        -6.1810   -1.8080    8.9650 hx        1 WW8      0.102533
     62 H21A       -5.5000   -2.8770    7.6430 hx        1 WW8      0.102533
     63 H21B       -7.2680   -3.0330    8.1390 hx        1 WW8      0.102533
     64 H22        -8.9940    0.2670    0.9560 hx        1 WW8      0.106033
     65 H22A       -9.5390   -1.4460    1.3070 hx        1 WW8      0.106033
     66 H22B       -9.4680   -0.2010    2.6550 hx        1 WW8      0.106033
     67 H23        -7.5730    0.1690   -0.4030 hc        1 WW8      0.096200
     68 H23A       -7.0020   -1.2710   -1.3260 hc        1 WW8      0.096200
     69 H24        -5.3970    1.0110   -0.2340 h1        1 WW8      0.093700
     70 H24A       -4.8910   -0.3120   -1.3820 h1        1 WW8      0.093700
     71 H29        -3.2660   -1.8850    7.6160 ha        1 WW8      0.136000
     72 H30        -2.8000   -4.3280    7.6810 ha        1 WW8      0.151500
     73 H31        -2.6160   -5.6300    5.5590 ha        1 WW8      0.160000
     74 H32        -2.8960   -4.4730    3.3650 ha        1 WW8      0.151500
     75 H33        -3.3680   -2.0260    3.2910 ha        1 WW8      0.136000
     76 H35        -4.8310    2.3990    6.7180 h5        1 WW8      0.084100
     77 H37        -2.6060    3.0030    3.5730 h1        1 WW8      0.091200
     78 H37A       -2.3390    3.5660    5.2940 h1        1 WW8      0.091200
     79 H39        -3.4330    5.5190    5.8850 ha        1 WW8      0.143000
     80 H40        -5.2440    7.1900    5.5590 ha        1 WW8      0.158500
     81 H43        -7.0630    4.6340    2.5650 ha        1 WW8      0.158500
     82 H44        -5.2450    2.9560    2.9000 ha        1 WW8      0.143000
     83 H151       -7.0270   -0.0890    2.2120 hn        1 WW8      0.479800
     84 H191       -5.9070   -0.6820    6.8120 hn        1 WW8      0.523800
@<TRIPOS>BOND
     1    1    2 ar  
     2    1    7 ar  
     3    1   45 1   
     4    2    3 1   
     5    2    4 ar  
     6    4    5 ar  
     7    4   46 1   
     8    5    6 ar  
     9    5   47 1   
    10    6    7 ar  
    11    6   25 1   
    12    7    8 1   
    13    8    9 1   
    14    8   48 1   
    15    9   10 1   
    16    9   25 2   
    17   10   11 2   
    18   10   12 1   
    19   12   13 1   
    20   12   24 1   
    21   13   14 1   
    22   13   49 1   
    23   13   50 1   
    24   14   15 1   
    25   14   23 1   
    26   14   51 1   
    27   15   16 1   
    28   15   22 1   
    29   15   83 1   
    30   16   17 1   
    31   16   52 1   
    32   16   53 1   
    33   17   18 1   
    34   17   54 1   
    35   17   55 1   
    36   18   19 1   
    37   18   56 1   
    38   18   57 1   
    39   19   20 1   
    40   19   21 1   
    41   19   84 1   
    42   20   58 1   
    43   20   59 1   
    44   20   60 1   
    45   21   61 1   
    46   21   62 1   
    47   21   63 1   
    48   22   64 1   
    49   22   65 1   
    50   22   66 1   
    51   23   24 1   
    52   23   67 1   
    53   23   68 1   
    54   24   69 1   
    55   24   70 1   
    56   25   26 1   
    57   26   27 2   
    58   26   36 1   
    59   27   28 1   
    60   27   34 1   
    61   28   29 ar  
    62   28   33 ar  
    63   29   30 ar  
    64   29   71 1   
    65   30   31 ar  
    66   30   72 1   
    67   31   32 ar  
    68   31   73 1   
    69   32   33 ar  
    70   32   74 1   
    71   33   75 1   
    72   34   35 2   
    73   35   36 1   
    74   35   76 1   
    75   36   37 1   
    76   37   38 1   
    77   37   77 1   
    78   37   78 1   
    79   38   39 ar  
    80   38   44 ar  
    81   39   40 ar  
    82   39   79 1   
    83   40   41 ar  
    84   40   80 1   
    85   41   42 1   
    86   41   43 ar  
    87   43   44 ar  
    88   43   81 1   
    89   44   82 1   
@<TRIPOS>SUBSTRUCTURE
     1 WW8         1 TEMP              0 ****  ****    0 ROOT
