@<TRIPOS>MOLECULE
WW8
   82    87     1     0     0
SMALL
bcc


@<TRIPOS>ATOM
      1 C1         -4.1630   -2.0940    2.7520 ca        1 WW8     -0.146000
      2 C2         -5.4870   -1.8280    2.4250 ca        1 WW8      0.045400
      3 CL3        -6.7240   -2.6250    3.2790 cl        1 WW8     -0.092400
      4 C4         -5.8440   -0.9170    1.4070 ca        1 WW8     -0.153000
      5 C5         -4.8720   -0.2430    0.6870 ca        1 WW8     -0.056000
      6 C6         -3.5260   -0.4720    0.9810 ca        1 WW8     -0.090800
      7 C7         -3.1760   -1.4110    2.0220 ca        1 WW8     -0.032200
      8 N8         -1.7850   -1.4810    2.1010 na        1 WW8     -0.171400
      9 C9         -1.2470   -0.5750    1.1760 cc        1 WW8     -0.108300
     10 C10         0.2220   -0.3570    1.0640 c         1 WW8      0.685300
     11 O11         0.7110    0.7800    1.2120 o         1 WW8     -0.594100
     12 N12         1.0290   -1.4750    0.9000 n         1 WW8     -0.442800
     13 C13         2.4420   -1.3100    0.5910 c3        1 WW8      0.070000
     14 C14         2.7870   -2.3100   -0.5590 c3        1 WW8      0.165500
     15 N15         4.1370   -2.8670   -0.4560 n3        1 WW8     -0.720600
     16 C16         5.1450   -1.8100   -0.4270 c3        1 WW8      0.162800
     17 C17         6.5820   -2.3190   -0.3100 c3        1 WW8     -0.083400
     18 C18         7.5040   -1.1240   -0.0680 c3        1 WW8      0.170800
     19 N19         8.8830   -1.4930    0.2240 n3        1 WW8     -0.737600
     20 C20         9.5350   -2.1950   -0.8580 c3        1 WW8      0.156100
     21 C21         9.6540   -0.3690    0.7080 c3        1 WW8      0.156100
     22 C22         4.4000   -3.8620   -1.4730 c3        1 WW8      0.148100
     23 C23         1.6600   -3.3660   -0.4780 c3        1 WW8     -0.093400
     24 C24         0.5230   -2.7110    0.3220 c3        1 WW8      0.074000
     25 C25        -2.2780    0.0480    0.4580 cd        1 WW8     -0.004400
     26 C26        -2.1540    1.0040   -0.6080 cd        1 WW8     -0.152400
     27 C27        -2.3710    0.8650   -2.0090 cc        1 WW8      0.374800
     28 C28        -2.7720   -0.3200   -2.7480 ca        1 WW8     -0.100500
     29 C29        -3.3580   -0.1950   -4.0190 ca        1 WW8     -0.114500
     30 C30        -3.7390   -1.3290   -4.7330 ca        1 WW8     -0.137000
     31 C31        -3.5440   -2.6000   -4.1950 ca        1 WW8     -0.130000
     32 C32        -2.9630   -2.7330   -2.9350 ca        1 WW8     -0.137000
     33 C33        -2.5780   -1.6030   -2.2170 ca        1 WW8     -0.114500
     34 N34        -2.1420    2.0990   -2.6370 nc        1 WW8     -0.671000
     35 C35        -1.8030    2.9620   -1.6600 cd        1 WW8      0.407400
     36 N36        -1.7940    2.3490   -0.4050 na        1 WW8     -0.180900
     37 C37        -1.5450    2.9750    0.8670 c3        1 WW8      0.078600
     38 C38        -0.6710    4.1930    0.7910 ca        1 WW8     -0.116300
     39 C39         0.7190    4.0550    0.8520 ca        1 WW8     -0.101000
     40 C40         1.5370    5.1830    0.8260 ca        1 WW8     -0.131500
     41 C41         0.9590    6.4530    0.7390 ca        1 WW8      0.027400
     42 CL42        1.9520    7.8320    0.7080 cl        1 WW8     -0.092400
     43 C43        -0.4310    6.6000    0.6780 ca        1 WW8     -0.131500
     44 C44        -1.2420    5.4670    0.7030 ca        1 WW8     -0.101000
     45 H1         -3.8970   -2.8060    3.5450 ha        1 WW8      0.151000
     46 H4         -6.9090   -0.7470    1.1870 ha        1 WW8      0.151000
     47 H5         -5.1490    0.4620   -0.1130 ha        1 WW8      0.155000
     48 HN8        -1.2680   -1.9560    2.7950 hn        1 WW8      0.310700
     49 H13         2.6660   -0.2540    0.2770 h1        1 WW8      0.073200
     50 H13A        3.0240   -1.5430    1.5250 h1        1 WW8      0.073200
     51 H14         2.6690   -1.7520   -1.5380 h1        1 WW8      0.033700
     52 H16         5.0760   -1.1520   -1.3450 h1        1 WW8      0.033200
     53 H16A        4.9250   -1.1630    0.4690 h1        1 WW8      0.033200
     54 H17         6.6690   -3.0510    0.5340 hc        1 WW8      0.056200
     55 H17A        6.8770   -2.8440   -1.2550 hc        1 WW8      0.056200
     56 H18         7.4410   -0.4380   -0.9650 h1        1 WW8      0.029700
     57 H18A        7.1170   -0.5490    0.8220 h1        1 WW8      0.029700
     58 H20         9.5560   -1.6110   -1.8190 h1        1 WW8      0.031033
     59 H20A       10.5900   -2.4300   -0.5610 h1        1 WW8      0.031033
     60 H20B        8.9940   -3.1610   -1.0400 h1        1 WW8      0.031033
     61 H21         9.1570    0.0500    1.6210 h1        1 WW8      0.031033
     62 H21A       10.6780   -0.7290    0.9910 h1        1 WW8      0.031033
     63 H21B        9.7620    0.4550   -0.0500 h1        1 WW8      0.031033
     64 H22         4.5320   -3.4220   -2.5000 h1        1 WW8      0.035700
     65 H22A        5.3380   -4.4100   -1.1930 h1        1 WW8      0.035700
     66 H22B        3.5610   -4.6040   -1.5120 h1        1 WW8      0.035700
     67 H23         1.3110   -3.6450   -1.5000 hc        1 WW8      0.064700
     68 H23A        2.0010   -4.2930    0.0460 hc        1 WW8      0.064700
     69 H24         0.1950   -3.3890    1.1580 h1        1 WW8      0.053700
     70 H24A       -0.3670   -2.5170   -0.3390 h1        1 WW8      0.053700
     71 H29        -3.5170    0.8020   -4.4590 ha        1 WW8      0.141500
     72 H30        -4.1970   -1.2180   -5.7270 ha        1 WW8      0.128500
     73 H31        -3.8480   -3.4930   -4.7610 ha        1 WW8      0.128000
     74 H32        -2.8090   -3.7330   -2.5030 ha        1 WW8      0.128500
     75 H33        -2.1260   -1.7180   -1.2200 ha        1 WW8      0.141500
     76 H35        -1.5480    4.0190   -1.7980 h5        1 WW8      0.068100
     77 H37        -2.5400    3.2580    1.3230 h1        1 WW8      0.078200
     78 H37A       -1.0520    2.2080    1.5390 h1        1 WW8      0.078200
     79 H39         1.1650    3.0470    0.9250 ha        1 WW8      0.155500
     80 H40         2.6310    5.0710    0.8750 ha        1 WW8      0.149500
     81 H43        -0.8830    7.6010    0.6110 ha        1 WW8      0.149500
     82 H44        -2.3360    5.5800    0.6570 ha        1 WW8      0.155500
@<TRIPOS>BOND
     1    1    2 ar  
     2    1    7 ar  
     3    1   45 1   
     4    2    3 1   
     5    2    4 ar  
     6    4    5 ar  
     7    4   46 1   
     8    5    6 ar  
     9    5   47 1   
    10    6    7 ar  
    11    6   25 1   
    12    7    8 1   
    13    8    9 1   
    14    8   48 1   
    15    9   10 1   
    16    9   25 2   
    17   10   11 2   
    18   10   12 1   
    19   12   13 1   
    20   12   24 1   
    21   13   14 1   
    22   13   49 1   
    23   13   50 1   
    24   14   15 1   
    25   14   23 1   
    26   14   51 1   
    27   15   16 1   
    28   15   22 1   
    29   16   17 1   
    30   16   52 1   
    31   16   53 1   
    32   17   18 1   
    33   17   54 1   
    34   17   55 1   
    35   18   19 1   
    36   18   56 1   
    37   18   57 1   
    38   19   20 1   
    39   19   21 1   
    40   20   58 1   
    41   20   59 1   
    42   20   60 1   
    43   21   61 1   
    44   21   62 1   
    45   21   63 1   
    46   22   64 1   
    47   22   65 1   
    48   22   66 1   
    49   23   24 1   
    50   23   67 1   
    51   23   68 1   
    52   24   69 1   
    53   24   70 1   
    54   25   26 1   
    55   26   27 2   
    56   26   36 1   
    57   27   28 1   
    58   27   34 1   
    59   28   29 ar  
    60   28   33 ar  
    61   29   30 ar  
    62   29   71 1   
    63   30   31 ar  
    64   30   72 1   
    65   31   32 ar  
    66   31   73 1   
    67   32   33 ar  
    68   32   74 1   
    69   33   75 1   
    70   34   35 2   
    71   35   36 1   
    72   35   76 1   
    73   36   37 1   
    74   37   38 1   
    75   37   77 1   
    76   37   78 1   
    77   38   39 ar  
    78   38   44 ar  
    79   39   40 ar  
    80   39   79 1   
    81   40   41 ar  
    82   40   80 1   
    83   41   42 1   
    84   41   43 ar  
    85   43   44 ar  
    86   43   81 1   
    87   44   82 1   
@<TRIPOS>SUBSTRUCTURE
     1 WW8         1 TEMP              0 ****  ****    0 ROOT
