@<TRIPOS>MOLECULE
WW8
   84    89     1     0     0
SMALL
bcc


@<TRIPOS>ATOM
      1 C1          0.5810   -0.4190    0.3660 ca        1 WW8     -0.156000
      2 C2          1.7980    0.0470    0.8510 ca        1 WW8      0.074400
      3 CL3         3.1520    0.0280   -0.1630 cl        1 WW8     -0.038400
      4 C4          1.9420    0.5340    2.1730 ca        1 WW8     -0.142000
      5 C5          0.8670    0.5650    3.0400 ca        1 WW8     -0.044000
      6 C6         -0.3790    0.1060    2.5920 ca        1 WW8     -0.129800
      7 C7         -0.5140   -0.3890    1.2460 ca        1 WW8     -0.003200
      8 N8         -1.8520   -0.7370    1.0230 na        1 WW8     -0.166400
      9 C9         -2.5520   -0.5530    2.2470 cc        1 WW8     -0.178300
     10 C10        -3.9760   -0.8400    2.3710 c         1 WW8      0.693300
     11 O11        -4.7020   -0.4200    3.3020 o         1 WW8     -0.660100
     12 N12        -4.5790   -1.6960    1.3810 n         1 WW8     -0.418800
     13 C13        -5.8660   -2.2670    1.7530 c3        1 WW8      0.029000
     14 C14        -6.9740   -1.3770    1.1010 c3        1 WW8      0.090500
     15 N15        -7.4040   -0.2300    1.9950 n4        1 WW8     -0.677400
     16 C16        -7.8910   -0.7260    3.3250 c3        1 WW8      0.109800
     17 C17        -8.6510    0.3240    4.1360 c3        1 WW8     -0.132400
     18 C18        -8.8960   -0.2220    5.5430 c3        1 WW8      0.106800
     19 N19        -9.4930    0.7910    6.4730 n4        1 WW8     -0.700400
     20 C20       -10.9560    0.9350    6.2540 c3        1 WW8      0.081100
     21 C21        -9.2170    0.4160    7.8880 c3        1 WW8      0.081100
     22 C22        -8.4410    0.5940    1.3230 c3        1 WW8      0.073100
     23 C23        -6.2680   -0.8920   -0.1880 c3        1 WW8     -0.131400
     24 C24        -4.7550   -1.1170    0.0450 c3        1 WW8      0.033000
     25 C25        -1.6770   -0.0240    3.2180 cd        1 WW8      0.112600
     26 C26        -1.8890    0.2620    4.6120 cd        1 WW8     -0.194400
     27 C27        -1.7250   -0.6050    5.7220 cc        1 WW8      0.414800
     28 C28        -1.4850   -2.0390    5.7170 ca        1 WW8     -0.134500
     29 C29        -0.6100   -2.6080    6.6550 ca        1 WW8     -0.106000
     30 C30        -0.3790   -3.9830    6.6490 ca        1 WW8     -0.131500
     31 C31        -1.0170   -4.8000    5.7170 ca        1 WW8     -0.107000
     32 C32        -1.8940   -4.2400    4.7880 ca        1 WW8     -0.131500
     33 C33        -2.1300   -2.8680    4.7880 ca        1 WW8     -0.106000
     34 N34        -1.7900    0.1420    6.9140 nc        1 WW8     -0.648000
     35 C35        -1.9930    1.4160    6.5470 cd        1 WW8      0.413400
     36 N36        -2.0260    1.5680    5.1450 na        1 WW8     -0.203900
     37 C37        -2.6320    2.6870    4.4830 c3        1 WW8      0.076600
     38 C38        -4.0840    2.9180    4.8220 ca        1 WW8     -0.092300
     39 C39        -4.8840    1.8880    5.3330 ca        1 WW8     -0.093500
     40 C40        -6.2030    2.1360    5.6930 ca        1 WW8     -0.136500
     41 C41        -6.7460    3.4080    5.4960 ca        1 WW8     -0.008600
     42 CL42       -8.3850    3.6870    5.9200 cl        1 WW8     -0.121400
     43 C43        -5.9710    4.4420    4.9710 ca        1 WW8     -0.136500
     44 C44        -4.6350    4.1910    4.6430 ca        1 WW8     -0.093500
     45 H1          0.4790   -0.8000   -0.6600 ha        1 WW8      0.165000
     46 H4          2.9320    0.8870    2.5080 ha        1 WW8      0.170000
     47 H5          0.9810    0.9390    4.0700 ha        1 WW8      0.160000
     48 HN8        -2.1000   -1.4540    0.3840 hn        1 WW8      0.299700
     49 H13        -5.9380   -3.2840    1.2670 h1        1 WW8      0.105200
     50 H13A       -5.9620   -2.3990    2.8600 h1        1 WW8      0.105200
     51 H14        -7.8960   -1.9770    0.8710 hx        1 WW8      0.117700
     52 H16        -6.9730   -1.0480    3.9080 hx        1 WW8      0.120200
     53 H16A       -8.5520   -1.6210    3.1440 hx        1 WW8      0.120200
     54 H17        -8.0480    1.2740    4.1930 hc        1 WW8      0.087200
     55 H17A       -9.6330    0.5600    3.6450 hc        1 WW8      0.087200
     56 H18        -9.5890   -1.1110    5.4990 hx        1 WW8      0.113700
     57 H18A       -7.9140   -0.5640    5.9890 hx        1 WW8      0.113700
     58 H20       -11.3500    1.7490    6.9230 hx        1 WW8      0.110700
     59 H20A      -11.1490    1.2060    5.1830 hx        1 WW8      0.110700
     60 H20B      -11.4770   -0.0290    6.5020 hx        1 WW8      0.110700
     61 H21        -9.6320   -0.6050    8.1000 hx        1 WW8      0.110700
     62 H21A       -9.7050    1.1670    8.5680 hx        1 WW8      0.110700
     63 H21B       -8.1070    0.4200    8.0660 hx        1 WW8      0.110700
     64 H22        -9.4110    0.0290    1.2980 hx        1 WW8      0.105367
     65 H22A       -8.5710    1.5610    1.8780 hx        1 WW8      0.105367
     66 H22B       -8.1350    0.8290    0.2680 hx        1 WW8      0.105367
     67 H23        -6.4580    0.1750   -0.4530 hc        1 WW8      0.094200
     68 H23A       -6.6250   -1.5220   -1.0430 hc        1 WW8      0.094200
     69 H24        -4.3590   -1.8600   -0.7030 h1        1 WW8      0.095200
     70 H24A       -4.1920   -0.1540   -0.0800 h1        1 WW8      0.095200
     71 H29        -0.1030   -1.9700    7.3960 ha        1 WW8      0.132500
     72 H30         0.3140   -4.4220    7.3840 ha        1 WW8      0.139500
     73 H31        -0.8280   -5.8850    5.7130 ha        1 WW8      0.146000
     74 H32        -2.3960   -4.8840    4.0510 ha        1 WW8      0.139500
     75 H33        -2.8190   -2.4260    4.0530 ha        1 WW8      0.132500
     76 H35        -2.0690    2.2720    7.2300 h5        1 WW8      0.076100
     77 H37        -2.0450    3.6120    4.7650 h1        1 WW8      0.090700
     78 H37A       -2.5400    2.5380    3.3670 h1        1 WW8      0.090700
     79 H39        -4.4800    0.8660    5.4520 ha        1 WW8      0.173000
     80 H40        -6.7860    1.3350    6.1680 ha        1 WW8      0.138000
     81 H43        -6.3930    5.4510    4.8320 ha        1 WW8      0.138000
     82 H44        -4.0130    5.0140    4.2530 ha        1 WW8      0.173000
     83 H151       -6.5630    0.3470    2.1750 hn        1 WW8      0.470800
     84 H191       -9.0390    1.7240    6.2890 hn        1 WW8      0.471800
@<TRIPOS>BOND
     1    1    2 ar  
     2    1    7 ar  
     3    1   45 1   
     4    2    3 1   
     5    2    4 ar  
     6    4    5 ar  
     7    4   46 1   
     8    5    6 ar  
     9    5   47 1   
    10    6    7 ar  
    11    6   25 1   
    12    7    8 1   
    13    8    9 1   
    14    8   48 1   
    15    9   10 1   
    16    9   25 2   
    17   10   11 2   
    18   10   12 1   
    19   12   13 1   
    20   12   24 1   
    21   13   14 1   
    22   13   49 1   
    23   13   50 1   
    24   14   15 1   
    25   14   23 1   
    26   14   51 1   
    27   15   16 1   
    28   15   22 1   
    29   15   83 1   
    30   16   17 1   
    31   16   52 1   
    32   16   53 1   
    33   17   18 1   
    34   17   54 1   
    35   17   55 1   
    36   18   19 1   
    37   18   56 1   
    38   18   57 1   
    39   19   20 1   
    40   19   21 1   
    41   19   84 1   
    42   20   58 1   
    43   20   59 1   
    44   20   60 1   
    45   21   61 1   
    46   21   62 1   
    47   21   63 1   
    48   22   64 1   
    49   22   65 1   
    50   22   66 1   
    51   23   24 1   
    52   23   67 1   
    53   23   68 1   
    54   24   69 1   
    55   24   70 1   
    56   25   26 1   
    57   26   27 2   
    58   26   36 1   
    59   27   28 1   
    60   27   34 1   
    61   28   29 ar  
    62   28   33 ar  
    63   29   30 ar  
    64   29   71 1   
    65   30   31 ar  
    66   30   72 1   
    67   31   32 ar  
    68   31   73 1   
    69   32   33 ar  
    70   32   74 1   
    71   33   75 1   
    72   34   35 2   
    73   35   36 1   
    74   35   76 1   
    75   36   37 1   
    76   37   38 1   
    77   37   77 1   
    78   37   78 1   
    79   38   39 ar  
    80   38   44 ar  
    81   39   40 ar  
    82   39   79 1   
    83   40   41 ar  
    84   40   80 1   
    85   41   42 1   
    86   41   43 ar  
    87   43   44 ar  
    88   43   81 1   
    89   44   82 1   
@<TRIPOS>SUBSTRUCTURE
     1 WW8         1 TEMP              0 ****  ****    0 ROOT
