@<TRIPOS>MOLECULE
WWL
   28    29     1     0     0
SMALL
bcc


@<TRIPOS>ATOM
      1 O12        -0.0900   -0.1060   -0.0350 o         1 WWL     -0.625800
      2 S10         1.3020   -0.0210   -0.0510 sy        1 WWL      1.465600
      3 O11         2.0150   -0.1530    1.1330 o         1 WWL     -0.625800
      4 C7          1.8060   -1.3560   -1.0700 cc        1 WWL     -0.378600
      5 S8          1.1250   -2.0430   -2.3170 ss        1 WWL      0.664200
      6 C5          3.2680   -3.0830   -1.5580 cd        1 WWL     -0.043000
      7 C6          3.0180   -2.0140   -0.7130 cd        1 WWL     -0.085000
      8 C9          2.2340   -3.2390   -2.5530 cc        1 WWL     -0.753600
      9 S2          2.3850   -4.3610   -3.6330 sy        1 WWL      1.557200
     10 O3          3.6510   -4.8690   -3.8120 o         1 WWL     -0.574300
     11 N4          1.6170   -5.8290   -2.6270 n4        1 WWL     -0.783500
     12 O1          1.4790   -4.3020   -4.6690 o         1 WWL     -0.574300
     13 C13         1.8270    1.2420   -0.9630 ca        1 WWL     -0.448500
     14 C18         3.1470    1.7130   -0.8520 ca        1 WWL     -0.009500
     15 C17         3.5770    2.8210   -1.5740 ca        1 WWL     -0.149000
     16 C16         2.6900    3.4870   -2.4210 ca        1 WWL     -0.034000
     17 C15         1.3710    3.0410   -2.5380 ca        1 WWL     -0.149000
     18 C14         0.9470    1.9330   -1.8140 ca        1 WWL     -0.009500
     19 H1          4.1550   -3.7270   -1.5090 ha        1 WWL      0.194000
     20 H2          3.6480   -1.7120    0.1370 ha        1 WWL      0.215000
     21 H3          1.3770   -5.5660   -1.6780 hn        1 WWL      0.453133
     22 H4          2.2790   -6.6010   -2.5800 hn        1 WWL      0.453133
     23 H5          3.8440    1.2050   -0.1610 ha        1 WWL      0.156000
     24 H6          4.6140    3.1780   -1.4680 ha        1 WWL      0.160000
     25 H7          3.0270    4.3690   -2.9910 ha        1 WWL      0.158000
     26 H8          0.6640    3.5740   -3.1940 ha        1 WWL      0.160000
     27 H9         -0.1060    1.6010   -1.8860 ha        1 WWL      0.156000
     28 H43         0.7740   -6.1700   -3.0840 hn        1 WWL      0.453133
@<TRIPOS>BOND
     1    1    2 2   
     2    2    3 2   
     3    2    4 1   
     4    2   13 1   
     5    4    5 1   
     6    4    7 2   
     7    5    8 1   
     8    6    7 1   
     9    6    8 2   
    10    6   19 1   
    11    7   20 1   
    12    8    9 1   
    13    9   10 2   
    14    9   11 1   
    15    9   12 2   
    16   11   21 1   
    17   11   22 1   
    18   11   28 1   
    19   13   14 ar  
    20   13   18 ar  
    21   14   15 ar  
    22   14   23 1   
    23   15   16 ar  
    24   15   24 1   
    25   16   17 ar  
    26   16   25 1   
    27   17   18 ar  
    28   17   26 1   
    29   18   27 1   
@<TRIPOS>SUBSTRUCTURE
     1 WWL         1 TEMP              0 ****  ****    0 ROOT
