@<TRIPOS>MOLECULE
WWL
   28    29     1     0     0
SMALL
bcc


@<TRIPOS>ATOM
      1 O12        -0.1090   -0.1050   -0.0610 o         1 WWL     -0.625800
      2 S10         1.2830   -0.0210   -0.0610 sy        1 WWL      1.465600
      3 O11         1.9830   -0.1540    1.1320 o         1 WWL     -0.625800
      4 C7          1.7980   -1.3560   -1.0740 cc        1 WWL     -0.378600
      5 S8          1.1320   -2.0420   -2.3310 ss        1 WWL      0.664200
      6 C5          3.2640   -3.0840   -1.5450 cd        1 WWL     -0.043000
      7 C6          3.0050   -2.0160   -0.7020 cd        1 WWL     -0.085000
      8 C9          2.2430   -3.2390   -2.5530 cc        1 WWL     -0.753600
      9 S2          2.4070   -4.3600   -3.6320 sy        1 WWL      1.557200
     10 O3          3.6730   -4.8700   -3.7940 o         1 WWL     -0.574300
     11 N4          1.6220   -5.8270   -2.6380 nz        1 WWL     -0.783500
     12 O1          1.5140   -4.2980   -4.6800 o         1 WWL     -0.574300
     13 C13         1.8190    1.2420   -0.9660 ca        1 WWL     -0.448500
     14 C18         3.1370    1.7120   -0.8400 ca        1 WWL     -0.009500
     15 C17         3.5760    2.8200   -1.5570 ca        1 WWL     -0.149000
     16 C16         2.6980    3.4870   -2.4140 ca        1 WWL     -0.034000
     17 C15         1.3810    3.0410   -2.5460 ca        1 WWL     -0.149000
     18 C14         0.9480    1.9330   -1.8270 ca        1 WWL     -0.009500
     19 H1          4.1500   -3.7300   -1.4850 ha        1 WWL      0.194000
     20 H2          3.6240   -1.7150    0.1560 ha        1 WWL      0.215000
     21 H3          0.7860   -6.1670   -3.1070 hn        1 WWL      0.453133
     22 H4          2.2830   -6.6000   -2.5820 hn        1 WWL      0.453133
     23 H5          3.8270    1.2030   -0.1420 ha        1 WWL      0.156000
     24 H6          4.6120    3.1770   -1.4400 ha        1 WWL      0.160000
     25 H7          3.0420    4.3690   -2.9800 ha        1 WWL      0.158000
     26 H8          0.6810    3.5750   -3.2090 ha        1 WWL      0.160000
     27 H9         -0.1040    1.6030   -1.9100 ha        1 WWL      0.156000
     28 H43         1.3700   -5.5650   -1.6920 hn        1 WWL      0.453133
@<TRIPOS>BOND
     1    1    2 2   
     2    2    3 2   
     3    2    4 1   
     4    2   13 1   
     5    4    5 1   
     6    4    7 2   
     7    5    8 1   
     8    6    7 1   
     9    6    8 2   
    10    6   19 1   
    11    7   20 1   
    12    8    9 1   
    13    9   10 2   
    14    9   11 1   
    15    9   12 2   
    16   11   21 1   
    17   11   22 1   
    18   11   28 1   
    19   13   14 ar  
    20   13   18 ar  
    21   14   15 ar  
    22   14   23 1   
    23   15   16 ar  
    24   15   24 1   
    25   16   17 ar  
    26   16   25 1   
    27   17   18 ar  
    28   17   26 1   
    29   18   27 1   
@<TRIPOS>SUBSTRUCTURE
     1 WWL         1 TEMP              0 ****  ****    0 ROOT
