@<TRIPOS>MOLECULE
WWL
   28    29     1     0     0
SMALL
bcc


@<TRIPOS>ATOM
      1 O12        -0.0990   -0.0960   -0.0520 o         1 WWL     -0.625800
      2 S10         1.2930   -0.0180   -0.0570 sy        1 WWL      1.465600
      3 O11         1.9970   -0.1530    1.1330 o         1 WWL     -0.625800
      4 C7          1.8000   -1.3540   -1.0730 cc        1 WWL     -0.378600
      5 S8          1.1260   -2.0370   -2.3270 ss        1 WWL      0.664200
      6 C5          3.2570   -3.0890   -1.5480 cd        1 WWL     -0.043000
      7 C6          3.0050   -2.0190   -0.7050 cd        1 WWL     -0.085000
      8 C9          2.2310   -3.2390   -2.5530 cc        1 WWL     -0.753600
      9 S2          2.3870   -4.3610   -3.6330 sy        1 WWL      1.557200
     10 O3          3.6510   -4.8760   -3.8000 o         1 WWL     -0.574300
     11 N4          1.5990   -5.8250   -2.6370 n4        1 WWL     -0.783500
     12 O1          1.4910   -4.2950   -4.6780 o         1 WWL     -0.574300
     13 C13         1.8310    1.2430   -0.9650 ca        1 WWL     -0.448500
     14 C18         3.1520    1.7080   -0.8440 ca        1 WWL     -0.009500
     15 C17         3.5920    2.8140   -1.5620 ca        1 WWL     -0.149000
     16 C16         2.7140    3.4850   -2.4160 ca        1 WWL     -0.034000
     17 C15         1.3940    3.0440   -2.5430 ca        1 WWL     -0.149000
     18 C14         0.9600    1.9380   -1.8220 ca        1 WWL     -0.009500
     19 H1          4.1390   -3.7390   -1.4920 ha        1 WWL      0.194000
     20 H2          3.6280   -1.7220    0.1510 ha        1 WWL      0.215000
     21 H3          0.7600   -6.1610   -3.1030 hn        1 WWL      0.453133
     22 H4          2.2570   -6.6000   -2.5840 hn        1 WWL      0.453133
     23 H5          3.8410    1.1970   -0.1480 ha        1 WWL      0.156000
     24 H6          4.6300    3.1670   -1.4490 ha        1 WWL      0.160000
     25 H7          3.0580    4.3650   -2.9830 ha        1 WWL      0.158000
     26 H8          0.6940    3.5810   -3.2030 ha        1 WWL      0.160000
     27 H9         -0.0940    1.6110   -1.9010 ha        1 WWL      0.156000
     28 H43         1.3510   -5.5610   -1.6900 hn        1 WWL      0.453133
@<TRIPOS>BOND
     1    1    2 2   
     2    2    3 2   
     3    2    4 1   
     4    2   13 1   
     5    4    5 1   
     6    4    7 2   
     7    5    8 1   
     8    6    7 1   
     9    6    8 2   
    10    6   19 1   
    11    7   20 1   
    12    8    9 1   
    13    9   10 2   
    14    9   11 1   
    15    9   12 2   
    16   11   21 1   
    17   11   22 1   
    18   11   28 1   
    19   13   14 ar  
    20   13   18 ar  
    21   14   15 ar  
    22   14   23 1   
    23   15   16 ar  
    24   15   24 1   
    25   16   17 ar  
    26   16   25 1   
    27   17   18 ar  
    28   17   26 1   
    29   18   27 1   
@<TRIPOS>SUBSTRUCTURE
     1 WWL         1 TEMP              0 ****  ****    0 ROOT
