@<TRIPOS>MOLECULE
WWO
   43    44     1     0     0
SMALL
bcc


@<TRIPOS>ATOM
      1 F27         0.2600   -0.6460    0.1840 f         1 WWO     -0.128900
      2 C5          1.5560   -0.2640    0.0480 ca        1 WWO      0.149900
      3 C4          2.3540   -0.2300    1.2260 ca        1 WWO     -0.506500
      4 S7          1.7000   -0.4370    2.7130 sy        1 WWO      1.474200
      5 O9          0.4770    0.1590    2.8970 o         1 WWO     -0.540300
      6 N10         1.1680   -2.2480    2.4920 n4        1 WWO     -0.791500
      7 O8          2.6140   -0.5600    3.7320 o         1 WWO     -0.540300
      8 C3          3.7200    0.0820    1.0360 ca        1 WWO      0.216900
      9 F12         4.5580    0.1320    2.0870 f         1 WWO     -0.069900
     10 C2          4.2470    0.3530   -0.2640 ca        1 WWO      0.202900
     11 F13         5.5630    0.6250   -0.3410 f         1 WWO     -0.051900
     12 C6          2.0510    0.0510   -1.2460 ca        1 WWO      0.183600
     13 C1          3.4310    0.3250   -1.4030 ca        1 WWO     -0.187500
     14 S11         4.1410    0.5830   -3.0140 sy        1 WWO      1.364300
     15 O22         3.3690    1.5110   -3.7020 o         1 WWO     -0.614800
     16 O23         5.4770    0.8980   -2.7920 o         1 WWO     -0.614800
     17 C21         3.9950   -0.9620   -3.6970 c3        1 WWO     -0.335600
     18 C24         5.1220   -1.9290   -3.3780 c3        1 WWO      0.158400
     19 O25         4.8590   -2.4780   -2.0920 oh        1 WWO     -0.636800
     20 N26         1.2190    0.0100   -2.3880 nh        1 WWO     -0.730600
     21 C14         0.5820    1.2770   -2.7600 c3        1 WWO      0.215100
     22 C15        -0.2110    1.1290   -4.0220 ca        1 WWO     -0.119300
     23 C20        -1.5410    0.7020   -3.9750 ca        1 WWO     -0.111000
     24 C19        -2.2800    0.6010   -5.1530 ca        1 WWO     -0.129500
     25 C18        -1.6910    0.9220   -6.3770 ca        1 WWO     -0.106000
     26 C17        -0.3620    1.3440   -6.4230 ca        1 WWO     -0.129500
     27 C16         0.3820    1.4460   -5.2480 ca        1 WWO     -0.111000
     28 H1          1.6320   -2.8470    3.1750 hn        1 WWO      0.463800
     29 H2          0.1600   -2.3370    2.6310 hn        1 WWO      0.463800
     30 H3          3.0300   -1.4780   -3.4420 h1        1 WWO      0.146700
     31 H4          3.9610   -0.8560   -4.8220 h1        1 WWO      0.146700
     32 H5          5.1480   -2.7510   -4.1430 h1        1 WWO      0.063200
     33 H6          6.1140   -1.3970   -3.3690 h1        1 WWO      0.063200
     34 H7          5.5560   -3.1230   -1.9230 ho        1 WWO      0.425000
     35 H8          0.5300   -0.7200   -2.3100 hn        1 WWO      0.398800
     36 H9          1.3890    2.0520   -2.9100 h1        1 WWO      0.070200
     37 H10        -0.0990    1.6330   -1.9310 h1        1 WWO      0.070200
     38 H11        -2.0110    0.4610   -3.0110 ha        1 WWO      0.141500
     39 H12        -3.3300    0.2730   -5.1170 ha        1 WWO      0.142500
     40 H13        -2.2770    0.8460   -7.3050 ha        1 WWO      0.144000
     41 H14         0.1000    1.6020   -7.3880 ha        1 WWO      0.142500
     42 H15         1.4330    1.7810   -5.2740 ha        1 WWO      0.141500
     43 H103        1.3800   -2.6080    1.5650 hn        1 WWO      0.463800
@<TRIPOS>BOND
     1    1    2 1   
     2    2    3 ar  
     3    2   12 ar  
     4    3    4 1   
     5    3    8 ar  
     6    4    5 2   
     7    4    6 1   
     8    4    7 2   
     9    6   28 1   
    10    6   29 1   
    11    6   43 1   
    12    8    9 1   
    13    8   10 ar  
    14   10   11 1   
    15   10   13 ar  
    16   12   13 ar  
    17   12   20 1   
    18   13   14 1   
    19   14   15 2   
    20   14   16 2   
    21   14   17 1   
    22   17   18 1   
    23   17   30 1   
    24   17   31 1   
    25   18   19 1   
    26   18   32 1   
    27   18   33 1   
    28   19   34 1   
    29   20   21 1   
    30   20   35 1   
    31   21   22 1   
    32   21   36 1   
    33   21   37 1   
    34   22   23 ar  
    35   22   27 ar  
    36   23   24 ar  
    37   23   38 1   
    38   24   25 ar  
    39   24   39 1   
    40   25   26 ar  
    41   25   40 1   
    42   26   27 ar  
    43   26   41 1   
    44   27   42 1   
@<TRIPOS>SUBSTRUCTURE
     1 WWO         1 TEMP              0 ****  ****    0 ROOT
