@<TRIPOS>MOLECULE
WWO
   43    44     1     0     0
SMALL
bcc


@<TRIPOS>ATOM
      1 F27         0.2630   -0.6100    0.1940 f         1 WWO     -0.128900
      2 C5          1.5660   -0.2590    0.0500 ca        1 WWO      0.149900
      3 C4          2.3730   -0.2470    1.2230 ca        1 WWO     -0.506500
      4 S7          1.7240   -0.4400    2.7140 sy        1 WWO      1.474200
      5 O9          0.5170    0.1850    2.9070 o         1 WWO     -0.540300
      6 N10         1.1460   -2.2370    2.4940 nz        1 WWO     -0.791500
      7 O8          2.6400   -0.5870    3.7260 o         1 WWO     -0.540300
      8 C3          3.7440    0.0330    1.0240 ca        1 WWO      0.216900
      9 F12         4.5900    0.0600    2.0710 f         1 WWO     -0.069900
     10 C2          4.2700    0.2930   -0.2790 ca        1 WWO      0.202900
     11 F13         5.5910    0.5320   -0.3640 f         1 WWO     -0.051900
     12 C6          2.0610    0.0450   -1.2470 ca        1 WWO      0.183600
     13 C1          3.4460    0.2860   -1.4120 ca        1 WWO     -0.187500
     14 S11         4.1510    0.5290   -3.0270 sy        1 WWO      1.364300
     15 O22         3.3990    1.4760   -3.7090 o         1 WWO     -0.614800
     16 O23         5.4970    0.8100   -2.8140 o         1 WWO     -0.614800
     17 C21         3.9640   -1.0110   -3.7120 c3        1 WWO     -0.335600
     18 C24         5.0690   -2.0060   -3.4010 c3        1 WWO      0.158400
     19 O25         4.8010   -2.5490   -2.1140 oh        1 WWO     -0.636800
     20 N26         1.2210    0.0260   -2.3830 nu        1 WWO     -0.730600
     21 C14         0.6120    1.3090   -2.7500 c3        1 WWO      0.215100
     22 C15        -0.1910    1.1820   -4.0070 ca        1 WWO     -0.119300
     23 C20        -1.5320    0.7880   -3.9530 ca        1 WWO     -0.111000
     24 C19        -2.2800    0.7070   -5.1260 ca        1 WWO     -0.129500
     25 C18        -1.6910    1.0150   -6.3530 ca        1 WWO     -0.106000
     26 C17        -0.3520    1.4050   -6.4070 ca        1 WWO     -0.129500
     27 C16         0.4010    1.4860   -5.2360 ca        1 WWO     -0.111000
     28 H1          1.3430   -2.6010    1.5650 hn        1 WWO      0.463800
     29 H2          0.1370   -2.3020    2.6390 hn        1 WWO      0.463800
     30 H3          2.9880   -1.5040   -3.4500 h1        1 WWO      0.146700
     31 H4          3.9240   -0.9030   -4.8350 h1        1 WWO      0.146700
     32 H5          6.0740   -1.4980   -3.3990 h1        1 WWO      0.063200
     33 H6          5.0690   -2.8280   -4.1670 h1        1 WWO      0.063200
     34 H7          5.4850   -3.2110   -1.9500 ho        1 WWO      0.425000
     35 H8          0.5150   -0.6860   -2.3020 hn        1 WWO      0.398800
     36 H9         -0.0540    1.6800   -1.9160 h1        1 WWO      0.070200
     37 H10         1.4370    2.0650   -2.9040 h1        1 WWO      0.070200
     38 H11        -2.0020    0.5570   -2.9860 ha        1 WWO      0.141500
     39 H12        -3.3370    0.4050   -5.0840 ha        1 WWO      0.142500
     40 H13        -2.2840    0.9550   -7.2780 ha        1 WWO      0.144000
     41 H14         0.1110    1.6530   -7.3750 ha        1 WWO      0.142500
     42 H15         1.4600    1.7960   -5.2690 ha        1 WWO      0.141500
     43 H103        1.5990   -2.8490    3.1730 hn        1 WWO      0.463800
@<TRIPOS>BOND
     1    1    2 1   
     2    2    3 ar  
     3    2   12 ar  
     4    3    4 1   
     5    3    8 ar  
     6    4    5 2   
     7    4    6 1   
     8    4    7 2   
     9    6   28 1   
    10    6   29 1   
    11    6   43 1   
    12    8    9 1   
    13    8   10 ar  
    14   10   11 1   
    15   10   13 ar  
    16   12   13 ar  
    17   12   20 1   
    18   13   14 1   
    19   14   15 2   
    20   14   16 2   
    21   14   17 1   
    22   17   18 1   
    23   17   30 1   
    24   17   31 1   
    25   18   19 1   
    26   18   32 1   
    27   18   33 1   
    28   19   34 1   
    29   20   21 1   
    30   20   35 1   
    31   21   22 1   
    32   21   36 1   
    33   21   37 1   
    34   22   23 ar  
    35   22   27 ar  
    36   23   24 ar  
    37   23   38 1   
    38   24   25 ar  
    39   24   39 1   
    40   25   26 ar  
    41   25   40 1   
    42   26   27 ar  
    43   26   41 1   
    44   27   42 1   
@<TRIPOS>SUBSTRUCTURE
     1 WWO         1 TEMP              0 ****  ****    0 ROOT
