@<TRIPOS>MOLECULE
WWV
   45    46     1     0     0
SMALL
bcc


@<TRIPOS>ATOM
      1 C1          0.2970   -0.3520    0.3470 ca        1 WWV     -0.407500
      2 N1         -0.3100   -1.8310   -1.8770 n4        1 WWV     -0.811500
      3 O1         -1.9710   -1.3670   -0.0320 o         1 WWV     -0.511300
      4 S1         -1.0190   -0.6070   -0.6620 sy        1 WWV      1.443200
      5 C2          1.1720    0.7240    0.1220 ca        1 WWV      0.030500
      6 O2         -1.2300    0.4850   -1.4660 o         1 WWV     -0.511300
      7 C3          2.1500    1.0770    1.0550 ca        1 WWV     -0.106000
      8 C4          2.2570    0.3340    2.2430 ca        1 WWV      0.029600
      9 C5          1.4140   -0.7660    2.4810 ca        1 WWV     -0.106000
     10 C6          0.4450   -1.0940    1.5290 ca        1 WWV      0.030500
     11 N7          3.2800    0.7010    3.2450 n4        1 WWV     -0.517200
     12 C8          2.7550    1.6630    4.2840 c         1 WWV      0.472100
     13 O8          1.5800    1.9780    4.3140 o         1 WWV     -0.282100
     14 N9          3.7370    2.2100    5.2770 n4        1 WWV     -0.481200
     15 C10         5.1340    1.8720    5.0160 ca        1 WWV     -0.183400
     16 C11         5.7050    0.7080    5.5930 ca        1 WWV     -0.035300
     17 C12         7.0860    0.5290    5.4520 ca        1 WWV     -0.103000
     18 C13         7.8770    1.4590    4.7760 ca        1 WWV     -0.010000
     19 C14         7.2940    2.5960    4.2010 ca        1 WWV     -0.091000
     20 C15         5.9280    2.8130    4.3190 ca        1 WWV     -0.106000
     21 C16         4.8830   -0.2800    6.3670 c3        1 WWV     -0.034400
     22 C17         5.4520   -1.6880    6.3140 c3        1 WWV     -0.109100
     23 C18         4.7440    0.1580    7.8170 c3        1 WWV     -0.109100
     24 HN1        -0.8590   -2.7000   -1.8740 hn        1 WWV      0.481800
     25 H2          1.0740    1.3420   -0.7980 ha        1 WWV      0.215000
     26 H12         7.5680   -0.3580    5.9090 ha        1 WWV      0.203000
     27 H3          2.8060    1.9390    0.8330 ha        1 WWV      0.193500
     28 H13         8.9730    1.3050    4.7060 ha        1 WWV      0.210000
     29 H14         7.9260    3.3370    3.6740 ha        1 WWV      0.207000
     30 H5          1.4800   -1.3750    3.4010 ha        1 WWV      0.193500
     31 H15         5.4960    3.7410    3.9040 ha        1 WWV      0.169000
     32 H6         -0.2400   -1.9440    1.7460 ha        1 WWV      0.215000
     33 H16         3.8510   -0.3290    5.9030 hc        1 WWV     -0.026300
     34 HN7         3.6110   -0.1560    3.7300 hn        1 WWV      0.505800
     35 H17         5.7310   -1.9700    5.2710 hc        1 WWV      0.071200
     36 H17A        4.6910   -2.4130    6.6960 hc        1 WWV      0.071200
     37 H17B        6.3560   -1.7810    6.9670 hc        1 WWV      0.071200
     38 H18         4.1220   -0.5840    8.3780 hc        1 WWV      0.071200
     39 H18A        4.2660    1.1630    7.9040 hc        1 WWV      0.071200
     40 H18B        5.7470    0.2060    8.3100 hc        1 WWV      0.071200
     41 HN9         3.4670    1.8480    6.2210 hn        1 WWV      0.523800
     42 HN1A        0.6600   -2.0930   -1.7150 hn        1 WWV      0.481800
     43 H131       -0.3630   -1.4600   -2.8340 hn        1 WWV      0.481800
     44 H72         4.0920    1.1330    2.7650 hn        1 WWV      0.505800
     45 H92         3.6250    3.2460    5.2850 hn        1 WWV      0.523800
@<TRIPOS>BOND
     1    1    4 1   
     2    1    5 ar  
     3    1   10 ar  
     4    2    4 1   
     5    2   24 1   
     6    2   42 1   
     7    2   43 1   
     8    3    4 2   
     9    4    6 2   
    10    5    7 ar  
    11    5   25 1   
    12    7    8 ar  
    13    7   27 1   
    14    8    9 ar  
    15    8   11 1   
    16    9   10 ar  
    17    9   30 1   
    18   10   32 1   
    19   11   12 1   
    20   11   34 1   
    21   11   44 1   
    22   12   13 2   
    23   12   14 1   
    24   14   15 1   
    25   14   41 1   
    26   14   45 1   
    27   15   16 ar  
    28   15   20 ar  
    29   16   17 ar  
    30   16   21 1   
    31   17   18 ar  
    32   17   26 1   
    33   18   19 ar  
    34   18   28 1   
    35   19   20 ar  
    36   19   29 1   
    37   20   31 1   
    38   21   22 1   
    39   21   23 1   
    40   21   33 1   
    41   22   35 1   
    42   22   36 1   
    43   22   37 1   
    44   23   38 1   
    45   23   39 1   
    46   23   40 1   
@<TRIPOS>SUBSTRUCTURE
     1 WWV         1 TEMP              0 ****  ****    0 ROOT
