@<TRIPOS>MOLECULE
WWV
   42    43     1     0     0
SMALL
bcc


@<TRIPOS>ATOM
      1 C1         -3.9950    0.4070   -0.1410 ca        1 WWV     -0.426500
      2 N1         -5.9830    0.8610    1.4370 n3        1 WWV     -1.026700
      3 O1         -6.2470    1.1340   -0.9910 o         1 WWV     -0.661800
      4 S1         -5.6680    0.2810   -0.0250 sy        1 WWV      1.533200
      5 C2         -3.1580   -0.6170    0.3160 ca        1 WWV      0.013000
      6 O2         -6.0220   -1.0850   -0.0600 o         1 WWV     -0.661800
      7 C3         -1.7750   -0.5390    0.2140 ca        1 WWV     -0.205000
      8 C4         -1.1740    0.5980   -0.3720 ca        1 WWV      0.146600
      9 C5         -2.0210    1.6340   -0.8520 ca        1 WWV     -0.205000
     10 C6         -3.3960    1.5270   -0.7310 ca        1 WWV      0.013000
     11 N7          0.2070    0.7830   -0.4800 n         1 WWV     -0.477100
     12 C8          1.1940   -0.2130   -0.2880 c         1 WWV      0.778100
     13 O8          0.9030   -1.3620    0.1050 o         1 WWV     -0.599100
     14 N9          2.5200    0.1530   -0.5990 n         1 WWV     -0.465100
     15 C10         3.6240   -0.6560   -0.2440 ca        1 WWV      0.053600
     16 C11         4.8140   -0.0720    0.2680 ca        1 WWV     -0.108300
     17 C12         5.9200   -0.8980    0.4940 ca        1 WWV     -0.111000
     18 C13         5.8650   -2.2690    0.2650 ca        1 WWV     -0.141000
     19 C14         4.6860   -2.8440   -0.2050 ca        1 WWV     -0.115000
     20 C15         3.5750   -2.0500   -0.4630 ca        1 WWV     -0.123000
     21 C16         4.9110    1.3960    0.5550 c3        1 WWV     -0.023400
     22 C17         5.8900    1.7130    1.6720 c3        1 WWV     -0.091600
     23 C18         5.2940    2.1660   -0.6960 c3        1 WWV     -0.091600
     24 HN1        -6.1740    1.8140    1.6190 hn        1 WWV      0.445800
     25 H2         -3.6110   -1.5250    0.7560 ha        1 WWV      0.154500
     26 H12         6.8580   -0.4580    0.8670 ha        1 WWV      0.135000
     27 H3         -1.1620   -1.3750    0.5900 ha        1 WWV      0.160000
     28 H13         6.7480   -2.8950    0.4580 ha        1 WWV      0.135000
     29 H14         4.6290   -3.9290   -0.3790 ha        1 WWV      0.138000
     30 H5         -1.5940    2.5310   -1.3280 ha        1 WWV      0.160000
     31 H15         2.6460   -2.5180   -0.8290 ha        1 WWV      0.163000
     32 H6         -4.0400    2.3340   -1.1270 ha        1 WWV      0.154500
     33 H16         3.9060    1.7670    0.9130 hc        1 WWV      0.040700
     34 HN7         0.4820    1.6360   -0.9180 hn        1 WWV      0.316500
     35 H17         5.7310    1.0280    2.5380 hc        1 WWV      0.038867
     36 H17A        6.9460    1.6130    1.3230 hc        1 WWV      0.038867
     37 H17B        5.7390    2.7650    2.0150 hc        1 WWV      0.038867
     38 H18         6.3020    1.8450   -1.0550 hc        1 WWV      0.038867
     39 H18A        4.5600    1.9900   -1.5180 hc        1 WWV      0.038867
     40 H18B        5.3290    3.2600   -0.4750 hc        1 WWV      0.038867
     41 HN9         2.7290    1.1220   -0.7100 hn        1 WWV      0.312500
     42 HN1A       -6.0310    0.3000    2.2490 hn        1 WWV      0.445800
@<TRIPOS>BOND
     1    1    4 1   
     2    1    5 ar  
     3    1   10 ar  
     4    2    4 1   
     5    2   24 1   
     6    2   42 1   
     7    3    4 2   
     8    4    6 2   
     9    5    7 ar  
    10    5   25 1   
    11    7    8 ar  
    12    7   27 1   
    13    8    9 ar  
    14    8   11 1   
    15    9   10 ar  
    16    9   30 1   
    17   10   32 1   
    18   11   12 1   
    19   11   34 1   
    20   12   13 2   
    21   12   14 1   
    22   14   15 1   
    23   14   41 1   
    24   15   16 ar  
    25   15   20 ar  
    26   16   17 ar  
    27   16   21 1   
    28   17   18 ar  
    29   17   26 1   
    30   18   19 ar  
    31   18   28 1   
    32   19   20 ar  
    33   19   29 1   
    34   20   31 1   
    35   21   22 1   
    36   21   23 1   
    37   21   33 1   
    38   22   35 1   
    39   22   36 1   
    40   22   37 1   
    41   23   38 1   
    42   23   39 1   
    43   23   40 1   
@<TRIPOS>SUBSTRUCTURE
     1 WWV         1 TEMP              0 ****  ****    0 ROOT
