@<TRIPOS>MOLECULE
WWV
   43    44     1     0     0
SMALL
bcc


@<TRIPOS>ATOM
      1 C1         -0.4580   -0.0650    0.1620 ca        1 WWV     -0.653500
      2 N1         -0.7400   -1.4420   -2.1080 nz        1 WWV     -0.780500
      3 O1         -2.7310   -0.6870   -0.6840 o         1 WWV     -0.579800
      4 S1         -1.5380   -0.0570   -0.9750 sy        1 WWV      1.516200
      5 C2          0.6900    0.7730    0.1080 ca        1 WWV      0.050500
      6 O2         -1.4830    0.9930   -1.8670 o         1 WWV     -0.579800
      7 C3          1.6200    0.8210    1.1130 ca        1 WWV     -0.219000
      8 C4          1.4640    0.0210    2.2890 ca        1 WWV      0.244600
      9 C5          0.2960   -0.8120    2.3650 ca        1 WWV     -0.219000
     10 C6         -0.6130   -0.8440    1.3400 ca        1 WWV      0.050500
     11 N7          2.3430    0.0200    3.3360 ns        1 WWV     -0.456100
     12 C8          3.6180    0.6980    3.3610 c         1 WWV      0.777100
     13 O8          4.1380    1.0500    2.2840 o         1 WWV     -0.577100
     14 N9          4.1630    0.9520    4.6130 ns        1 WWV     -0.441100
     15 C10         5.5070    1.3800    4.7810 ca        1 WWV      0.023600
     16 C11         6.3010    0.8380    5.8260 ca        1 WWV     -0.088300
     17 C12         7.5850    1.3580    6.0200 ca        1 WWV     -0.109000
     18 C13         8.0980    2.3590    5.1990 ca        1 WWV     -0.118000
     19 C14         7.3240    2.8660    4.1580 ca        1 WWV     -0.113000
     20 C15         6.0350    2.3870    3.9480 ca        1 WWV     -0.117000
     21 C16         5.7920   -0.2500    6.7230 c3        1 WWV     -0.024400
     22 C17         6.9030   -1.1360    7.2570 c3        1 WWV     -0.094100
     23 C18         5.0010    0.3350    7.8800 c3        1 WWV     -0.094100
     24 HN1         0.1240   -1.7990   -1.7190 hn        1 WWV      0.447133
     25 H2          0.8240    1.4250   -0.7770 ha        1 WWV      0.165500
     26 H12         8.2100    0.9680    6.8390 ha        1 WWV      0.147000
     27 H3          2.4960    1.4900    1.0100 ha        1 WWV      0.186500
     28 H13         9.1140    2.7450    5.3730 ha        1 WWV      0.148000
     29 H14         7.7250    3.6520    3.4990 ha        1 WWV      0.147000
     30 H5          0.1210   -1.4330    3.2600 ha        1 WWV      0.186500
     31 H15         5.4350    2.7940    3.1170 ha        1 WWV      0.156000
     32 H6         -1.5100   -1.4880    1.4330 ha        1 WWV      0.165500
     33 H16         5.1130   -0.9290    6.1280 hc        1 WWV      0.030700
     34 HN7         2.0830   -0.5180    4.1380 hn        1 WWV      0.335500
     35 H17         7.4860   -0.6160    8.0550 hc        1 WWV      0.043533
     36 H17A        6.4620   -2.0620    7.7020 hc        1 WWV      0.043533
     37 H17B        7.6000   -1.4310    6.4370 hc        1 WWV      0.043533
     38 H18         4.6070   -0.4870    8.5260 hc        1 WWV      0.043533
     39 H18A        4.1420    0.9470    7.5160 hc        1 WWV      0.043533
     40 H18B        5.6550    0.9910    8.5040 hc        1 WWV      0.043533
     41 HN9         3.7290    0.5780    5.4290 hn        1 WWV      0.329500
     42 HN1A       -0.5420   -1.0650   -3.0310 hn        1 WWV      0.447133
     43 H131       -1.3850   -2.2190   -2.2180 hn        1 WWV      0.447133
@<TRIPOS>BOND
     1    1    4 1   
     2    1    5 ar  
     3    1   10 ar  
     4    2    4 1   
     5    2   24 1   
     6    2   42 1   
     7    2   43 1   
     8    3    4 2   
     9    4    6 2   
    10    5    7 ar  
    11    5   25 1   
    12    7    8 ar  
    13    7   27 1   
    14    8    9 ar  
    15    8   11 1   
    16    9   10 ar  
    17    9   30 1   
    18   10   32 1   
    19   11   12 1   
    20   11   34 1   
    21   12   13 2   
    22   12   14 1   
    23   14   15 1   
    24   14   41 1   
    25   15   16 ar  
    26   15   20 ar  
    27   16   17 ar  
    28   16   21 1   
    29   17   18 ar  
    30   17   26 1   
    31   18   19 ar  
    32   18   28 1   
    33   19   20 ar  
    34   19   29 1   
    35   20   31 1   
    36   21   22 1   
    37   21   23 1   
    38   21   33 1   
    39   22   35 1   
    40   22   36 1   
    41   22   37 1   
    42   23   38 1   
    43   23   39 1   
    44   23   40 1   
@<TRIPOS>SUBSTRUCTURE
     1 WWV         1 TEMP              0 ****  ****    0 ROOT
