@<TRIPOS>MOLECULE
WWV
   43    44     1     0     0
SMALL
bcc


@<TRIPOS>ATOM
      1 C1         -0.4680   -0.0590    0.1740 ca        1 WWV     -0.653500
      2 N1         -0.7460   -1.4030   -2.1170 n4        1 WWV     -0.780500
      3 O1         -2.7380   -0.6930   -0.6720 o         1 WWV     -0.579800
      4 S1         -1.5540   -0.0450   -0.9580 sy        1 WWV      1.516200
      5 C2          0.6700    0.7920    0.1270 ca        1 WWV      0.050500
      6 O2         -1.5140    1.0190   -1.8340 o         1 WWV     -0.579800
      7 C3          1.6050    0.8340    1.1290 ca        1 WWV     -0.219000
      8 C4          1.4630    0.0140    2.2920 ca        1 WWV      0.244600
      9 C5          0.3050   -0.8330    2.3610 ca        1 WWV     -0.219000
     10 C6         -0.6080   -0.8590    1.3400 ca        1 WWV      0.050500
     11 N7          2.3470    0.0060    3.3360 n         1 WWV     -0.456100
     12 C8          3.6150    0.6980    3.3640 c         1 WWV      0.777100
     13 O8          4.1260    1.0690    2.2900 o         1 WWV     -0.577100
     14 N9          4.1620    0.9410    4.6170 n         1 WWV     -0.441100
     15 C10         5.5020    1.3810    4.7860 ca        1 WWV      0.023600
     16 C11         6.3050    0.8340    5.8220 ca        1 WWV     -0.088300
     17 C12         7.5840    1.3650    6.0180 ca        1 WWV     -0.109000
     18 C13         8.0840    2.3810    5.2070 ca        1 WWV     -0.118000
     19 C14         7.3010    2.8940    4.1760 ca        1 WWV     -0.113000
     20 C15         6.0160    2.4040    3.9640 ca        1 WWV     -0.117000
     21 C16         5.8110   -0.2700    6.7070 c3        1 WWV     -0.024400
     22 C17         6.9330   -1.1520    7.2260 c3        1 WWV     -0.094100
     23 C18         5.0180    0.2910    7.8740 c3        1 WWV     -0.094100
     24 HN1         0.1240   -1.7560   -1.7370 hn        1 WWV      0.447133
     25 H2          0.7940    1.4600   -0.7480 ha        1 WWV      0.165500
     26 H12         8.2170    0.9720    6.8300 ha        1 WWV      0.147000
     27 H3          2.4730    1.5140    1.0320 ha        1 WWV      0.186500
     28 H13         9.0960    2.7760    5.3830 ha        1 WWV      0.148000
     29 H14         7.6920    3.6920    3.5260 ha        1 WWV      0.147000
     30 H5          0.1410   -1.4700    3.2470 ha        1 WWV      0.186500
     31 H15         5.4090    2.8140    3.1410 ha        1 WWV      0.156000
     32 H6         -1.4980   -1.5140    1.4270 ha        1 WWV      0.165500
     33 H16         5.1370   -0.9490    6.1060 hc        1 WWV      0.030700
     34 HN7         2.0970   -0.5470    4.1300 hn        1 WWV      0.335500
     35 H17         6.5030   -2.0870    7.6610 hc        1 WWV      0.043533
     36 H17A        7.5130   -0.6350    8.0290 hc        1 WWV      0.043533
     37 H17B        7.6300   -1.4290    6.4000 hc        1 WWV      0.043533
     38 H18         5.6670    0.9470    8.5040 hc        1 WWV      0.043533
     39 H18A        4.1510    0.8990    7.5210 hc        1 WWV      0.043533
     40 H18B        4.6350   -0.5430    8.5110 hc        1 WWV      0.043533
     41 HN9         3.7350    0.5520    5.4300 hn        1 WWV      0.329500
     42 HN1A       -0.5560   -1.0100   -3.0350 hn        1 WWV      0.447133
     43 H131       -1.3830   -2.1850   -2.2370 hn        1 WWV      0.447133
@<TRIPOS>BOND
     1    1    4 1   
     2    1    5 ar  
     3    1   10 ar  
     4    2    4 1   
     5    2   24 1   
     6    2   42 1   
     7    2   43 1   
     8    3    4 2   
     9    4    6 2   
    10    5    7 ar  
    11    5   25 1   
    12    7    8 ar  
    13    7   27 1   
    14    8    9 ar  
    15    8   11 1   
    16    9   10 ar  
    17    9   30 1   
    18   10   32 1   
    19   11   12 1   
    20   11   34 1   
    21   12   13 2   
    22   12   14 1   
    23   14   15 1   
    24   14   41 1   
    25   15   16 ar  
    26   15   20 ar  
    27   16   17 ar  
    28   16   21 1   
    29   17   18 ar  
    30   17   26 1   
    31   18   19 ar  
    32   18   28 1   
    33   19   20 ar  
    34   19   29 1   
    35   20   31 1   
    36   21   22 1   
    37   21   23 1   
    38   21   33 1   
    39   22   35 1   
    40   22   36 1   
    41   22   37 1   
    42   23   38 1   
    43   23   39 1   
    44   23   40 1   
@<TRIPOS>SUBSTRUCTURE
     1 WWV         1 TEMP              0 ****  ****    0 ROOT
