@<TRIPOS>MOLECULE
WWX
   57    59     1     0     0
SMALL
bcc


@<TRIPOS>ATOM
      1 O16         0.0010    0.2720    0.7700 o         1 WWX     -0.622300
      2 S14         1.3910    0.2430    0.7600 sy        1 WWX      1.366300
      3 O15         2.0380    0.3530    1.9870 o         1 WWX     -0.622300
      4 C18         1.0530   -1.6270   -1.1910 c3        1 WWX      0.159400
      5 O20         1.2500   -0.8000   -2.3300 oh        1 WWX     -0.631800
      6 C17         1.9660   -1.1050   -0.0930 c3        1 WWX     -0.336600
      7 C8          1.9100    1.5650   -0.2960 ca        1 WWX     -0.222500
      8 C7          0.9330    2.3070   -0.9990 ca        1 WWX      0.217900
      9 F12        -0.3800    2.1600   -0.7370 f         1 WWX     -0.056900
     10 C6          1.3000    3.2340   -1.9990 ca        1 WWX      0.133900
     11 F11         0.3360    3.9640   -2.6080 f         1 WWX     -0.113900
     12 C9          3.2680    1.8510   -0.5260 ca        1 WWX      0.205600
     13 C10         3.6180    2.7220   -1.6220 ca        1 WWX      0.217900
     14 F13         4.9200    2.8590   -1.9480 f         1 WWX     -0.084900
     15 C5          2.6550    3.4150   -2.3910 ca        1 WWX     -0.499500
     16 S1          3.0430    4.3090   -3.7060 sy        1 WWX      1.474200
     17 O3          2.2240    4.1350   -4.7940 o         1 WWX     -0.542300
     18 N4          2.4090    5.9790   -3.0620 n4        1 WWX     -0.791500
     19 O2          4.3840    4.5770   -3.8480 o         1 WWX     -0.542300
     20 N19         4.2660    1.2100    0.2240 nh        1 WWX     -0.727600
     21 C21         4.5420    1.7150    1.5810 c3        1 WWX      0.239800
     22 C30         5.2990    3.0180    1.5830 ca        1 WWX     -0.140300
     23 C35         6.5780    3.1190    1.0250 ca        1 WWX     -0.113500
     24 C34         7.2580    4.3370    1.0460 ca        1 WWX     -0.135000
     25 C33         6.6680    5.4590    1.6280 ca        1 WWX     -0.116000
     26 C32         5.3960    5.3610    2.1920 ca        1 WWX     -0.135000
     27 C31         4.7110    4.1470    2.1680 ca        1 WWX     -0.113500
     28 C22         5.2600    0.5930    2.3930 c3        1 WWX      0.211400
     29 O29         6.5100    0.3350    1.7710 oh        1 WWX     -0.617800
     30 C23         5.3610    0.9790    3.8370 ca        1 WWX     -0.144300
     31 C28         4.2100    0.8830    4.6320 ca        1 WWX     -0.116000
     32 C27         4.2710    1.2020    5.9870 ca        1 WWX     -0.128000
     33 C26         5.4760    1.6150    6.5560 ca        1 WWX     -0.113000
     34 C25         6.6210    1.7130    5.7660 ca        1 WWX     -0.128000
     35 C24         6.5650    1.3980    4.4090 ca        1 WWX     -0.116000
     36 H1         -0.0240   -1.5780   -0.8690 h1        1 WWX      0.062200
     37 H2          1.3210   -2.6890   -1.4370 h1        1 WWX      0.062200
     38 H3          0.7660   -1.2110   -3.0580 ho        1 WWX      0.427000
     39 H4          2.9800   -0.9450   -0.5510 h1        1 WWX      0.146200
     40 H5          2.1200   -1.9540    0.6350 h1        1 WWX      0.146200
     41 H6          3.1690    6.6570   -3.0000 hn        1 WWX      0.464133
     42 H7          1.7030    6.3550   -3.6960 hn        1 WWX      0.464133
     43 H8          5.1280    1.1030   -0.2870 hn        1 WWX      0.422800
     44 H9          3.5510    1.8750    2.1090 h1        1 WWX      0.106700
     45 H10         7.0620    2.2250    0.5990 ha        1 WWX      0.145500
     46 H11         8.2680    4.4060    0.6140 ha        1 WWX      0.142000
     47 H12         7.2120    6.4150    1.6560 ha        1 WWX      0.142000
     48 H13         4.9380    6.2380    2.6730 ha        1 WWX      0.142000
     49 H14         3.7190    4.0720    2.6380 ha        1 WWX      0.145500
     50 H15         4.6270   -0.3440    2.3210 h1        1 WWX      0.062700
     51 H16         7.0150   -0.2290    2.3700 ho        1 WWX      0.425000
     52 H17         3.2600    0.5550    4.1760 ha        1 WWX      0.146000
     53 H18         3.3660    1.1230    6.6090 ha        1 WWX      0.140500
     54 H19         5.5230    1.8610    7.6280 ha        1 WWX      0.141000
     55 H20         7.5720    2.0410    6.2130 ha        1 WWX      0.140500
     56 H21         7.4680    1.4900    3.7850 ha        1 WWX      0.146000
     57 H43         1.9800    5.9050   -2.1420 hn        1 WWX      0.464133
@<TRIPOS>BOND
     1    1    2 2   
     2    2    3 2   
     3    2    6 1   
     4    2    7 1   
     5    4    5 1   
     6    4    6 1   
     7    4   36 1   
     8    4   37 1   
     9    5   38 1   
    10    6   39 1   
    11    6   40 1   
    12    7    8 ar  
    13    7   12 ar  
    14    8    9 1   
    15    8   10 ar  
    16   10   11 1   
    17   10   15 ar  
    18   12   13 ar  
    19   12   20 1   
    20   13   14 1   
    21   13   15 ar  
    22   15   16 1   
    23   16   17 2   
    24   16   18 1   
    25   16   19 2   
    26   18   41 1   
    27   18   42 1   
    28   18   57 1   
    29   20   21 1   
    30   20   43 1   
    31   21   22 1   
    32   21   28 1   
    33   21   44 1   
    34   22   23 ar  
    35   22   27 ar  
    36   23   24 ar  
    37   23   45 1   
    38   24   25 ar  
    39   24   46 1   
    40   25   26 ar  
    41   25   47 1   
    42   26   27 ar  
    43   26   48 1   
    44   27   49 1   
    45   28   29 1   
    46   28   30 1   
    47   28   50 1   
    48   29   51 1   
    49   30   31 ar  
    50   30   35 ar  
    51   31   32 ar  
    52   31   52 1   
    53   32   33 ar  
    54   32   53 1   
    55   33   34 ar  
    56   33   54 1   
    57   34   35 ar  
    58   34   55 1   
    59   35   56 1   
@<TRIPOS>SUBSTRUCTURE
     1 WWX         1 TEMP              0 ****  ****    0 ROOT
