@<TRIPOS>MOLECULE
WWX
   57    59     1     0     0
SMALL
bcc


@<TRIPOS>ATOM
      1 O16         0.0290    0.2150    0.7150 o         1 WWX     -0.622300
      2 S14         1.4200    0.2060    0.7170 sy        1 WWX      1.366300
      3 O15         2.0540    0.3130    1.9510 o         1 WWX     -0.622300
      4 C18         1.1270   -1.6470   -1.2560 c3        1 WWX      0.159400
      5 O20         1.3210   -0.8060   -2.3850 oh        1 WWX     -0.631800
      6 C17         2.0220   -1.1240   -0.1450 c3        1 WWX     -0.336600
      7 C8          1.9290    1.5470   -0.3210 ca        1 WWX     -0.222500
      8 C7          0.9470    2.2820   -1.0240 ca        1 WWX      0.217900
      9 F12        -0.3660    2.1130   -0.7760 f         1 WWX     -0.056900
     10 C6          1.3100    3.2250   -2.0110 ca        1 WWX      0.133900
     11 F11         0.3400    3.9470   -2.6220 f         1 WWX     -0.113900
     12 C9          3.2840    1.8550   -0.5350 ca        1 WWX      0.205600
     13 C10         3.6310    2.7440   -1.6190 ca        1 WWX      0.217900
     14 F13         4.9330    2.9030   -1.9320 f         1 WWX     -0.084900
     15 C5          2.6650    3.4300   -2.3890 ca        1 WWX     -0.499500
     16 S1          3.0520    4.3430   -3.6920 sy        1 WWX      1.474200
     17 O3          2.2440    4.1690   -4.7890 o         1 WWX     -0.542300
     18 N4          2.3870    5.9970   -3.0350 nz        1 WWX     -0.791500
     19 O2          4.3890    4.6320   -3.8180 o         1 WWX     -0.542300
     20 N19         4.2850    1.2220    0.2170 nu        1 WWX     -0.727600
     21 C21         4.5410    1.7160    1.5810 c3        1 WWX      0.239800
     22 C30         5.2790    3.0300    1.6050 ca        1 WWX     -0.140300
     23 C35         6.5610    3.1560    1.0590 ca        1 WWX     -0.113500
     24 C34         7.2230    4.3830    1.0990 ca        1 WWX     -0.135000
     25 C33         6.6110    5.4900    1.6870 ca        1 WWX     -0.116000
     26 C32         5.3350    5.3680    2.2380 ca        1 WWX     -0.135000
     27 C31         4.6690    4.1440    2.1960 ca        1 WWX     -0.113500
     28 C22         5.2680    0.5970    2.3890 c3        1 WWX      0.211400
     29 O29         6.5270    0.3640    1.7750 oh        1 WWX     -0.617800
     30 C23         5.3500    0.9680    3.8380 ca        1 WWX     -0.144300
     31 C28         4.1940    0.8470    4.6210 ca        1 WWX     -0.116000
     32 C27         4.2370    1.1520    5.9790 ca        1 WWX     -0.128000
     33 C26         5.4310    1.5770    6.5640 ca        1 WWX     -0.113000
     34 C25         6.5820    1.7010    5.7860 ca        1 WWX     -0.128000
     35 C24         6.5430    1.4000    4.4250 ca        1 WWX     -0.116000
     36 H1          0.0460   -1.6180   -0.9430 h1        1 WWX      0.062200
     37 H2          1.4130   -2.7030   -1.5100 h1        1 WWX      0.062200
     38 H3          0.8490   -1.2160   -3.1210 ho        1 WWX      0.427000
     39 H4          3.0380   -0.9440   -0.5920 h1        1 WWX      0.146200
     40 H5          2.1830   -1.9780    0.5760 h1        1 WWX      0.146200
     41 H6          3.1360    6.6850   -2.9600 hn        1 WWX      0.464133
     42 H7          1.6810    6.3690   -3.6720 hn        1 WWX      0.464133
     43 H8          5.1520    1.1330   -0.2870 hn        1 WWX      0.422800
     44 H9          3.5440    1.8560    2.1030 h1        1 WWX      0.106700
     45 H10         7.0620    2.2730    0.6280 ha        1 WWX      0.145500
     46 H11         8.2350    4.4720    0.6770 ha        1 WWX      0.142000
     47 H12         7.1400    6.4540    1.7300 ha        1 WWX      0.142000
     48 H13         4.8610    6.2330    2.7250 ha        1 WWX      0.142000
     49 H14         3.6730    4.0500    2.6560 ha        1 WWX      0.145500
     50 H15         4.6500   -0.3480    2.3010 h1        1 WWX      0.062700
     51 H16         7.0350   -0.1990    2.3740 ho        1 WWX      0.425000
     52 H17         3.2530    0.5100    4.1530 ha        1 WWX      0.146000
     53 H18         3.3290    1.0540    6.5920 ha        1 WWX      0.140500
     54 H19         5.4650    1.8120    7.6380 ha        1 WWX      0.141000
     55 H20         7.5240    2.0380    6.2440 ha        1 WWX      0.140500
     56 H21         7.4500    1.5120    3.8100 ha        1 WWX      0.146000
     57 H43         1.9510    5.9070   -2.1200 hn        1 WWX      0.464133
@<TRIPOS>BOND
     1    1    2 2   
     2    2    3 2   
     3    2    6 1   
     4    2    7 1   
     5    4    5 1   
     6    4    6 1   
     7    4   36 1   
     8    4   37 1   
     9    5   38 1   
    10    6   39 1   
    11    6   40 1   
    12    7    8 ar  
    13    7   12 ar  
    14    8    9 1   
    15    8   10 ar  
    16   10   11 1   
    17   10   15 ar  
    18   12   13 ar  
    19   12   20 1   
    20   13   14 1   
    21   13   15 ar  
    22   15   16 1   
    23   16   17 2   
    24   16   18 1   
    25   16   19 2   
    26   18   41 1   
    27   18   42 1   
    28   18   57 1   
    29   20   21 1   
    30   20   43 1   
    31   21   22 1   
    32   21   28 1   
    33   21   44 1   
    34   22   23 ar  
    35   22   27 ar  
    36   23   24 ar  
    37   23   45 1   
    38   24   25 ar  
    39   24   46 1   
    40   25   26 ar  
    41   25   47 1   
    42   26   27 ar  
    43   26   48 1   
    44   27   49 1   
    45   28   29 1   
    46   28   30 1   
    47   28   50 1   
    48   29   51 1   
    49   30   31 ar  
    50   30   35 ar  
    51   31   32 ar  
    52   31   52 1   
    53   32   33 ar  
    54   32   53 1   
    55   33   34 ar  
    56   33   54 1   
    57   34   35 ar  
    58   34   55 1   
    59   35   56 1   
@<TRIPOS>SUBSTRUCTURE
     1 WWX         1 TEMP              0 ****  ****    0 ROOT
