@<TRIPOS>MOLECULE
WWZ
   34    35     1     0     0
SMALL
bcc


@<TRIPOS>ATOM
      1 C1         -0.4680   -0.0360    0.0280 ca        1 WWZ     -0.648500
      2 N1         -0.6960   -1.6390   -2.0940 nz        1 WWZ     -0.781500
      3 O1         -2.7170   -0.5990   -0.9180 o         1 WWZ     -0.578800
      4 S1         -1.4640   -0.0870   -1.1850 sy        1 WWZ      1.515200
      5 C2          0.7370    0.7160   -0.0280 ca        1 WWZ      0.050500
      6 O2         -1.2690    0.8500   -2.1770 o         1 WWZ     -0.578800
      7 C3          1.5950    0.8200    1.0370 ca        1 WWZ     -0.217000
      8 C4          1.2980    0.1720    2.2760 ca        1 WWZ      0.243600
      9 C5          0.0730   -0.5720    2.3510 ca        1 WWZ     -0.217000
     10 C6         -0.7610   -0.6640    1.2670 ca        1 WWZ      0.050500
     11 N7          2.0970    0.2370    3.3860 ns        1 WWZ     -0.457100
     12 C8          3.4120    0.8280    3.4370 c         1 WWZ      0.781100
     13 O8          4.0300    1.0300    2.3730 o         1 WWZ     -0.579100
     14 N9          3.8920    1.1690    4.6950 ns        1 WWZ     -0.441100
     15 C10         5.2400    1.5380    4.9320 ca        1 WWZ      0.012600
     16 C11         5.8210    1.1970    6.1740 ca        1 WWZ     -0.115500
     17 C12         7.1180    1.5860    6.4730 ca        1 WWZ     -0.144500
     18 C13         7.8670    2.3180    5.5320 ca        1 WWZ      0.136900
     19 F13         9.1320    2.6940    5.8210 f         1 WWZ     -0.122900
     20 C14         7.2950    2.6570    4.2930 ca        1 WWZ     -0.144500
     21 C15         5.9930    2.2740    3.9960 ca        1 WWZ     -0.115500
     22 H11         5.2540    0.6240    6.9260 ha        1 WWZ      0.153500
     23 HN1         0.1110   -2.0070   -1.6040 hn        1 WWZ      0.448133
     24 H2          0.9810    1.2530   -0.9660 ha        1 WWZ      0.166500
     25 H12         7.5700    1.3240    7.4430 ha        1 WWZ      0.164000
     26 H3          2.5210    1.4170    0.9300 ha        1 WWZ      0.186500
     27 H14         7.8850    3.2300    3.5600 ha        1 WWZ      0.164000
     28 H5         -0.2100   -1.0750    3.2920 ha        1 WWZ      0.186500
     29 H15         5.5660    2.5450    3.0170 ha        1 WWZ      0.153500
     30 H6         -1.7060   -1.2350    1.3600 ha        1 WWZ      0.166500
     31 HN7         1.7400   -0.1870    4.2180 hn        1 WWZ      0.336500
     32 HN9         3.3720    0.9210    5.5080 hn        1 WWZ      0.327500
     33 HN1A       -1.3880   -2.3800   -2.1690 hn        1 WWZ      0.448133
     34 H13        -0.4070   -1.3840   -3.0350 hn        1 WWZ      0.448133
@<TRIPOS>BOND
     1    1    4 1   
     2    1    5 ar  
     3    1   10 ar  
     4    2    4 1   
     5    2   23 1   
     6    2   33 1   
     7    2   34 1   
     8    3    4 2   
     9    4    6 2   
    10    5    7 ar  
    11    5   24 1   
    12    7    8 ar  
    13    7   26 1   
    14    8    9 ar  
    15    8   11 1   
    16    9   10 ar  
    17    9   28 1   
    18   10   30 1   
    19   11   12 1   
    20   11   31 1   
    21   12   13 2   
    22   12   14 1   
    23   14   15 1   
    24   14   32 1   
    25   15   16 ar  
    26   15   21 ar  
    27   16   17 ar  
    28   16   22 1   
    29   17   18 ar  
    30   17   25 1   
    31   18   19 1   
    32   18   20 ar  
    33   20   21 ar  
    34   20   27 1   
    35   21   29 1   
@<TRIPOS>SUBSTRUCTURE
     1 WWZ         1 TEMP              0 ****  ****    0 ROOT
