@<TRIPOS>MOLECULE
WWZ
   33    34     1     0     0
SMALL
bcc


@<TRIPOS>ATOM
      1 C1         -3.7730    0.1880   -0.0650 ca        1 WWZ     -0.422500
      2 N1         -5.8300   -0.0480    1.4730 n3        1 WWZ     -1.026700
      3 O1         -6.1100    0.6690   -0.8610 o         1 WWZ     -0.660800
      4 S1         -5.3980   -0.2500   -0.0580 sy        1 WWZ      1.533200
      5 C2         -2.7700   -0.7460    0.2130 ca        1 WWZ      0.012000
      6 O2         -5.4960   -1.6200   -0.3840 o         1 WWZ     -0.660800
      7 C3         -1.4230   -0.4070    0.1960 ca        1 WWZ     -0.202500
      8 C4         -1.0330    0.9130   -0.1190 ca        1 WWZ      0.143600
      9 C5         -2.0470    1.8630   -0.4180 ca        1 WWZ     -0.202500
     10 C6         -3.3810    1.4940   -0.3870 ca        1 WWZ      0.012000
     11 N7          0.2950    1.3560   -0.1180 n         1 WWZ     -0.475100
     12 C8          1.4390    0.5270   -0.1170 c         1 WWZ      0.780100
     13 O8          1.3560   -0.7150   -0.0140 o         1 WWZ     -0.599100
     14 N9          2.6820    1.1780   -0.2660 n         1 WWZ     -0.462100
     15 C10         3.9160    0.5220   -0.0720 ca        1 WWZ      0.043600
     16 C11         5.0030    1.2600    0.4530 ca        1 WWZ     -0.130000
     17 C12         6.2540    0.6760    0.5920 ca        1 WWZ     -0.144000
     18 C13         6.4470   -0.6660    0.2200 ca        1 WWZ      0.108900
     19 F13         7.6660   -1.2390    0.3600 f         1 WWZ     -0.138900
     20 C14         5.3720   -1.4110   -0.2960 ca        1 WWZ     -0.144000
     21 C15         4.1220   -0.8230   -0.4440 ca        1 WWZ     -0.130000
     22 H11         4.8750    2.3120    0.7530 ha        1 WWZ      0.154500
     23 HN1        -6.1940    0.7970    1.8320 hn        1 WWZ      0.446300
     24 H2         -3.0550   -1.7900    0.4380 ha        1 WWZ      0.155500
     25 H12         7.0970    1.2550    0.9970 ha        1 WWZ      0.153000
     26 H3         -0.6720   -1.1820    0.4220 ha        1 WWZ      0.159500
     27 H14         5.5260   -2.4610   -0.5840 ha        1 WWZ      0.153000
     28 H5         -1.7850    2.9000   -0.6810 ha        1 WWZ      0.159500
     29 H15         3.2890   -1.4260   -0.8450 ha        1 WWZ      0.154500
     30 H6         -4.1570    2.2400   -0.6400 ha        1 WWZ      0.155500
     31 HN7         0.4140    2.3200   -0.3470 hn        1 WWZ      0.317500
     32 HN9         2.7150    2.1650   -0.1310 hn        1 WWZ      0.310500
     33 HN1A       -5.7850   -0.7650    2.1520 hn        1 WWZ      0.446300
@<TRIPOS>BOND
     1    1    4 1   
     2    1    5 ar  
     3    1   10 ar  
     4    2    4 1   
     5    2   23 1   
     6    2   33 1   
     7    3    4 2   
     8    4    6 2   
     9    5    7 ar  
    10    5   24 1   
    11    7    8 ar  
    12    7   26 1   
    13    8    9 ar  
    14    8   11 1   
    15    9   10 ar  
    16    9   28 1   
    17   10   30 1   
    18   11   12 1   
    19   11   31 1   
    20   12   13 2   
    21   12   14 1   
    22   14   15 1   
    23   14   32 1   
    24   15   16 ar  
    25   15   21 ar  
    26   16   17 ar  
    27   16   22 1   
    28   17   18 ar  
    29   17   25 1   
    30   18   19 1   
    31   18   20 ar  
    32   20   21 ar  
    33   20   27 1   
    34   21   29 1   
@<TRIPOS>SUBSTRUCTURE
     1 WWZ         1 TEMP              0 ****  ****    0 ROOT
