@<TRIPOS>MOLECULE
WWZ
   34    35     1     0     0
SMALL
bcc


@<TRIPOS>ATOM
      1 C1         -0.4660   -0.0300    0.0240 ca        1 WWZ     -0.648500
      2 N1         -0.6870   -1.6140   -2.1140 n4        1 WWZ     -0.781500
      3 O1         -2.7130   -0.5970   -0.9260 o         1 WWZ     -0.578800
      4 S1         -1.4630   -0.0750   -1.1890 sy        1 WWZ      1.515200
      5 C2          0.7350    0.7290   -0.0250 ca        1 WWZ      0.050500
      6 O2         -1.2730    0.8720   -2.1720 o         1 WWZ     -0.578800
      7 C3          1.5930    0.8280    1.0400 ca        1 WWZ     -0.217000
      8 C4          1.3000    0.1660    2.2730 ca        1 WWZ      0.243600
      9 C5          0.0790   -0.5860    2.3420 ca        1 WWZ     -0.217000
     10 C6         -0.7550   -0.6720    1.2580 ca        1 WWZ      0.050500
     11 N7          2.1000    0.2250    3.3830 n         1 WWZ     -0.457100
     12 C8          3.4110    0.8220    3.4390 c         1 WWZ      0.781100
     13 O8          4.0270    1.0400    2.3770 o         1 WWZ     -0.579100
     14 N9          3.8900    1.1530    4.7000 n         1 WWZ     -0.441100
     15 C10         5.2360    1.5270    4.9400 ca        1 WWZ      0.012600
     16 C11         5.8220    1.1740    6.1770 ca        1 WWZ     -0.115500
     17 C12         7.1170    1.5680    6.4790 ca        1 WWZ     -0.144500
     18 C13         7.8590    2.3160    5.5450 ca        1 WWZ      0.136900
     19 F13         9.1230    2.6960    5.8370 f         1 WWZ     -0.122900
     20 C14         7.2840    2.6660    4.3110 ca        1 WWZ     -0.144500
     21 C15         5.9840    2.2780    4.0120 ca        1 WWZ     -0.115500
     22 H11         5.2590    0.5890    6.9220 ha        1 WWZ      0.153500
     23 HN1        -1.3750   -2.3570   -2.1950 hn        1 WWZ      0.448133
     24 H2          0.9750    1.2760   -0.9580 ha        1 WWZ      0.166500
     25 H12         7.5720    1.2970    7.4440 ha        1 WWZ      0.164000
     26 H3          2.5150    1.4310    0.9380 ha        1 WWZ      0.186500
     27 H14         7.8690    3.2510    3.5840 ha        1 WWZ      0.164000
     28 H5         -0.2010   -1.0990    3.2780 ha        1 WWZ      0.186500
     29 H15         5.5530    2.5590    3.0360 ha        1 WWZ      0.153500
     30 H6         -1.6970   -1.2490    1.3450 ha        1 WWZ      0.166500
     31 HN7         1.7450   -0.2090    4.2110 hn        1 WWZ      0.336500
     32 HN9         3.3730    0.8920    5.5110 hn        1 WWZ      0.327500
     33 HN1A       -0.3990   -1.3490   -3.0520 hn        1 WWZ      0.448133
     34 H13         0.1220   -1.9820   -1.6270 hn        1 WWZ      0.448133
@<TRIPOS>BOND
     1    1    4 1   
     2    1    5 ar  
     3    1   10 ar  
     4    2    4 1   
     5    2   23 1   
     6    2   33 1   
     7    2   34 1   
     8    3    4 2   
     9    4    6 2   
    10    5    7 ar  
    11    5   24 1   
    12    7    8 ar  
    13    7   26 1   
    14    8    9 ar  
    15    8   11 1   
    16    9   10 ar  
    17    9   28 1   
    18   10   30 1   
    19   11   12 1   
    20   11   31 1   
    21   12   13 2   
    22   12   14 1   
    23   14   15 1   
    24   14   32 1   
    25   15   16 ar  
    26   15   21 ar  
    27   16   17 ar  
    28   16   22 1   
    29   17   18 ar  
    30   17   25 1   
    31   18   19 1   
    32   18   20 ar  
    33   20   21 ar  
    34   20   27 1   
    35   21   29 1   
@<TRIPOS>SUBSTRUCTURE
     1 WWZ         1 TEMP              0 ****  ****    0 ROOT
