@<TRIPOS>MOLECULE
WWZ
   36    37     1     0     0
SMALL
bcc


@<TRIPOS>ATOM
      1 C1          0.0130   -0.2790    0.1250 ca        1 WWZ     -0.403500
      2 N1         -0.5990   -1.8940   -2.0030 n4        1 WWZ     -0.812500
      3 O1         -2.2770   -1.2530   -0.2290 o         1 WWZ     -0.509800
      4 S1         -1.2920   -0.5680   -0.8930 sy        1 WWZ      1.442200
      5 C2          0.9230    0.7520   -0.1550 ca        1 WWZ      0.031000
      6 O2         -1.4520    0.4710   -1.7750 o         1 WWZ     -0.509800
      7 C3          1.8920    1.1430    0.7720 ca        1 WWZ     -0.106000
      8 C4          1.9520    0.4830    2.0120 ca        1 WWZ      0.026600
      9 C5          1.0720   -0.5720    2.3090 ca        1 WWZ     -0.106000
     10 C6          0.1140   -0.9390    1.3600 ca        1 WWZ      0.031000
     11 N7          2.9680    0.8890    3.0080 n4        1 WWZ     -0.513200
     12 C8          2.4690    1.9650    3.9400 c         1 WWZ      0.465100
     13 O8          1.3430    2.4170    3.8380 o         1 WWZ     -0.274100
     14 N9          3.4120    2.4610    5.0010 n4        1 WWZ     -0.471200
     15 C10         4.7260    1.8370    5.0100 ca        1 WWZ     -0.225400
     16 C11         4.9670    0.7300    5.8610 ca        1 WWZ     -0.065000
     17 C12         6.2500    0.2350    5.9960 ca        1 WWZ     -0.148000
     18 C13         7.3270    0.8460    5.3010 ca        1 WWZ      0.281900
     19 F13         8.5680    0.3790    5.4470 f         1 WWZ     -0.030900
     20 C14         7.0790    1.9590    4.4550 ca        1 WWZ     -0.148000
     21 C15         5.7970    2.4550    4.3180 ca        1 WWZ     -0.065000
     22 H11         4.1560    0.2680    6.4540 ha        1 WWZ      0.173500
     23 HN1         0.3600   -2.1740   -1.8040 hn        1 WWZ      0.482467
     24 H2          0.8630    1.3060   -1.1190 ha        1 WWZ      0.216000
     25 H12         6.4570   -0.6200    6.6700 ha        1 WWZ      0.223000
     26 H3          2.5780    1.9690    0.5050 ha        1 WWZ      0.194000
     27 H14         7.9300    2.4420    3.9330 ha        1 WWZ      0.223000
     28 H5          1.1010   -1.1170    3.2700 ha        1 WWZ      0.194000
     29 H15         5.6410    3.3550    3.6950 ha        1 WWZ      0.173500
     30 H6         -0.6010   -1.7520    1.6210 ha        1 WWZ      0.216000
     31 HN7         3.2460    0.0630    3.5690 hn        1 WWZ      0.503800
     32 HN9         3.5150    3.4900    4.8650 hn        1 WWZ      0.522800
     33 HN1A       -0.6220   -1.5910   -2.9860 hn        1 WWZ      0.482467
     34 H13        -1.1740   -2.7450   -1.9520 hn        1 WWZ      0.482467
     35 H72         3.8100    1.2400    2.5140 hn        1 WWZ      0.503800
     36 H92         2.9460    2.3090    5.9220 hn        1 WWZ      0.522800
@<TRIPOS>BOND
     1    1    4 1   
     2    1    5 ar  
     3    1   10 ar  
     4    2    4 1   
     5    2   23 1   
     6    2   33 1   
     7    2   34 1   
     8    3    4 2   
     9    4    6 2   
    10    5    7 ar  
    11    5   24 1   
    12    7    8 ar  
    13    7   26 1   
    14    8    9 ar  
    15    8   11 1   
    16    9   10 ar  
    17    9   28 1   
    18   10   30 1   
    19   11   12 1   
    20   11   31 1   
    21   11   35 1   
    22   12   13 2   
    23   12   14 1   
    24   14   15 1   
    25   14   32 1   
    26   14   36 1   
    27   15   16 ar  
    28   15   21 ar  
    29   16   17 ar  
    30   16   22 1   
    31   17   18 ar  
    32   17   25 1   
    33   18   19 1   
    34   18   20 ar  
    35   20   21 ar  
    36   20   27 1   
    37   21   29 1   
@<TRIPOS>SUBSTRUCTURE
     1 WWZ         1 TEMP              0 ****  ****    0 ROOT
