@<TRIPOS>MOLECULE
WXV
   53    56     1     0     0
SMALL
bcc


@<TRIPOS>ATOM
      1 C1          0.0830    0.1170   -0.1410 ca        1 WXV     -0.023000
      2 C2          1.4560    0.0640   -0.1450 ca        1 WXV     -0.148000
      3 C3          1.3980    0.0430    2.3300 ca        1 WXV     -0.180500
      4 C4          2.1230    0.0260    1.0930 ca        1 WXV     -0.067900
      5 C5          3.5090   -0.0320    1.5100 cc        1 WXV      0.167900
      6 N6          3.5780   -0.0460    2.8980 nd        1 WXV     -0.504100
      7 N7          2.3560   -0.0030    3.3690 na        1 WXV      0.239900
      8 C8          2.0260   -0.0010    4.7870 c3        1 WXV      0.021600
      9 C9          4.6380   -0.0690    0.6220 c         1 WXV      0.525800
     10 O10         4.6620   -0.0580   -0.6010 o         1 WXV     -0.435100
     11 C11        -0.6600    0.1340    1.0670 ca        1 WXV     -0.335600
     12 C12        -0.0350    0.1000    2.3530 ca        1 WXV      0.518600
     13 N13        -0.7290    0.1130    3.5230 nb        1 WXV     -0.804000
     14 C14        -2.1070    0.1810    3.4240 ca        1 WXV      0.921900
     15 N15        -2.8150    0.1990    2.1940 nb        1 WXV     -0.717000
     16 C16        -2.0950    0.1810    1.0910 ca        1 WXV      0.509200
     17 N17        -2.8210    0.2900    4.6020 nu        1 WXV     -0.822900
     18 N18         5.9980   -0.1310    1.3190 ny        1 WXV     -0.668800
     19 C19        -4.2660    0.1510    4.6760 c3        1 WXV      0.222500
     20 C20        -4.7900    0.7230    6.0060 c3        1 WXV     -0.111900
     21 C21        -6.3140    0.5930    6.0620 c3        1 WXV      0.224300
     22 N22        -6.7890   -0.7460    5.8340 n3        1 WXV     -0.821500
     23 C23        -6.2700   -1.3670    4.6430 c3        1 WXV      0.224300
     24 C24        -4.7450   -1.3030    4.5320 c3        1 WXV     -0.111900
     25 S25        -7.7020   -1.5550    6.9230 s6        1 WXV      1.459900
     26 C26        -9.2900   -1.2100    6.4310 c3        1 WXV     -0.363300
     27 O27        -7.4890   -2.9420    6.7820 o         1 WXV     -0.648800
     28 O28        -7.5080   -1.0030    8.2050 o         1 WXV     -0.648800
     29 C29         7.1350   -0.1680    0.3770 c3        1 WXV      0.082100
     30 H1         -0.4720    0.1470   -1.0940 ha        1 WXV      0.156000
     31 H2          2.0380    0.0500   -1.0790 ha        1 WXV      0.166000
     32 H81C        1.4500    0.9370    5.0130 h1        1 WXV      0.091700
     33 H82C        1.3850   -0.8980    5.0010 h1        1 WXV      0.091700
     34 H83C        2.9570   -0.0380    5.4120 h1        1 WXV      0.091700
     35 H18         6.0130   -0.9670    1.9140 hn        1 WXV      0.462800
     36 H16        -2.6600    0.1980    0.1370 h4        1 WXV      0.045100
     37 H17        -2.3210    0.1440    5.4540 hn        1 WXV      0.447800
     38 H19        -4.7220    0.7580    3.8370 h1        1 WXV      0.088700
     39 H291        7.1170    0.7520   -0.2680 hx        1 WXV      0.109367
     40 H292        8.0950   -0.2130    0.9570 hx        1 WXV      0.109367
     41 H293        7.0430   -1.0710   -0.2850 hx        1 WXV      0.109367
     42 H201       -4.5290    1.8090    6.0930 hc        1 WXV      0.062700
     43 H202       -4.3290    0.1840    6.8730 hc        1 WXV      0.062700
     44 H241       -4.4520   -1.7110    3.5310 hc        1 WXV      0.062700
     45 H242       -4.2760   -1.9460    5.3210 hc        1 WXV      0.062700
     46 H211       -6.7600    1.2790    5.2840 h1        1 WXV      0.062950
     47 H212       -6.6610    0.9380    7.0800 h1        1 WXV      0.062950
     48 H231       -6.5830   -2.4520    4.6270 h1        1 WXV      0.062950
     49 H232       -6.7140   -0.8570    3.7390 h1        1 WXV      0.062950
     50 H261       -9.5430   -0.1220    6.4600 h1        1 WXV      0.119033
     51 H262       -9.5310   -1.5690    5.4020 h1        1 WXV      0.119033
     52 H263      -10.0230   -1.7140    7.1130 h1        1 WXV      0.119033
     53 H182        6.0800    0.6910    1.9290 hn        1 WXV      0.462800
@<TRIPOS>BOND
     1    1    2 ar  
     2    1   11 ar  
     3    1   30 1   
     4    2    4 ar  
     5    2   31 1   
     6    3    4 ar  
     7    3    7 1   
     8    3   12 ar  
     9    4    5 1   
    10    5    6 2   
    11    5    9 1   
    12    6    7 1   
    13    7    8 1   
    14    8   32 1   
    15    8   33 1   
    16    8   34 1   
    17    9   10 2   
    18    9   18 1   
    19   11   12 ar  
    20   11   16 ar  
    21   12   13 ar  
    22   13   14 ar  
    23   14   15 ar  
    24   14   17 1   
    25   15   16 ar  
    26   16   36 1   
    27   17   19 1   
    28   17   37 1   
    29   18   29 1   
    30   18   35 1   
    31   18   53 1   
    32   19   20 1   
    33   19   24 1   
    34   19   38 1   
    35   20   21 1   
    36   20   42 1   
    37   20   43 1   
    38   21   22 1   
    39   21   46 1   
    40   21   47 1   
    41   22   23 1   
    42   22   25 1   
    43   23   24 1   
    44   23   48 1   
    45   23   49 1   
    46   24   44 1   
    47   24   45 1   
    48   25   26 1   
    49   25   27 2   
    50   25   28 2   
    51   26   50 1   
    52   26   51 1   
    53   26   52 1   
    54   29   39 1   
    55   29   40 1   
    56   29   41 1   
@<TRIPOS>SUBSTRUCTURE
     1 WXV         1 TEMP              0 ****  ****    0 ROOT
