@<TRIPOS>MOLECULE
WXV
   54    57     1     0     0
SMALL
bcc


@<TRIPOS>ATOM
      1 C1          0.0670    0.9800   -0.1660 ca        1 WXV     -0.081000
      2 C2          1.3300    0.4570   -0.0350 ca        1 WXV     -0.051000
      3 C3          0.9650    0.3070    2.4160 ca        1 WXV     -0.147500
      4 C4          1.7880    0.1180    1.2540 ca        1 WXV     -0.098900
      5 C5          3.0150   -0.4380    1.7880 cc        1 WXV      0.205900
      6 N6          2.9090   -0.5610    3.1580 nd        1 WXV     -0.460100
      7 N7          1.7200   -0.1300    3.5270 na        1 WXV      0.215900
      8 C8          1.2580   -0.1130    4.9080 c3        1 WXV      0.021600
      9 C9          4.1740   -0.8050    0.9960 c         1 WXV      0.514800
     10 O10         4.2980   -0.7140   -0.2160 o         1 WXV     -0.403100
     11 C11        -0.7730    1.1810    0.9640 ca        1 WXV     -0.218600
     12 C12        -0.3510    0.8520    2.2930 ca        1 WXV      0.453600
     13 N13        -1.1640    1.0520    3.3850 nb        1 WXV     -0.667000
     14 C14        -2.3810    1.5780    3.1230 ca        1 WXV      0.725900
     15 N15        -2.8970    1.9310    1.8750 nb        1 WXV     -0.665000
     16 C16        -2.0940    1.7290    0.8390 ca        1 WXV      0.505200
     17 N17        -3.2830    1.8300    4.2840 n4        1 WXV     -0.748700
     18 N18         5.3510   -1.3600    1.7740 n4        1 WXV     -0.660800
     19 C19        -4.4770    0.8870    4.3110 c3        1 WXV      0.139500
     20 C20        -5.3800    1.2590    5.4930 c3        1 WXV     -0.128900
     21 C21        -6.5420    0.2550    5.5910 c3        1 WXV      0.227300
     22 N22        -6.1010   -1.1100    5.6320 n3        1 WXV     -0.806500
     23 C23        -5.2660   -1.4800    4.5260 c3        1 WXV      0.227300
     24 C24        -4.0310   -0.5720    4.3830 c3        1 WXV     -0.128900
     25 S25        -6.2440   -2.0540    6.9920 s6        1 WXV      1.457900
     26 C26        -7.7140   -2.8380    6.7760 c3        1 WXV     -0.380300
     27 O27        -5.1910   -2.9870    6.9660 o         1 WXV     -0.642300
     28 O28        -6.3170   -1.1920    8.1000 o         1 WXV     -0.642300
     29 C29         6.5030   -1.7140    0.9110 c3        1 WXV      0.080100
     30 H1         -0.3200    1.2560   -1.1630 ha        1 WXV      0.183000
     31 H2          1.9890    0.2990   -0.9080 ha        1 WXV      0.191000
     32 H81C        2.0500   -0.5170    5.5960 h1        1 WXV      0.094700
     33 H82C        1.0210    0.9490    5.1880 h1        1 WXV      0.094700
     34 H83C        0.3360   -0.7500    4.9800 h1        1 WXV      0.094700
     35 H18         5.6430   -0.6560    2.4650 hn        1 WXV      0.470800
     36 H16        -2.4980    2.0120   -0.1580 h4        1 WXV      0.084100
     37 H17        -2.7560    1.7230    5.1610 hn        1 WXV      0.473300
     38 H19        -5.0420    1.0580    3.3440 hx        1 WXV      0.124700
     39 H291        6.1880   -2.4910    0.1620 hx        1 WXV      0.119367
     40 H292        6.8550   -0.8000    0.3590 hx        1 WXV      0.119367
     41 H293        7.3320   -2.1160    1.5560 hx        1 WXV      0.119367
     42 H201       -4.8050    1.2500    6.4560 hc        1 WXV      0.075200
     43 H202       -5.8170    2.2820    5.3500 hc        1 WXV      0.075200
     44 H241       -3.4890   -0.8630    3.4470 hc        1 WXV      0.075200
     45 H242       -3.3450   -0.7370    5.2550 hc        1 WXV      0.075200
     46 H211       -7.2230    0.4090    4.7030 h1        1 WXV      0.083450
     47 H212       -7.1230    0.4920    6.5310 h1        1 WXV      0.083450
     48 H231       -4.9040   -2.5410    4.6630 h1        1 WXV      0.083450
     49 H232       -5.8590   -1.4280    3.5670 h1        1 WXV      0.083450
     50 H261       -8.5960   -2.1540    6.6990 h1        1 WXV      0.136700
     51 H262       -7.7550   -3.5030    5.8770 h1        1 WXV      0.136700
     52 H263       -7.9360   -3.5090    7.6510 h1        1 WXV      0.136700
     53 H172       -3.6310    2.7980    4.2200 hn        1 WXV      0.473300
     54 H182        5.0360   -2.1950    2.2860 hn        1 WXV      0.470800
@<TRIPOS>BOND
     1    1    2 ar  
     2    1   11 ar  
     3    1   30 1   
     4    2    4 ar  
     5    2   31 1   
     6    3    4 ar  
     7    3    7 1   
     8    3   12 ar  
     9    4    5 1   
    10    5    6 2   
    11    5    9 1   
    12    6    7 1   
    13    7    8 1   
    14    8   32 1   
    15    8   33 1   
    16    8   34 1   
    17    9   10 2   
    18    9   18 1   
    19   11   12 ar  
    20   11   16 ar  
    21   12   13 ar  
    22   13   14 ar  
    23   14   15 ar  
    24   14   17 1   
    25   15   16 ar  
    26   16   36 1   
    27   17   19 1   
    28   17   37 1   
    29   17   53 1   
    30   18   29 1   
    31   18   35 1   
    32   18   54 1   
    33   19   20 1   
    34   19   24 1   
    35   19   38 1   
    36   20   21 1   
    37   20   42 1   
    38   20   43 1   
    39   21   22 1   
    40   21   46 1   
    41   21   47 1   
    42   22   23 1   
    43   22   25 1   
    44   23   24 1   
    45   23   48 1   
    46   23   49 1   
    47   24   44 1   
    48   24   45 1   
    49   25   26 1   
    50   25   27 2   
    51   25   28 2   
    52   26   50 1   
    53   26   51 1   
    54   26   52 1   
    55   29   39 1   
    56   29   40 1   
    57   29   41 1   
@<TRIPOS>SUBSTRUCTURE
     1 WXV         1 TEMP              0 ****  ****    0 ROOT
