@<TRIPOS>MOLECULE
WXV
   52    45     1     0     0
SMALL
bcc


@<TRIPOS>ATOM
      1 C1          1.4120   -0.1560   -3.8580 c1        1 WXV     -0.092500
      2 C2          2.8100   -0.1710   -3.9010 c1        1 WXV     -0.092500
      3 C3          2.9100    0.1080   -1.5390 c1        1 WXV     -0.047500
      4 C4          3.5460   -0.0360   -2.7200 c1        1 WXV     -0.047500
      5 C5          4.9220   -0.1190   -2.4630 c1        1 WXV     -0.160000
      6 N6          5.1030   -0.0250   -1.1320 n2        1 WXV     -0.031000
      7 N7          3.8660    0.1160   -0.5400 n1        1 WXV     -0.091000
      8 C8          3.9490   -0.0170    0.8400 c2        1 WXV     -0.498500
      9 C9          6.1600    0.0010   -3.2850 c1        1 WXV      0.387000
     10 O10         6.3910    0.9980   -3.8470 o         1 WXV     -0.376000
     11 C11         0.7500   -0.0060   -2.6330 c1        1 WXV     -0.156000
     12 C12         1.4610    0.1240   -1.4930 c1        1 WXV      0.086000
     13 N13         0.8140    0.2520   -0.3000 n1        1 WXV     -0.241000
     14 C14        -0.5480    0.2480   -0.2590 c1        1 WXV      0.144000
     15 N15        -1.2650    0.1170   -1.4130 n1        1 WXV     -0.199000
     16 C16        -0.6270   -0.0090   -2.5910 c1        1 WXV      0.015000
     17 N17        -1.2160    0.1210    1.0830 n3        1 WXV     -0.259000
     18 N18         7.0660   -1.1500   -3.4270 n3        1 WXV     -0.373000
     19 C19        -2.6930    0.1480    1.1750 c3        1 WXV      0.012000
     20 C20        -3.0980    1.3980    1.8360 c3        1 WXV     -0.192500
     21 C21        -4.6020    1.4380    2.1440 c3        1 WXV     -0.012500
     22 N22        -5.0520    0.2510    2.8730 n3        1 WXV     -0.840000
     23 C23        -4.6490   -1.0050    2.2220 c3        1 WXV     -0.012500
     24 C24        -3.1550   -1.0540    1.9130 c3        1 WXV     -0.192500
     25 S25        -6.4010    0.3080    3.7280 s4        1 WXV      2.032800
     26 C26        -6.0400    0.7400    5.4570 c2        1 WXV     -0.498500
     27 O27        -7.3490    1.2330    3.1410 o         1 WXV     -0.536900
     28 O28        -7.1570   -0.9830    3.6380 o         1 WXV     -0.536900
     29 C29         8.2010   -1.0840   -4.3700 c3        1 WXV     -0.077000
     30 H1          0.8900   -0.2960   -4.6890 ha        1 WXV      0.158000
     31 H2          3.2610   -0.4120   -4.7180 ha        1 WXV      0.158000
     32 H81C        3.3080    0.6240    1.2800 ha        1 WXV      0.129167
     33 H82C        3.7210   -0.9200    1.0900 ha        1 WXV      0.129167
     34 H83C        4.8690    0.1830    1.1340 ha        1 WXV      0.129167
     35 H18         6.9470   -1.8810   -2.9170 hn        1 WXV      0.238000
     36 H16        -1.1280   -0.1010   -3.3970 ha        1 WXV      0.169000
     37 H17        -0.6920    0.1530    1.8780 hn        1 WXV      0.213000
     38 H19        -3.0780    0.1290    0.2460 h1        1 WXV      0.131000
     39 H291        8.8280   -1.8420   -4.1900 h1        1 WXV      0.084333
     40 H292        7.8830   -1.1440   -5.2470 h1        1 WXV      0.084333
     41 H293        8.7000   -0.1850   -4.2450 h1        1 WXV      0.084333
     42 H201       -2.5810    1.4880    2.7130 hc        1 WXV      0.095500
     43 H202       -2.8820    2.1100    1.2850 hc        1 WXV      0.095500
     44 H241       -2.9630   -1.8900    1.3440 hc        1 WXV      0.095500
     45 H242       -2.6740   -1.1190    2.7270 hc        1 WXV      0.095500
     46 H211       -5.1160    1.4970    1.2680 h1        1 WXV      0.102250
     47 H212       -4.7990    2.2340    2.6790 h1        1 WXV      0.102250
     48 H231       -4.8940   -1.8080    2.8560 h1        1 WXV      0.102250
     49 H232       -5.1820   -1.1050    1.3210 h1        1 WXV      0.102250
     50 H261       -6.8900    0.8560    5.9520 ha        1 WXV      0.129167
     51 H262       -5.5080    1.6100    5.4890 ha        1 WXV      0.129167
     52 H263       -5.5260    0.0350    5.8620 ha        1 WXV      0.129167
@<TRIPOS>BOND
     1    1    2 1   
     2    1   30 1   
     3    2   31 1   
     4    3    4 1   
     5    5    6 1   
     6    6    7 1   
     7    8   32 1   
     8    8   33 1   
     9    8   34 1   
    10    9   10 1   
    11    9   18 1   
    12   11   12 1   
    13   11   16 1   
    14   12   13 1   
    15   14   15 1   
    16   14   17 1   
    17   16   36 1   
    18   17   19 1   
    19   17   37 1   
    20   18   29 1   
    21   18   35 1   
    22   19   20 1   
    23   19   24 1   
    24   19   38 1   
    25   20   21 1   
    26   20   42 1   
    27   20   43 1   
    28   21   22 1   
    29   21   46 1   
    30   21   47 1   
    31   22   23 1   
    32   22   25 1   
    33   23   24 1   
    34   23   48 1   
    35   23   49 1   
    36   24   44 1   
    37   24   45 1   
    38   25   27 1   
    39   25   28 1   
    40   26   50 1   
    41   26   51 1   
    42   26   52 1   
    43   29   39 1   
    44   29   40 1   
    45   29   41 1   
@<TRIPOS>SUBSTRUCTURE
     1 WXV         1 TEMP              0 ****  ****    0 ROOT
