@<TRIPOS>MOLECULE
WXV
   53    56     1     0     0
SMALL
bcc


@<TRIPOS>ATOM
      1 C1          0.0840    0.0990   -0.1420 ca        1 WXV     -0.023000
      2 C2          1.4570    0.0490   -0.1460 ca        1 WXV     -0.148000
      3 C3          1.3980    0.0390    2.3290 ca        1 WXV     -0.180500
      4 C4          2.1230    0.0180    1.0930 ca        1 WXV     -0.067900
      5 C5          3.5090   -0.0360    1.5100 cc        1 WXV      0.167900
      6 N6          3.5770   -0.0440    2.8980 nd        1 WXV     -0.504100
      7 N7          2.3550   -0.0010    3.3690 na        1 WXV      0.239900
      8 C8          2.0260    0.0060    4.7870 c3        1 WXV      0.021600
      9 C9          4.6380   -0.0740    0.6230 c         1 WXV      0.525800
     10 O10         4.6620   -0.0680   -0.6000 o         1 WXV     -0.435100
     11 C11        -0.6600    0.1200    1.0660 ca        1 WXV     -0.335600
     12 C12        -0.0350    0.0920    2.3520 ca        1 WXV      0.518600
     13 N13        -0.7300    0.1100    3.5210 nb        1 WXV     -0.804000
     14 C14        -2.1080    0.1740    3.4220 ca        1 WXV      0.921900
     15 N15        -2.8150    0.1860    2.1920 nb        1 WXV     -0.717000
     16 C16        -2.0950    0.1640    1.0890 ca        1 WXV      0.509200
     17 N17        -2.8220    0.2880    4.5990 nh        1 WXV     -0.822900
     18 N18         5.9990   -0.1300    1.3200 n4        1 WXV     -0.668800
     19 C19        -4.2670    0.1460    4.6740 c3        1 WXV      0.222500
     20 C20        -4.7920    0.7240    6.0000 c3        1 WXV     -0.111900
     21 C21        -6.3160    0.5910    6.0570 c3        1 WXV      0.224300
     22 N22        -6.7890   -0.7490    5.8340 n3        1 WXV     -0.821500
     23 C23        -6.2690   -1.3740    4.6460 c3        1 WXV      0.224300
     24 C24        -4.7440   -1.3090    4.5360 c3        1 WXV     -0.111900
     25 S25        -7.7020   -1.5540    6.9260 s6        1 WXV      1.459900
     26 C26        -9.2900   -1.2130    6.4320 c3        1 WXV     -0.363300
     27 O27        -7.4870   -2.9410    6.7930 o         1 WXV     -0.648800
     28 O28        -7.5090   -0.9960    8.2060 o         1 WXV     -0.648800
     29 C29         7.1350   -0.1680    0.3780 c3        1 WXV      0.082100
     30 H1         -0.4720    0.1250   -1.0960 ha        1 WXV      0.156000
     31 H2          2.0390    0.0330   -1.0800 ha        1 WXV      0.166000
     32 H81C        1.3860   -0.8920    5.0040 h1        1 WXV      0.091700
     33 H82C        1.4480    0.9440    5.0090 h1        1 WXV      0.091700
     34 H83C        2.9570   -0.0270    5.4110 h1        1 WXV      0.091700
     35 H18         6.0780    0.6950    1.9270 hn        1 WXV      0.462800
     36 H16        -2.6600    0.1770    0.1350 h4        1 WXV      0.045100
     37 H17        -2.3220    0.1460    5.4520 hn        1 WXV      0.447800
     38 H19        -4.7230    0.7490    3.8310 h1        1 WXV      0.088700
     39 H291        8.0960   -0.2080    0.9580 hx        1 WXV      0.109367
     40 H292        7.0450   -1.0750   -0.2810 hx        1 WXV      0.109367
     41 H293        7.1150    0.7490   -0.2710 hx        1 WXV      0.109367
     42 H201       -4.5320    1.8110    6.0820 hc        1 WXV      0.062700
     43 H202       -4.3310    0.1890    6.8700 hc        1 WXV      0.062700
     44 H241       -4.4490   -1.7210    3.5370 hc        1 WXV      0.062700
     45 H242       -4.2740   -1.9470    5.3280 hc        1 WXV      0.062700
     46 H211       -6.6640    0.9410    7.0730 h1        1 WXV      0.062950
     47 H212       -6.7620    1.2740    5.2760 h1        1 WXV      0.062950
     48 H231       -6.5800   -2.4600    4.6350 h1        1 WXV      0.062950
     49 H232       -6.7140   -0.8690    3.7400 h1        1 WXV      0.062950
     50 H261       -9.5450   -0.1260    6.4560 h1        1 WXV      0.119033
     51 H262      -10.0230   -1.7160    7.1150 h1        1 WXV      0.119033
     52 H263       -9.5290   -1.5770    5.4040 h1        1 WXV      0.119033
     53 H182        6.0150   -0.9640    1.9180 hn        1 WXV      0.462800
@<TRIPOS>BOND
     1    1    2 ar  
     2    1   11 ar  
     3    1   30 1   
     4    2    4 ar  
     5    2   31 1   
     6    3    4 ar  
     7    3    7 1   
     8    3   12 ar  
     9    4    5 1   
    10    5    6 2   
    11    5    9 1   
    12    6    7 1   
    13    7    8 1   
    14    8   32 1   
    15    8   33 1   
    16    8   34 1   
    17    9   10 2   
    18    9   18 1   
    19   11   12 ar  
    20   11   16 ar  
    21   12   13 ar  
    22   13   14 ar  
    23   14   15 ar  
    24   14   17 1   
    25   15   16 ar  
    26   16   36 1   
    27   17   19 1   
    28   17   37 1   
    29   18   29 1   
    30   18   35 1   
    31   18   53 1   
    32   19   20 1   
    33   19   24 1   
    34   19   38 1   
    35   20   21 1   
    36   20   42 1   
    37   20   43 1   
    38   21   22 1   
    39   21   46 1   
    40   21   47 1   
    41   22   23 1   
    42   22   25 1   
    43   23   24 1   
    44   23   48 1   
    45   23   49 1   
    46   24   44 1   
    47   24   45 1   
    48   25   26 1   
    49   25   27 2   
    50   25   28 2   
    51   26   50 1   
    52   26   51 1   
    53   26   52 1   
    54   29   39 1   
    55   29   40 1   
    56   29   41 1   
@<TRIPOS>SUBSTRUCTURE
     1 WXV         1 TEMP              0 ****  ****    0 ROOT
