@<TRIPOS>MOLECULE
WXV
   52    55     1     0     0
SMALL
bcc


@<TRIPOS>ATOM
      1 C1         -3.1680   -2.5650    0.2580 ca        1 WXV     -0.115000
      2 C2         -4.3890   -1.9820    0.0440 ca        1 WXV     -0.071000
      3 C3         -3.2940    0.2360    0.1630 ca        1 WXV     -0.149500
      4 C4         -4.4620   -0.5750   -0.0060 ca        1 WXV     -0.139900
      5 C5         -5.5320    0.3830   -0.2040 cc        1 WXV      0.280900
      6 N6         -5.0280    1.6510   -0.1540 nd        1 WXV     -0.498100
      7 N7         -3.7140    1.5750    0.0610 na        1 WXV      0.153900
      8 C8         -2.8450    2.7240    0.1790 c3        1 WXV      0.042600
      9 C9         -6.9520    0.0140   -0.4260 c         1 WXV      0.623800
     10 O10        -7.2950   -1.1870   -0.4550 o         1 WXV     -0.615100
     11 C11        -1.9890   -1.7850    0.4280 ca        1 WXV     -0.287600
     12 C12        -2.0090   -0.3560    0.3880 ca        1 WXV      0.480600
     13 N13        -0.8840    0.4040    0.5450 nb        1 WXV     -0.766000
     14 C14         0.2890   -0.2690    0.7750 ca        1 WXV      0.863900
     15 N15         0.4100   -1.6750    0.8060 nb        1 WXV     -0.726000
     16 C16        -0.7020   -2.3700    0.6410 ca        1 WXV      0.479200
     17 N17         1.4230    0.5090    1.0830 nh        1 WXV     -0.813900
     18 N18        -7.8680    1.0280   -0.5980 n         1 WXV     -0.563900
     19 C19         2.7580   -0.0280    0.8800 c3        1 WXV      0.208500
     20 C20         3.8090    0.8930    1.5250 c3        1 WXV     -0.109400
     21 C21         5.2010    0.2790    1.3690 c3        1 WXV      0.224300
     22 N22         5.5470   -0.0550    0.0110 n3        1 WXV     -0.825500
     23 C23         4.5500   -0.8190   -0.6970 c3        1 WXV      0.224300
     24 C24         3.1380   -0.2420   -0.5940 c3        1 WXV     -0.109400
     25 S25         6.9160    0.4630   -0.6960 s6        1 WXV      1.460900
     26 C26         8.0130   -0.8060   -0.3910 c3        1 WXV     -0.359300
     27 O27         6.7450    0.5530   -2.0930 o         1 WXV     -0.652300
     28 O28         7.4020    1.6140   -0.0390 o         1 WXV     -0.652300
     29 C29        -9.2570    0.7780   -0.8170 c3        1 WXV      0.078300
     30 H1         -3.0710   -3.6610    0.3040 ha        1 WXV      0.139000
     31 H2         -5.3140   -2.5660   -0.0900 ha        1 WXV      0.176000
     32 H81C       -2.0620    2.6710   -0.6230 h1        1 WXV      0.069033
     33 H82C       -3.4320    3.6740    0.0700 h1        1 WXV      0.069033
     34 H83C       -2.3490    2.7020    1.1860 h1        1 WXV      0.069033
     35 H18        -7.5730    1.9740   -0.5710 hn        1 WXV      0.324500
     36 H16        -0.5980   -3.4720    0.6700 h4        1 WXV      0.031100
     37 H17         1.3370    1.4740    0.8320 hn        1 WXV      0.419800
     38 H19         2.8120   -1.0280    1.4070 h1        1 WXV      0.087700
     39 H291       -9.8660    1.2540   -0.0010 h1        1 WXV      0.045033
     40 H292       -9.5750    1.2160   -1.8020 h1        1 WXV      0.045033
     41 H293       -9.4590   -0.3260   -0.8260 h1        1 WXV      0.045033
     42 H201        3.7820    1.9080    1.0500 hc        1 WXV      0.061200
     43 H202        3.6010    1.0160    2.6190 hc        1 WXV      0.061200
     44 H241        2.4320   -0.9670   -1.0750 hc        1 WXV      0.061200
     45 H242        3.0770    0.7270   -1.1530 hc        1 WXV      0.061200
     46 H211        5.9610    1.0120    1.7710 h1        1 WXV      0.057700
     47 H212        5.2480   -0.6590    1.9990 h1        1 WXV      0.057700
     48 H231        4.8380   -0.8710   -1.7880 h1        1 WXV      0.057700
     49 H232        4.5350   -1.8700   -0.2840 h1        1 WXV      0.057700
     50 H261        7.6970   -1.7840   -0.8280 h1        1 WXV      0.113367
     51 H262        9.0090   -0.5690   -0.8450 h1        1 WXV      0.113367
     52 H263        8.1990   -0.9830    0.6950 h1        1 WXV      0.113367
@<TRIPOS>BOND
     1    1    2 ar  
     2    1   11 ar  
     3    1   30 1   
     4    2    4 ar  
     5    2   31 1   
     6    3    4 ar  
     7    3    7 1   
     8    3   12 ar  
     9    4    5 1   
    10    5    6 2   
    11    5    9 1   
    12    6    7 1   
    13    7    8 1   
    14    8   32 1   
    15    8   33 1   
    16    8   34 1   
    17    9   10 2   
    18    9   18 1   
    19   11   12 ar  
    20   11   16 ar  
    21   12   13 ar  
    22   13   14 ar  
    23   14   15 ar  
    24   14   17 1   
    25   15   16 ar  
    26   16   36 1   
    27   17   19 1   
    28   17   37 1   
    29   18   29 1   
    30   18   35 1   
    31   19   20 1   
    32   19   24 1   
    33   19   38 1   
    34   20   21 1   
    35   20   42 1   
    36   20   43 1   
    37   21   22 1   
    38   21   46 1   
    39   21   47 1   
    40   22   23 1   
    41   22   25 1   
    42   23   24 1   
    43   23   48 1   
    44   23   49 1   
    45   24   44 1   
    46   24   45 1   
    47   25   26 1   
    48   25   27 2   
    49   25   28 2   
    50   26   50 1   
    51   26   51 1   
    52   26   52 1   
    53   29   39 1   
    54   29   40 1   
    55   29   41 1   
@<TRIPOS>SUBSTRUCTURE
     1 WXV         1 TEMP              0 ****  ****    0 ROOT
