@<TRIPOS>MOLECULE
WY1
   34    35     1     0     0
SMALL
bcc


@<TRIPOS>ATOM
      1 CAB         4.5060    1.1260    0.9990 c3        1 WY1     -0.054800
      2 CAR         4.1040   -0.0560    0.1960 ca        1 WY1     -0.124300
      3 CAP         4.9030   -1.2090    0.1700 ca        1 WY1     -0.067300
      4 CAA         6.1800   -1.2780    0.9250 c3        1 WY1     -0.047800
      5 CAG         4.4990   -2.3270   -0.5660 ca        1 WY1     -0.151000
      6 CAF         3.3100   -2.3010   -1.2870 ca        1 WY1     -0.116000
      7 CAH         2.5150   -1.1610   -1.2980 ca        1 WY1     -0.107000
      8 CAT         2.8990   -0.0220   -0.5590 ca        1 WY1      0.147600
      9 NAM         2.1420    1.1670   -0.6470 nh        1 WY1     -0.725300
     10 C4          0.7600    1.2200   -0.3590 ca        1 WY1      0.682200
     11 N3          0.0160    0.0880   -0.2400 nb        1 WY1     -0.755000
     12 C5          0.1670    2.5220   -0.2470 ca        1 WY1     -0.479600
     13 C6         -1.2200    2.5490   -0.0290 ca        1 WY1      0.573300
     14 CL6        -1.9680    4.0930    0.1060 cl        1 WY1     -0.192000
     15 N1         -1.9870    1.4510    0.0820 nb        1 WY1     -0.749000
     16 C2         -1.3380    0.2380   -0.0310 ca        1 WY1      0.707300
     17 SAN        -2.2150   -1.2170    0.0890 ss        1 WY1     -0.004400
     18 CAJ        -3.8850   -0.7200    0.3550 c3        1 WY1     -0.201300
     19 CAO        -4.5730   -2.0960    0.4380 c         1 WY1      0.924600
     20 OAC        -3.7790   -3.0790    0.2950 o         1 WY1     -0.806300
     21 OAD        -5.8090   -2.1640    0.6310 o         1 WY1     -0.806300
     22 HAB1        4.8090    1.9700    0.3300 hc        1 WY1      0.039367
     23 HAB2        3.6610    1.4700    1.6480 hc        1 WY1      0.039367
     24 HAB3        5.3690    0.9000    1.6730 hc        1 WY1      0.039367
     25 HAA1        5.9870   -1.2130    2.0250 hc        1 WY1      0.037367
     26 HAA2        6.7140   -2.2390    0.7240 hc        1 WY1      0.037367
     27 HAA3        6.8560   -0.4360    0.6330 hc        1 WY1      0.037367
     28 HAG         5.1230   -3.2330   -0.5710 ha        1 WY1      0.123000
     29 HAF         2.9900   -3.1880   -1.8540 ha        1 WY1      0.133000
     30 HAH         1.5790   -1.1620   -1.8800 ha        1 WY1      0.165000
     31 HAM         2.6250    1.9840   -0.3330 hn        1 WY1      0.412800
     32 H5          0.7530    3.4400   -0.3390 ha        1 WY1      0.145000
     33 HAJ1       -4.0310   -0.1520    1.3000 h1        1 WY1      0.071700
     34 HAJ2       -4.3060   -0.1230   -0.4810 h1        1 WY1      0.071700
@<TRIPOS>BOND
     1    1    2 1   
     2    1   22 1   
     3    1   23 1   
     4    1   24 1   
     5    2    3 ar  
     6    2    8 ar  
     7    3    4 1   
     8    3    5 ar  
     9    4   25 1   
    10    4   26 1   
    11    4   27 1   
    12    5    6 ar  
    13    5   28 1   
    14    6    7 ar  
    15    6   29 1   
    16    7    8 ar  
    17    7   30 1   
    18    8    9 1   
    19    9   10 1   
    20    9   31 1   
    21   10   11 ar  
    22   10   12 ar  
    23   11   16 ar  
    24   12   13 ar  
    25   12   32 1   
    26   13   14 1   
    27   13   15 ar  
    28   15   16 ar  
    29   16   17 1   
    30   17   18 1   
    31   18   19 1   
    32   18   33 1   
    33   18   34 1   
    34   19   20 1   
    35   19   21 1   
@<TRIPOS>SUBSTRUCTURE
     1 WY1         1 TEMP              0 ****  ****    0 ROOT
