@<TRIPOS>MOLECULE
WY1
   34    35     1     0     0
SMALL
bcc


@<TRIPOS>ATOM
      1 CAB         0.1580   -0.2420   -0.2290 c3        1 WY1     -0.054800
      2 CAR         1.6110   -0.0000   -0.0480 ca        1 WY1     -0.124300
      3 CAP         2.1900   -0.0430    1.2300 ca        1 WY1     -0.067300
      4 CAA         1.3700   -0.3090    2.4380 c3        1 WY1     -0.047800
      5 CAG         3.5650    0.1570    1.3840 ca        1 WY1     -0.151000
      6 CAF         4.3670    0.4100    0.2760 ca        1 WY1     -0.116000
      7 CAH         3.8120    0.4820   -0.9960 ca        1 WY1     -0.107000
      8 CAT         2.4280    0.2800   -1.1780 ca        1 WY1      0.147600
      9 NAM         1.8500    0.4480   -2.4560 nh        1 WY1     -0.725300
     10 C4          2.2890   -0.2590   -3.5970 ca        1 WY1      0.682200
     11 N3          3.4640   -0.9440   -3.5980 nb        1 WY1     -0.755000
     12 C5          1.4650   -0.1820   -4.7690 ca        1 WY1     -0.479600
     13 C6          1.9570   -0.8360   -5.9100 ca        1 WY1      0.573300
     14 CL6         0.9990   -0.7620   -7.3380 cl        1 WY1     -0.192000
     15 N1          3.1190   -1.5120   -5.9500 nb        1 WY1     -0.749000
     16 C2          3.8480   -1.5440   -4.7780 ca        1 WY1      0.707300
     17 SAN         5.3360   -2.3680   -4.7180 ss        1 WY1     -0.004400
     18 CAJ         5.5580   -3.0250   -6.3390 c3        1 WY1     -0.201300
     19 CAO         6.9170   -3.7290   -6.1680 c         1 WY1      0.924600
     20 OAC         7.4130   -3.6180   -5.0020 o         1 WY1     -0.806300
     21 OAD         7.4300   -4.3380   -7.1360 o         1 WY1     -0.806300
     22 HAB1       -0.3640    0.7040   -0.5210 hc        1 WY1      0.039367
     23 HAB2       -0.3230   -0.6210    0.7060 hc        1 WY1      0.039367
     24 HAB3       -0.0210   -1.0080   -1.0260 hc        1 WY1      0.039367
     25 HAA1        0.5280    0.4240    2.5130 hc        1 WY1      0.037367
     26 HAA2        0.9390   -1.3410    2.3970 hc        1 WY1      0.037367
     27 HAA3        1.9850   -0.2280    3.3670 hc        1 WY1      0.037367
     28 HAG         4.0150    0.1080    2.3860 ha        1 WY1      0.123000
     29 HAF         5.4510    0.5530    0.4020 ha        1 WY1      0.133000
     30 HAH         4.4660    0.6880   -1.8590 ha        1 WY1      0.165000
     31 HAM         0.8570    0.5660   -2.4440 hn        1 WY1      0.412800
     32 H5          0.5180    0.3630   -4.7820 ha        1 WY1      0.145000
     33 HAJ1        5.6190   -2.2440   -7.1270 h1        1 WY1      0.071700
     34 HAJ2        4.7730   -3.7560   -6.6290 h1        1 WY1      0.071700
@<TRIPOS>BOND
     1    1    2 1   
     2    1   22 1   
     3    1   23 1   
     4    1   24 1   
     5    2    3 ar  
     6    2    8 ar  
     7    3    4 1   
     8    3    5 ar  
     9    4   25 1   
    10    4   26 1   
    11    4   27 1   
    12    5    6 ar  
    13    5   28 1   
    14    6    7 ar  
    15    6   29 1   
    16    7    8 ar  
    17    7   30 1   
    18    8    9 1   
    19    9   10 1   
    20    9   31 1   
    21   10   11 ar  
    22   10   12 ar  
    23   11   16 ar  
    24   12   13 ar  
    25   12   32 1   
    26   13   14 1   
    27   13   15 ar  
    28   15   16 ar  
    29   16   17 1   
    30   17   18 1   
    31   18   19 1   
    32   18   33 1   
    33   18   34 1   
    34   19   20 1   
    35   19   21 1   
@<TRIPOS>SUBSTRUCTURE
     1 WY1         1 TEMP              0 ****  ****    0 ROOT
