@<TRIPOS>MOLECULE
WY1
   34    35     1     0     0
SMALL
bcc


@<TRIPOS>ATOM
      1 CAB         0.1580   -0.2400   -0.2290 c3        1 WY1     -0.054800
      2 CAR         1.6110    0.0030   -0.0490 ca        1 WY1     -0.124300
      3 CAP         2.1910   -0.0390    1.2290 ca        1 WY1     -0.067300
      4 CAA         1.3710   -0.3040    2.4370 c3        1 WY1     -0.047800
      5 CAG         3.5660    0.1610    1.3820 ca        1 WY1     -0.151000
      6 CAF         4.3680    0.4120    0.2740 ca        1 WY1     -0.116000
      7 CAH         3.8130    0.4840   -0.9980 ca        1 WY1     -0.107000
      8 CAT         2.4280    0.2810   -1.1790 ca        1 WY1      0.147600
      9 NAM         1.8500    0.4480   -2.4570 nu        1 WY1     -0.725300
     10 C4          2.2890   -0.2600   -3.5980 ca        1 WY1      0.682200
     11 N3          3.4630   -0.9460   -3.5980 nb        1 WY1     -0.755000
     12 C5          1.4650   -0.1830   -4.7700 ca        1 WY1     -0.479600
     13 C6          1.9560   -0.8390   -5.9100 ca        1 WY1      0.573300
     14 Cl6         0.9980   -0.7650   -7.3380 cl        1 WY1     -0.192000
     15 N1          3.1180   -1.5150   -5.9490 nb        1 WY1     -0.749000
     16 C2          3.8460   -1.5470   -4.7780 ca        1 WY1      0.707300
     17 SAN         5.3340   -2.3720   -4.7160 ss        1 WY1     -0.004400
     18 CAJ         5.5560   -3.0300   -6.3370 c3        1 WY1     -0.201300
     19 CAO         6.9150   -3.7350   -6.1660 c         1 WY1      0.924600
     20 OAC         7.4110   -3.6240   -5.0000 o         1 WY1     -0.806300
     21 OAD         7.4270   -4.3460   -7.1330 o         1 WY1     -0.806300
     22 HAB1       -0.3220   -0.6170    0.7070 hc        1 WY1      0.039367
     23 HAB2       -0.3630    0.7070   -0.5210 hc        1 WY1      0.039367
     24 HAB3       -0.0200   -1.0070   -1.0250 hc        1 WY1      0.039367
     25 HAA1        0.5300    0.4290    2.5120 hc        1 WY1      0.037367
     26 HAA2        1.9870   -0.2220    3.3670 hc        1 WY1      0.037367
     27 HAA3        0.9400   -1.3360    2.3980 hc        1 WY1      0.037367
     28 HAG         4.0170    0.1130    2.3850 ha        1 WY1      0.123000
     29 HAF         5.4520    0.5550    0.3990 ha        1 WY1      0.133000
     30 HAH         4.4660    0.6890   -1.8610 ha        1 WY1      0.165000
     31 HAM         0.8570    0.5670   -2.4450 hn        1 WY1      0.412800
     32 H5          0.5180    0.3620   -4.7830 ha        1 WY1      0.145000
     33 HAJ1        5.6180   -2.2500   -7.1250 h1        1 WY1      0.071700
     34 HAJ2        4.7700   -3.7600   -6.6270 h1        1 WY1      0.071700
@<TRIPOS>BOND
     1    1    2 1   
     2    1   22 1   
     3    1   23 1   
     4    1   24 1   
     5    2    3 ar  
     6    2    8 ar  
     7    3    4 1   
     8    3    5 ar  
     9    4   25 1   
    10    4   26 1   
    11    4   27 1   
    12    5    6 ar  
    13    5   28 1   
    14    6    7 ar  
    15    6   29 1   
    16    7    8 ar  
    17    7   30 1   
    18    8    9 1   
    19    9   10 1   
    20    9   31 1   
    21   10   11 ar  
    22   10   12 ar  
    23   11   16 ar  
    24   12   13 ar  
    25   12   32 1   
    26   13   14 1   
    27   13   15 ar  
    28   15   16 ar  
    29   16   17 1   
    30   17   18 1   
    31   18   19 1   
    32   18   33 1   
    33   18   34 1   
    34   19   20 1   
    35   19   21 1   
@<TRIPOS>SUBSTRUCTURE
     1 WY1         1 TEMP              0 ****  ****    0 ROOT
