@<TRIPOS>MOLECULE
WY1
   35    37     1     0     0
SMALL
bcc


@<TRIPOS>ATOM
      1 CAB         1.2330   -1.6800   -0.3720 c3        1 WY1     -0.096800
      2 CAR         1.7760   -0.3030   -0.2850 ca        1 WY1     -0.022300
      3 CAP         2.3650    0.1750    0.9030 ca        1 WY1     -0.055300
      4 CAA         2.4620   -0.6850    2.1070 c3        1 WY1     -0.065800
      5 CAG         2.8790    1.4740    0.9570 ca        1 WY1     -0.089000
      6 CAF         2.8230    2.3160   -0.1530 ca        1 WY1     -0.114000
      7 CAH         2.2520    1.8690   -1.3370 ca        1 WY1     -0.107000
      8 CAT         1.7240    0.5660   -1.3970 ca        1 WY1     -0.035400
      9 NAM         1.1240    0.1220   -2.6610 n4        1 WY1     -0.626100
     10 C4          2.1530   -0.2720   -3.6710 ca        1 WY1      0.545200
     11 N3          2.5690   -1.5490   -3.6390 nb        1 WY1     -0.742000
     12 C5          2.5970    0.7030   -4.5850 ca        1 WY1     -0.470600
     13 C6          3.5660    0.2220   -5.5160 ca        1 WY1      0.577300
     14 CL6         4.1510    1.3500   -6.6620 cl        1 WY1     -0.140000
     15 N1          4.0220   -1.0310   -5.5290 nb        1 WY1     -0.707000
     16 C2          3.5190   -1.9170   -4.5840 ca        1 WY1      0.861600
     17 SAN         4.0370   -3.5360   -4.5030 s4        1 WY1     -0.563100
     18 CAJ         5.2380   -3.6490   -5.8450 cy        1 WY1      0.055900
     19 CAO         5.4990   -5.1180   -5.5090 c         1 WY1      0.741600
     20 OAC         4.7180   -5.3890   -4.4880 os        1 WY1     -0.387900
     21 OAD         6.2730   -5.9020   -6.0640 o         1 WY1     -0.671500
     22 HAB1        1.3410   -2.2330    0.5940 hc        1 WY1      0.073033
     23 HAB2        1.7800   -2.2720   -1.1530 hc        1 WY1      0.073033
     24 HAB3        0.1420   -1.6630   -0.6210 hc        1 WY1      0.073033
     25 HAA1        2.9550   -0.1410    2.9510 hc        1 WY1      0.060367
     26 HAA2        3.0670   -1.6010    1.8850 hc        1 WY1      0.060367
     27 HAA3        1.4440   -1.0040    2.4470 hc        1 WY1      0.060367
     28 HAG         3.3430    1.8370    1.8890 ha        1 WY1      0.154000
     29 HAF         3.2400    3.3340   -0.0980 ha        1 WY1      0.157000
     30 HAH         2.2320    2.5290   -2.2190 ha        1 WY1      0.151000
     31 HAM         0.5790    0.8940   -3.0590 hn        1 WY1      0.456800
     32 H5          2.2550    1.7400   -4.5990 ha        1 WY1      0.154000
     33 HAJ1        4.8120   -3.4980   -6.8560 h1        1 WY1      0.090700
     34 HAJ2        6.1300   -3.0040   -5.7200 h1        1 WY1      0.090700
     35 HAM2        0.5010   -0.6780   -2.4790 hn        1 WY1      0.456800
@<TRIPOS>BOND
     1    1    2 1   
     2    1   22 1   
     3    1   23 1   
     4    1   24 1   
     5    2    3 ar  
     6    2    8 ar  
     7    3    4 1   
     8    3    5 ar  
     9    4   25 1   
    10    4   26 1   
    11    4   27 1   
    12    5    6 ar  
    13    5   28 1   
    14    6    7 ar  
    15    6   29 1   
    16    7    8 ar  
    17    7   30 1   
    18    8    9 1   
    19    9   10 1   
    20    9   31 1   
    21    9   35 1   
    22   10   11 ar  
    23   10   12 ar  
    24   11   16 ar  
    25   12   13 ar  
    26   12   32 1   
    27   13   14 1   
    28   13   15 ar  
    29   15   16 ar  
    30   16   17 1   
    31   17   18 1   
    32   17   20 1   
    33   18   19 1   
    34   18   33 1   
    35   18   34 1   
    36   19   20 1   
    37   19   21 2   
@<TRIPOS>SUBSTRUCTURE
     1 WY1         1 TEMP              0 ****  ****    0 ROOT
