@<TRIPOS>MOLECULE
WY2
   35    38     1     0     0
SMALL
bcc


@<TRIPOS>ATOM
      1 S1          0.4180   -0.2530   -0.0340 ss        1 WY2     -0.367200
      2 C2          2.0750   -0.1070    0.5600 c3        1 WY2     -0.072600
      3 C3          2.2270    0.3940    1.9650 ce        1 WY2      0.408300
      4 N4          1.8910    1.5730    2.3690 nf        1 WY2     -0.608300
      5 C5          1.3470    2.5400    1.5190 cf        1 WY2      0.077600
      6 C6          0.3610    2.4920    0.5960 ce        1 WY2     -0.251400
      7 C7         -0.0310    3.7960   -0.0870 c         1 WY2      0.907800
      8 O8          0.8310    4.7150   -0.1900 o         1 WY2     -0.855300
      9 O8A        -1.2190    3.9310   -0.5180 o         1 WY2     -0.855300
     10 C61        -0.4440    1.3030    0.2100 c3        1 WY2      0.079300
     11 C62        -1.6260    1.1400    1.0990 cc        1 WY2      0.356600
     12 C66        -2.4020    2.2480    1.5240 cd        1 WY2     -0.193600
     13 N65        -3.4370    1.7180    2.2810 na        1 WY2     -0.132900
     14 C64        -3.2490    0.2750    2.2790 cd        1 WY2      0.376900
     15 N63        -2.1640   -0.0730    1.5660 nc        1 WY2     -0.587000
     16 S66        -4.4670   -0.5120    3.1940 ss        1 WY2     -0.085300
     17 C67        -5.2070    0.9630    3.5640 cc        1 WY2     -0.191400
     18 C68        -4.5450    2.0590    3.0150 cd        1 WY2     -0.026600
     19 C69        -5.1920    3.3560    3.3580 c3        1 WY2     -0.009100
     20 C70        -6.3960    2.9360    4.2230 c3        1 WY2     -0.076400
     21 C71        -6.3860    1.3960    4.3470 c3        1 WY2      0.024900
     22 C31         2.9700   -0.6040    2.8850 c         1 WY2      0.837300
     23 O32         2.4450   -0.9640    3.9670 o         1 WY2     -0.828300
     24 O33         4.0810   -1.0230    2.4490 o         1 WY2     -0.828300
     25 H21         2.4820   -1.1490    0.4870 h1        1 WY2      0.075200
     26 H22         2.6660    0.5480   -0.1290 h1        1 WY2      0.075200
     27 H5          1.8190    3.5330    1.6980 h4        1 WY2      0.150000
     28 H61        -0.8660    1.5110   -0.8220 h1        1 WY2      0.098700
     29 H66        -2.2680    3.3080    1.2710 h4        1 WY2      0.242000
     30 H691       -4.4910    4.0190    3.9250 hc        1 WY2      0.062700
     31 H692       -5.5190    3.9020    2.4380 hc        1 WY2      0.062700
     32 H701       -7.3480    3.2780    3.7500 hc        1 WY2      0.032700
     33 H702       -6.3240    3.4030    5.2340 hc        1 WY2      0.032700
     34 H711       -7.3330    0.9610    3.9380 hc        1 WY2      0.034700
     35 H712       -6.3030    1.0870    5.4200 hc        1 WY2      0.034700
@<TRIPOS>BOND
     1    1    2 1   
     2    1   10 1   
     3    2    3 1   
     4    2   25 1   
     5    2   26 1   
     6    3    4 2   
     7    3   22 1   
     8    4    5 1   
     9    5    6 2   
    10    5   27 1   
    11    6    7 1   
    12    6   10 1   
    13    7    8 1   
    14    7    9 1   
    15   10   11 1   
    16   10   28 1   
    17   11   12 2   
    18   11   15 1   
    19   12   13 1   
    20   12   29 1   
    21   13   14 1   
    22   13   18 1   
    23   14   15 2   
    24   14   16 1   
    25   16   17 1   
    26   17   18 2   
    27   17   21 1   
    28   18   19 1   
    29   19   20 1   
    30   19   30 1   
    31   19   31 1   
    32   20   21 1   
    33   20   32 1   
    34   20   33 1   
    35   21   34 1   
    36   21   35 1   
    37   22   23 1   
    38   22   24 1   
@<TRIPOS>SUBSTRUCTURE
     1 WY2         1 TEMP              0 ****  ****    0 ROOT
