@<TRIPOS>MOLECULE
WY2
   35    38     1     0     0
SMALL
bcc


@<TRIPOS>ATOM
      1 S1         -0.9020    4.0880    2.0750 ss        1 WY2     -0.367200
      2 C2         -1.0230    3.3280    3.6650 c3        1 WY2     -0.072600
      3 C3          0.2380    2.7120    4.1940 ce        1 WY2      0.408300
      4 N4          0.8450    1.7020    3.6670 nf        1 WY2     -0.608300
      5 C5          0.3770    1.0490    2.5240 cf        1 WY2      0.077600
      6 C6         -0.0660    1.5030    1.3310 ce        1 WY2     -0.251400
      7 C7         -0.4130    0.4700    0.2660 c         1 WY2      0.907800
      8 O8         -0.7760   -0.6850    0.6310 o         1 WY2     -0.855300
      9 O8A        -0.3110    0.7920   -0.9590 o         1 WY2     -0.855300
     10 C61        -0.1940    2.9220    0.9070 c3        1 WY2      0.079300
     11 C62         1.0800    3.4310    0.3320 cc        1 WY2      0.356600
     12 C66         1.8800    2.6420   -0.5340 cd        1 WY2     -0.193600
     13 N65         2.9420    3.4510   -0.9120 na        1 WY2     -0.132900
     14 C64         2.7370    4.7320   -0.2520 cd        1 WY2      0.376900
     15 N63         1.6170    4.7220    0.4920 nc        1 WY2     -0.587000
     16 S66         3.9950    5.8330   -0.6300 ss        1 WY2     -0.085300
     17 C67         4.7620    4.6920   -1.6150 cc        1 WY2     -0.191400
     18 C68         4.0900    3.4730   -1.6630 cd        1 WY2     -0.026600
     19 C69         4.7780    2.4670   -2.5190 c3        1 WY2     -0.009100
     20 C70         6.0170    3.2250   -3.0330 c3        1 WY2     -0.076400
     21 C71         5.9910    4.6510   -2.4390 c3        1 WY2      0.024900
     22 C31         0.6850    3.3200    5.5460 c         1 WY2      0.837300
     23 O32         1.8520    3.7680    5.6720 o         1 WY2     -0.828300
     24 O33        -0.1990    3.3490    6.4500 o         1 WY2     -0.828300
     25 H21        -1.8310    2.5540    3.6530 h1        1 WY2      0.075200
     26 H22        -1.3450    4.1620    4.3400 h1        1 WY2      0.075200
     27 H5          0.4350   -0.0570    2.6490 h4        1 WY2      0.150000
     28 H61        -0.9430    2.9460    0.0560 h1        1 WY2      0.098700
     29 H66         1.6880    1.6220   -0.8920 h4        1 WY2      0.242000
     30 H691        5.0680    1.5630   -1.9260 hc        1 WY2      0.062700
     31 H692        4.1220    2.1340   -3.3620 hc        1 WY2      0.062700
     32 H701        6.9490    2.6950   -2.7200 hc        1 WY2      0.032700
     33 H702        6.0040    3.2720   -4.1490 hc        1 WY2      0.032700
     34 H711        5.9650    5.4180   -3.2540 hc        1 WY2      0.034700
     35 H712        6.9050    4.8380   -1.8210 hc        1 WY2      0.034700
@<TRIPOS>BOND
     1    1    2 1   
     2    1   10 1   
     3    2    3 1   
     4    2   25 1   
     5    2   26 1   
     6    3    4 2   
     7    3   22 1   
     8    4    5 1   
     9    5    6 2   
    10    5   27 1   
    11    6    7 1   
    12    6   10 1   
    13    7    8 1   
    14    7    9 1   
    15   10   11 1   
    16   10   28 1   
    17   11   12 2   
    18   11   15 1   
    19   12   13 1   
    20   12   29 1   
    21   13   14 1   
    22   13   18 1   
    23   14   15 2   
    24   14   16 1   
    25   16   17 1   
    26   17   18 2   
    27   17   21 1   
    28   18   19 1   
    29   19   20 1   
    30   19   30 1   
    31   19   31 1   
    32   20   21 1   
    33   20   32 1   
    34   20   33 1   
    35   21   34 1   
    36   21   35 1   
    37   22   23 1   
    38   22   24 1   
@<TRIPOS>SUBSTRUCTURE
     1 WY2         1 TEMP              0 ****  ****    0 ROOT
