@<TRIPOS>MOLECULE
WY2
   35    38     1     0     0
SMALL
bcc


@<TRIPOS>ATOM
      1 S1          0.4080   -0.3150    0.0130 ss        1 WY2     -0.367200
      2 C2          2.0700   -0.1410    0.5850 c3        1 WY2     -0.072600
      3 C3          2.2330    0.4090    1.9700 ce        1 WY2      0.408300
      4 N4          1.8950    1.6000    2.3370 nf        1 WY2     -0.608300
      5 C5          1.3390    2.5340    1.4600 cf        1 WY2      0.077600
      6 C6          0.3440    2.4500    0.5490 ce        1 WY2     -0.251400
      7 C7         -0.0620    3.7270   -0.1740 c         1 WY2      0.907800
      8 O8          0.7940    4.6480   -0.3160 o         1 WY2     -0.855300
      9 O8A        -1.2550    3.8410   -0.6000 o         1 WY2     -0.855300
     10 C61        -0.4590    1.2440    0.2120 c3        1 WY2      0.079300
     11 C62        -1.6310    1.1060    1.1180 cc        1 WY2      0.356600
     12 C66        -2.4110    2.2250    1.5110 cd        1 WY2     -0.193600
     13 N65        -3.4350    1.7160    2.2960 na        1 WY2     -0.132900
     14 C64        -3.2380    0.2740    2.3440 cd        1 WY2      0.376900
     15 N63        -2.1580   -0.0920    1.6330 nc        1 WY2     -0.587000
     16 S66        -4.4420   -0.4860    3.2980 ss        1 WY2     -0.085300
     17 C67        -5.1870    0.9970    3.6230 cc        1 WY2     -0.191400
     18 C68        -4.5370    2.0770    3.0290 cd        1 WY2     -0.026600
     19 C69        -5.1890    3.3810    3.3310 c3        1 WY2     -0.009100
     20 C70        -6.3820    2.9850    4.2230 c3        1 WY2     -0.076400
     21 C71        -6.3620    1.4510    4.4010 c3        1 WY2      0.024900
     22 C31         2.9900   -0.5540    2.9160 c         1 WY2      0.837300
     23 O32         2.4780   -0.8790    4.0160 o         1 WY2     -0.828300
     24 O33         4.1000   -0.9820    2.4840 o         1 WY2     -0.828300
     25 H21         2.4820   -1.1830    0.5430 h1        1 WY2      0.075200
     26 H22         2.6510    0.4930   -0.1320 h1        1 WY2      0.075200
     27 H5          1.8060    3.5350    1.6000 h4        1 WY2      0.150000
     28 H61        -0.8920    1.4150   -0.8220 h1        1 WY2      0.098700
     29 H66        -2.2840    3.2760    1.2200 h4        1 WY2      0.242000
     30 H691       -4.4870    4.0670    3.8680 hc        1 WY2      0.062700
     31 H692       -5.5270    3.8930    2.3960 hc        1 WY2      0.062700
     32 H701       -7.3400    3.3050    3.7480 hc        1 WY2      0.032700
     33 H702       -6.3030    3.4890    5.2160 hc        1 WY2      0.032700
     34 H711       -6.2660    1.1810    5.4830 hc        1 WY2      0.034700
     35 H712       -7.3100    0.9970    4.0170 hc        1 WY2      0.034700
@<TRIPOS>BOND
     1    1    2 1   
     2    1   10 1   
     3    2    3 1   
     4    2   25 1   
     5    2   26 1   
     6    3    4 2   
     7    3   22 1   
     8    4    5 1   
     9    5    6 2   
    10    5   27 1   
    11    6    7 1   
    12    6   10 1   
    13    7    8 1   
    14    7    9 1   
    15   10   11 1   
    16   10   28 1   
    17   11   12 2   
    18   11   15 1   
    19   12   13 1   
    20   12   29 1   
    21   13   14 1   
    22   13   18 1   
    23   14   15 2   
    24   14   16 1   
    25   16   17 1   
    26   17   18 2   
    27   17   21 1   
    28   18   19 1   
    29   19   20 1   
    30   19   30 1   
    31   19   31 1   
    32   20   21 1   
    33   20   32 1   
    34   20   33 1   
    35   21   34 1   
    36   21   35 1   
    37   22   23 1   
    38   22   24 1   
@<TRIPOS>SUBSTRUCTURE
     1 WY2         1 TEMP              0 ****  ****    0 ROOT
