@<TRIPOS>MOLECULE
WY2
   35    38     1     0     0
SMALL
bcc


@<TRIPOS>ATOM
      1 S1          0.4480   -0.3270    0.0680 ss        1 WY2     -0.367200
      2 C2          2.1040   -0.1200    0.6460 c3        1 WY2     -0.072600
      3 C3          2.2500    0.4590    2.0220 ce        1 WY2      0.408300
      4 N4          1.8950    1.6520    2.3630 nf        1 WY2     -0.608300
      5 C5          1.3320    2.5610    1.4640 cf        1 WY2      0.077600
      6 C6          0.3450    2.4460    0.5490 ce        1 WY2     -0.251400
      7 C7         -0.0730    3.7050   -0.2010 c         1 WY2      0.907800
      8 O8          0.7710    4.6340   -0.3530 o         1 WY2     -0.855300
      9 O8A        -1.2630    3.7940   -0.6400 o         1 WY2     -0.855300
     10 C61        -0.4400    1.2250    0.2310 c3        1 WY2      0.079300
     11 C62        -1.6170    1.0890    1.1310 cc        1 WY2      0.356600
     12 C66        -2.4140    2.2050    1.4950 cd        1 WY2     -0.193600
     13 N65        -3.4370    1.6980    2.2840 na        1 WY2     -0.132900
     14 C64        -3.2200    0.2610    2.3640 cd        1 WY2      0.376900
     15 N63        -2.1300   -0.1050    1.6680 nc        1 WY2     -0.587000
     16 S66        -4.4200   -0.4960    3.3260 ss        1 WY2     -0.085300
     17 C67        -5.1890    0.9830    3.6140 cc        1 WY2     -0.191400
     18 C68        -4.5500    2.0590    3.0010 cd        1 WY2     -0.026600
     19 C69        -5.2220    3.3600    3.2710 c3        1 WY2     -0.009100
     20 C70        -6.4160    2.9660    4.1620 c3        1 WY2     -0.076400
     21 C71        -6.3750    1.4370    4.3730 c3        1 WY2      0.024900
     22 C31         3.0140   -0.4760    2.9910 c         1 WY2      0.837300
     23 O32         2.4980   -0.7860    4.0930 o         1 WY2     -0.828300
     24 O33         4.1310   -0.8980    2.5740 o         1 WY2     -0.828300
     25 H21         2.5290   -1.1570    0.6280 h1        1 WY2      0.075200
     26 H22         2.6820    0.5070   -0.0790 h1        1 WY2      0.075200
     27 H5          1.7860    3.5710    1.5880 h4        1 WY2      0.150000
     28 H61        -0.8690    1.3700   -0.8100 h1        1 WY2      0.098700
     29 H66        -2.3010    3.2510    1.1820 h4        1 WY2      0.242000
     30 H691       -4.5340    4.0670    3.7980 hc        1 WY2      0.062700
     31 H692       -5.5610    3.8460    2.3220 hc        1 WY2      0.062700
     32 H701       -6.3520    3.4920    5.1440 hc        1 WY2      0.032700
     33 H702       -7.3750    3.2620    3.6730 hc        1 WY2      0.032700
     34 H711       -7.3140    0.9610    3.9930 hc        1 WY2      0.034700
     35 H712       -6.2840    1.1910    5.4620 hc        1 WY2      0.034700
@<TRIPOS>BOND
     1    1    2 1   
     2    1   10 1   
     3    2    3 1   
     4    2   25 1   
     5    2   26 1   
     6    3    4 2   
     7    3   22 1   
     8    4    5 1   
     9    5    6 2   
    10    5   27 1   
    11    6    7 1   
    12    6   10 1   
    13    7    8 1   
    14    7    9 1   
    15   10   11 1   
    16   10   28 1   
    17   11   12 2   
    18   11   15 1   
    19   12   13 1   
    20   12   29 1   
    21   13   14 1   
    22   13   18 1   
    23   14   15 2   
    24   14   16 1   
    25   16   17 1   
    26   17   18 2   
    27   17   21 1   
    28   18   19 1   
    29   19   20 1   
    30   19   30 1   
    31   19   31 1   
    32   20   21 1   
    33   20   32 1   
    34   20   33 1   
    35   21   34 1   
    36   21   35 1   
    37   22   23 1   
    38   22   24 1   
@<TRIPOS>SUBSTRUCTURE
     1 WY2         1 TEMP              0 ****  ****    0 ROOT
