@<TRIPOS>MOLECULE
WY4
   33    35     1     0     0
SMALL
bcc


@<TRIPOS>ATOM
      1 S1         -0.1700    1.9530   -0.9300 ss        1 WY4     -0.363200
      2 C2          0.4180    0.3120   -0.5760 c3        1 WY4     -0.095600
      3 C3          0.6530   -0.1130    0.8400 ce        1 WY4      0.440300
      4 N4          1.2740    0.5260    1.7720 nf        1 WY4     -0.624300
      5 C5          1.7340    1.8270    1.7110 cf        1 WY4      0.170600
      6 C6          1.1060    2.9420    1.2420 ce        1 WY4     -0.298400
      7 C7          1.7500    4.2440    1.4140 c         1 WY4      0.593100
      8 O8          1.3600    5.3040    0.9140 o         1 WY4     -0.566100
      9 C31         0.1160   -1.5580    1.1080 c         1 WY4      0.847300
     10 O32        -1.0940   -1.6320    1.4500 o         1 WY4     -0.800300
     11 O33         0.9100   -2.5030    0.9100 o         1 WY4     -0.800300
     12 C61        -0.2270    2.9070    0.5840 c3        1 WY4      0.091300
     13 C62        -1.2920    2.4670    1.5140 cc        1 WY4      0.254600
     14 N63        -1.7550    3.2460    2.5870 nc        1 WY4     -0.642000
     15 C64        -2.6450    2.4640    3.2440 cd        1 WY4      0.313800
     16 N65        -2.7930    1.2150    2.6030 na        1 WY4     -0.177900
     17 C66        -1.9320    1.2040    1.5200 cd        1 WY4     -0.170600
     18 C67        -3.3790    2.7610    4.5120 c3        1 WY4      0.117100
     19 O68        -4.3030    1.7340    4.8750 os        1 WY4     -0.428600
     20 C69        -3.8160    0.4110    4.6720 c3        1 WY4      0.114400
     21 C70        -3.5160    0.1270    3.1900 c3        1 WY4      0.001300
     22 HC21        1.3780    0.1870   -1.1420 h1        1 WY4      0.086200
     23 HC22       -0.3400   -0.3770   -1.0330 h1        1 WY4      0.086200
     24 HC5         2.7240    1.9290    2.2080 h4        1 WY4      0.130000
     25 HC7         2.6730    4.2290    2.0450 h4        1 WY4     -0.029800
     26 H61        -0.4760    3.9390    0.1930 h1        1 WY4      0.114700
     27 H66        -1.8160    0.3140    0.8880 h4        1 WY4      0.232000
     28 H671       -4.0160    3.6790    4.4050 h1        1 WY4      0.060700
     29 H672       -2.6390    2.8940    5.3480 h1        1 WY4      0.060700
     30 H691       -2.9000    0.2440    5.2980 h1        1 WY4      0.055700
     31 H692       -4.6520   -0.2470    5.0240 h1        1 WY4      0.055700
     32 H701       -2.9090   -0.8210    3.0830 h1        1 WY4      0.084700
     33 H702       -4.4870   -0.0050    2.6320 h1        1 WY4      0.084700
@<TRIPOS>BOND
     1    1    2 1   
     2    1   12 1   
     3    2    3 1   
     4    2   22 1   
     5    2   23 1   
     6    3    4 2   
     7    3    9 1   
     8    4    5 1   
     9    5    6 2   
    10    5   24 1   
    11    6    7 1   
    12    6   12 1   
    13    7    8 2   
    14    7   25 1   
    15    9   10 1   
    16    9   11 1   
    17   12   13 1   
    18   12   26 1   
    19   13   14 1   
    20   13   17 2   
    21   14   15 2   
    22   15   16 1   
    23   15   18 1   
    24   16   17 1   
    25   16   21 1   
    26   17   27 1   
    27   18   19 1   
    28   18   28 1   
    29   18   29 1   
    30   19   20 1   
    31   20   21 1   
    32   20   30 1   
    33   20   31 1   
    34   21   32 1   
    35   21   33 1   
@<TRIPOS>SUBSTRUCTURE
     1 WY4         1 TEMP              0 ****  ****    0 ROOT
