@<TRIPOS>MOLECULE
WY4
   33    35     1     0     0
SMALL
bcc


@<TRIPOS>ATOM
      1 S1         -0.1880    2.0870   -0.9070 ss        1 WY4     -0.363200
      2 C2          0.3330    0.4040   -0.6560 c3        1 WY4     -0.095600
      3 C3          0.5680   -0.1100    0.7290 ce        1 WY4      0.440300
      4 N4          1.2290    0.4470    1.6850 nf        1 WY4     -0.624300
      5 C5          1.7450    1.7280    1.6920 cf        1 WY4      0.170600
      6 C6          1.1590    2.8950    1.2970 ce        1 WY4     -0.298400
      7 C7          1.8620    4.1550    1.5320 c         1 WY4      0.593100
      8 O8          1.5110    5.2580    1.0990 o         1 WY4     -0.566100
      9 C31        -0.0280   -1.5440    0.9240 c         1 WY4      0.847300
     10 O32        -1.2350   -1.5850    1.2800 o         1 WY4     -0.799800
     11 O33         0.7220   -2.5100    0.6600 o         1 WY4     -0.799800
     12 C61        -0.1830    2.9540    0.6600 c3        1 WY4      0.091300
     13 C62        -1.2530    2.5060    1.5800 cc        1 WY4      0.254600
     14 N63        -1.6650    3.2400    2.7040 nc        1 WY4     -0.642000
     15 C64        -2.5800    2.4590    3.3300 cd        1 WY4      0.313800
     16 N65        -2.7910    1.2580    2.6190 na        1 WY4     -0.177900
     17 C66        -1.9470    1.2740    1.5230 cd        1 WY4     -0.170600
     18 C67        -3.2810    2.7120    4.6250 c3        1 WY4      0.117100
     19 O68        -4.2440    1.7060    4.9440 os        1 WY4     -0.428600
     20 C69        -3.8180    0.3780    4.6560 c3        1 WY4      0.114400
     21 C70        -3.5530    0.1690    3.1550 c3        1 WY4      0.001300
     22 HC21        1.2780    0.2710   -1.2450 h1        1 WY4      0.086200
     23 HC22       -0.4610   -0.2240   -1.1390 h1        1 WY4      0.086200
     24 HC5         2.7450    1.7590    2.1770 h4        1 WY4      0.130000
     25 HC7         2.7920    4.0650    2.1460 h4        1 WY4     -0.029800
     26 H61        -0.3920    4.0160    0.3320 h1        1 WY4      0.114700
     27 H66        -1.8800    0.4180    0.8390 h4        1 WY4      0.232000
     28 H671       -2.5240    2.7650    5.4550 h1        1 WY4      0.060700
     29 H672       -3.8790    3.6620    4.5830 h1        1 WY4      0.060700
     30 H691       -2.9010    0.1360    5.2550 h1        1 WY4      0.055700
     31 H692       -4.6760   -0.2640    4.9840 h1        1 WY4      0.055700
     32 H701       -2.9890   -0.7960    2.9830 h1        1 WY4      0.084700
     33 H702       -4.5360    0.1120    2.6070 h1        1 WY4      0.084700
@<TRIPOS>BOND
     1    1    2 1   
     2    1   12 1   
     3    2    3 1   
     4    2   22 1   
     5    2   23 1   
     6    3    4 2   
     7    3    9 1   
     8    4    5 1   
     9    5    6 2   
    10    5   24 1   
    11    6    7 1   
    12    6   12 1   
    13    7    8 2   
    14    7   25 1   
    15    9   10 1   
    16    9   11 1   
    17   12   13 1   
    18   12   26 1   
    19   13   14 1   
    20   13   17 2   
    21   14   15 2   
    22   15   16 1   
    23   15   18 1   
    24   16   17 1   
    25   16   21 1   
    26   17   27 1   
    27   18   19 1   
    28   18   28 1   
    29   18   29 1   
    30   19   20 1   
    31   20   21 1   
    32   20   30 1   
    33   20   31 1   
    34   21   32 1   
    35   21   33 1   
@<TRIPOS>SUBSTRUCTURE
     1 WY4         1 TEMP              0 ****  ****    0 ROOT
