@<TRIPOS>MOLECULE
WY4
   33    35     1     0     0
SMALL
bcc


@<TRIPOS>ATOM
      1 S1         -1.2830    2.2220    0.5280 ss        1 WY4     -0.363200
      2 C2         -1.3390    3.5140    1.7500 c3        1 WY4     -0.095600
      3 C3         -0.1650    3.7530    2.6450 ce        1 WY4      0.440300
      4 N4          0.5250    2.8870    3.3050 nf        1 WY4     -0.624300
      5 C5          0.4260    1.5120    3.2110 cf        1 WY4      0.170600
      6 C6          0.3400    0.7290    2.0980 ce        1 WY4     -0.298400
      7 C7          0.3860   -0.7250    2.2500 c         1 WY4      0.593100
      8 O8          0.1760   -1.5420    1.3470 o         1 WY4     -0.566100
      9 C31         0.1400    5.2800    2.8050 c         1 WY4      0.847300
     10 O32         0.9010    5.7750    1.9320 o         1 WY4     -0.799800
     11 O33        -0.4330    5.8770    3.7430 o         1 WY4     -0.799800
     12 C61         0.2300    1.2820    0.7230 c3        1 WY4      0.091300
     13 C62         1.4420    2.0370    0.3300 cc        1 WY4      0.254600
     14 N63         2.6820    1.4300    0.0730 nc        1 WY4     -0.642000
     15 C64         3.5440    2.4510   -0.1540 cd        1 WY4      0.313800
     16 N65         2.8830    3.6960   -0.0830 na        1 WY4     -0.177900
     17 C66         1.5610    3.4440    0.2360 cd        1 WY4     -0.170600
     18 C67         5.0170    2.3830   -0.3960 c3        1 WY4      0.117100
     19 O68         5.5960    3.6580   -0.6780 os        1 WY4     -0.428600
     20 C69         5.0930    4.7180    0.1290 c3        1 WY4      0.114400
     21 C70         3.5870    4.9440   -0.0860 c3        1 WY4      0.001300
     22 HC21       -2.2340    3.3070    2.3930 h1        1 WY4      0.086200
     23 HC22       -1.5450    4.4540    1.1730 h1        1 WY4      0.086200
     24 HC5         0.5230    1.0310    4.2080 h4        1 WY4      0.130000
     25 HC7         0.6200   -1.0800    3.2830 h4        1 WY4     -0.029800
     26 H61         0.0650    0.4340   -0.0080 h1        1 WY4      0.114700
     27 H66         0.8460    4.2590    0.4080 h4        1 WY4      0.232000
     28 H671        5.5230    1.9480    0.5090 h1        1 WY4      0.060700
     29 H672        5.2500    1.7670   -1.3060 h1        1 WY4      0.060700
     30 H691        5.6660    5.6190   -0.2130 h1        1 WY4      0.055700
     31 H692        5.3090    4.5080    1.2090 h1        1 WY4      0.055700
     32 H701        3.1660    5.6080    0.7270 h1        1 WY4      0.084700
     33 H702        3.4240    5.4490   -1.0810 h1        1 WY4      0.084700
@<TRIPOS>BOND
     1    1    2 1   
     2    1   12 1   
     3    2    3 1   
     4    2   22 1   
     5    2   23 1   
     6    3    4 2   
     7    3    9 1   
     8    4    5 1   
     9    5    6 2   
    10    5   24 1   
    11    6    7 1   
    12    6   12 1   
    13    7    8 2   
    14    7   25 1   
    15    9   10 1   
    16    9   11 1   
    17   12   13 1   
    18   12   26 1   
    19   13   14 1   
    20   13   17 2   
    21   14   15 2   
    22   15   16 1   
    23   15   18 1   
    24   16   17 1   
    25   16   21 1   
    26   17   27 1   
    27   18   19 1   
    28   18   28 1   
    29   18   29 1   
    30   19   20 1   
    31   20   21 1   
    32   20   30 1   
    33   20   31 1   
    34   21   32 1   
    35   21   33 1   
@<TRIPOS>SUBSTRUCTURE
     1 WY4         1 TEMP              0 ****  ****    0 ROOT
