@<TRIPOS>MOLECULE
WY4
   33    35     1     0     0
SMALL
bcc


@<TRIPOS>ATOM
      1 S1         -0.1690    2.0600   -0.9090 ss        1 WY4     -0.363200
      2 C2          0.3820    0.3920   -0.6270 c3        1 WY4     -0.095600
      3 C3          0.6110   -0.0980    0.7680 ce        1 WY4      0.440300
      4 N4          1.2500    0.4860    1.7240 nf        1 WY4     -0.624300
      5 C5          1.7410    1.7760    1.7160 cf        1 WY4      0.170600
      6 C6          1.1380    2.9250    1.2980 ce        1 WY4     -0.298400
      7 C7          1.8140    4.2020    1.5230 c         1 WY4      0.593100
      8 O8          1.4470    5.2920    1.0690 o         1 WY4     -0.566100
      9 C31         0.0400   -1.5400    0.9770 c         1 WY4      0.847300
     10 O32        -1.1700   -1.6000    1.3200 o         1 WY4     -0.799800
     11 O33         0.8110   -2.4950    0.7360 o         1 WY4     -0.799800
     12 C61        -0.1980    2.9500    0.6450 c3        1 WY4      0.091300
     13 C62        -1.2700    2.4950    1.5600 cc        1 WY4      0.254600
     14 N63        -1.7090    3.2370    2.6680 nc        1 WY4     -0.642000
     15 C64        -2.6150    2.4480    3.2960 cd        1 WY4      0.313800
     16 N65        -2.7960    1.2330    2.6010 na        1 WY4     -0.177900
     17 C66        -1.9400    1.2490    1.5140 cd        1 WY4     -0.170600
     18 C67        -3.3360    2.7070    4.5780 c3        1 WY4      0.117100
     19 O68        -4.2840    1.6880    4.9020 os        1 WY4     -0.428600
     20 C69        -3.8290    0.3640    4.6380 c3        1 WY4      0.114400
     21 C70        -3.5420    0.1370    3.1430 c3        1 WY4      0.001300
     22 HC21        1.3360    0.2680   -1.2030 h1        1 WY4      0.086200
     23 HC22       -0.3950   -0.2590   -1.1100 h1        1 WY4      0.086200
     24 HC5         2.7340    1.8330    2.2130 h4        1 WY4      0.130000
     25 HC7         2.7380    4.1390    2.1480 h4        1 WY4     -0.029800
     26 H61        -0.4240    4.0030    0.2990 h1        1 WY4      0.114700
     27 H66        -1.8480    0.3850    0.8430 h4        1 WY4      0.232000
     28 H671       -3.9520    3.6440    4.5150 h1        1 WY4      0.060700
     29 H672       -2.5910    2.7850    5.4160 h1        1 WY4      0.060700
     30 H691       -2.9150    0.1480    5.2510 h1        1 WY4      0.055700
     31 H692       -4.6790   -0.2900    4.9650 h1        1 WY4      0.055700
     32 H701       -2.9580   -0.8190    2.9920 h1        1 WY4      0.084700
     33 H702       -4.5180    0.0530    2.5860 h1        1 WY4      0.084700
@<TRIPOS>BOND
     1    1    2 1   
     2    1   12 1   
     3    2    3 1   
     4    2   22 1   
     5    2   23 1   
     6    3    4 2   
     7    3    9 1   
     8    4    5 1   
     9    5    6 2   
    10    5   24 1   
    11    6    7 1   
    12    6   12 1   
    13    7    8 2   
    14    7   25 1   
    15    9   10 1   
    16    9   11 1   
    17   12   13 1   
    18   12   26 1   
    19   13   14 1   
    20   13   17 2   
    21   14   15 2   
    22   15   16 1   
    23   15   18 1   
    24   16   17 1   
    25   16   21 1   
    26   17   27 1   
    27   18   19 1   
    28   18   28 1   
    29   18   29 1   
    30   19   20 1   
    31   20   21 1   
    32   20   30 1   
    33   20   31 1   
    34   21   32 1   
    35   21   33 1   
@<TRIPOS>SUBSTRUCTURE
     1 WY4         1 TEMP              0 ****  ****    0 ROOT
