@<TRIPOS>MOLECULE
WYE
   52    56     1     0     0
SMALL
bcc


@<TRIPOS>ATOM
      1 C1         -4.4330   -1.3810    0.0310 ca        1 WYE     -0.295300
      2 N1         -3.4470   -3.6150    0.0490 nb        1 WYE     -0.664000
      3 C2          4.7840   -1.1320   -0.0860 ca        1 WYE     -0.225000
      4 N2         -0.9640   -3.5990    0.0180 na        1 WYE     -0.165100
      5 O2          2.3300   -0.9680   -0.0580 os        1 WYE     -0.235200
      6 C3          5.9790    1.0370   -0.1300 ca        1 WYE     -0.302000
      7 N3         -3.0550    0.6990   -0.0150 nh        1 WYE     -0.626000
      8 C4         -4.5010   -2.7920    0.0510 ca        1 WYE      0.413200
      9 N4         -3.9890    3.4900   -0.0380 n3        1 WYE     -0.718600
     10 C5         -0.0030   -2.5980   -0.0070 cc        1 WYE     -0.041100
     11 C6         -2.0380   -1.5420    0.0040 ca        1 WYE     -0.147100
     12 C7          3.5620    1.0120   -0.1000 ca        1 WYE     -0.376600
     13 C8         -0.6050   -1.3270   -0.0170 cd        1 WYE     -0.122200
     14 C9         -3.1900   -0.7280    0.0070 ca        1 WYE      0.168600
     15 C10         3.6060   -0.4100   -0.0810 ca        1 WYE      0.208100
     16 C11         5.9730   -0.3640   -0.1110 ca        1 WYE      0.216100
     17 C12         4.7540    1.7340   -0.1240 ca        1 WYE      0.277100
     18 C13        -2.2360   -2.9870    0.0260 ca        1 WYE      0.415800
     19 C14         2.1500    1.4100   -0.0880 c         1 WYE      0.606900
     20 C15         1.4060    0.1200   -0.0610 cc        1 WYE     -0.099100
     21 C16         0.0740   -0.0740   -0.0420 cf        1 WYE      0.017000
     22 C17        -3.5580    1.3260    1.2040 c3        1 WYE      0.136800
     23 C18        -3.5960    1.2930   -1.2340 c3        1 WYE      0.136800
     24 C19        -3.4470    2.8650    1.1590 c3        1 WYE      0.160800
     25 C20        -3.4840    2.8330   -1.2330 c3        1 WYE      0.160800
     26 C21        -0.7310   -5.0070    0.0350 c3        1 WYE      0.029600
     27 C22        -5.4270    3.6350   -0.0170 c3        1 WYE      0.148100
     28 H1         -5.3690   -0.8050    0.0350 ha        1 WYE      0.144000
     29 H2          4.8190   -2.2270   -0.0720 ha        1 WYE      0.170000
     30 H3          6.9200    1.6030   -0.1490 ha        1 WYE      0.158000
     31 HO3         7.8830   -0.4690   -0.1340 ho        1 WYE      0.429000
     32 H4         -5.4860   -3.2940    0.0700 h4        1 WYE      0.024100
     33 HO4         3.8900    3.4340   -0.1360 ho        1 WYE      0.455000
     34 H5          1.0660   -2.8420   -0.0170 h4        1 WYE      0.192000
     35 H16        -0.5550    0.8390   -0.0470 ha        1 WYE      0.184000
     36 H17        -4.6320    1.0430    1.4050 h1        1 WYE      0.041200
     37 H17A       -2.9340    0.9490    2.0610 h1        1 WYE      0.041200
     38 H18        -2.9990    0.8930   -2.0990 h1        1 WYE      0.041200
     39 H18A       -4.6760    1.0060   -1.3940 h1        1 WYE      0.041200
     40 H19        -2.3590    3.1550    1.2130 h1        1 WYE      0.063200
     41 H19A       -3.9680    3.2750    2.0670 h1        1 WYE      0.063200
     42 H20        -4.0330    3.2190   -2.1350 h1        1 WYE      0.063200
     43 H20A       -2.3990    3.1200   -1.3290 h1        1 WYE      0.063200
     44 H21        -1.1860   -5.4590    0.9580 h1        1 WYE      0.058700
     45 H21A       -1.2050   -5.4830   -0.8670 h1        1 WYE      0.058700
     46 H21B        0.3730   -5.2050    0.0250 h1        1 WYE      0.058700
     47 H22        -5.7180    4.2260    0.8900 h1        1 WYE      0.031367
     48 H22A       -5.7460    4.2020   -0.9310 h1        1 WYE      0.031367
     49 H22B       -5.9790    2.6550    0.0040 h1        1 WYE      0.031367
     50 O1          1.6810    2.5500   -0.0970 o         1 WYE     -0.547100
     51 O3          7.1370   -1.0880   -0.1160 oh        1 WYE     -0.488100
     52 O4          4.8050    3.0960   -0.1430 oh        1 WYE     -0.485100
@<TRIPOS>BOND
     1    1    8 ar  
     2    1   14 ar  
     3    1   28 1   
     4    2    8 ar  
     5    2   18 ar  
     6    3   15 ar  
     7    3   16 ar  
     8    3   29 1   
     9    4   10 1   
    10    4   18 1   
    11    4   26 1   
    12    5   15 1   
    13    5   20 1   
    14    6   16 ar  
    15    6   17 ar  
    16    6   30 1   
    17    7   14 1   
    18    7   22 1   
    19    7   23 1   
    20    8   32 1   
    21    9   24 1   
    22    9   25 1   
    23    9   27 1   
    24   10   13 2   
    25   10   34 1   
    26   11   13 1   
    27   11   14 ar  
    28   11   18 ar  
    29   12   15 ar  
    30   12   17 ar  
    31   12   19 1   
    32   13   21 1   
    33   16   51 1   
    34   17   52 1   
    35   19   20 1   
    36   19   50 2   
    37   20   21 2   
    38   21   35 1   
    39   22   24 1   
    40   22   36 1   
    41   22   37 1   
    42   23   25 1   
    43   23   38 1   
    44   23   39 1   
    45   24   40 1   
    46   24   41 1   
    47   25   42 1   
    48   25   43 1   
    49   26   44 1   
    50   26   45 1   
    51   26   46 1   
    52   27   47 1   
    53   27   48 1   
    54   27   49 1   
    55   31   51 1   
    56   33   52 1   
@<TRIPOS>SUBSTRUCTURE
     1 WYE         1 TEMP              0 ****  ****    0 ROOT
