@<TRIPOS>MOLECULE
WYE
   52    50     1     0     0
SMALL
bcc


@<TRIPOS>ATOM
      1 C1          3.5960    1.0360   -1.0080 c1        1 WYE      0.198000
      2 N1          3.2310    0.0270    1.2040 n2        1 WYE     -0.121000
      3 C2         -1.3410    0.3250    8.4680 ca        1 WYE     -0.271000
      4 N2          2.7410   -0.2950    3.6360 n4        1 WYE      0.254000
      5 O2         -0.8070   -0.0510    6.1050 os        1 WYE     -0.127000
      6 C3         -3.7130    0.0180    9.0790 ca        1 WYE     -0.298000
      7 N3         -1.1640    1.0520    1.0420 n3        1 WYE     -0.362000
      8 C4          2.9480    0.2570   -0.1500 c2        1 WYE     -0.408000
      9 N4         -6.7010    0.1320    2.1090 n2        1 WYE     -0.346000
     10 C5          1.4240   -0.5250    4.2450 c2        1 WYE     -0.125000
     11 C6          0.8500    0.1740    2.1040 c2        1 WYE     -0.263000
     12 C7         -3.0330   -0.3130    6.7770 ca        1 WYE     -0.297000
     13 C8          0.3710   -0.2890    3.4090 c2        1 WYE      0.004000
     14 C9          0.1710    0.8130    1.1090 c2        1 WYE      0.088000
     15 C10        -1.7030    0.0040    7.1750 ca        1 WYE      0.164000
     16 C11        -2.3880    0.3230    9.4190 ca        1 WYE      0.185000
     17 C12        -4.0380   -0.3010    7.7470 ca        1 WYE      0.224000
     18 C13         2.3180   -0.0010    2.1110 c2        1 WYE     -0.069000
     19 C14        -3.0060   -0.5930    5.3380 c2        1 WYE      0.333000
     20 C15        -1.5610   -0.4090    4.9610 c2        1 WYE     -0.068000
     21 C16        -1.0090   -0.5190    3.7430 c2        1 WYE     -0.072000
     22 C17        -3.1320   -3.2920    2.1450 c3        1 WYE     -0.274000
     23 C18        -3.8460    2.6230    0.3840 c1        1 WYE     -0.238000
     24 C19        -7.6640   -0.3890    1.6050 c1        1 WYE      0.205000
     25 C20        -3.2030    3.3020   -0.3640 c1        1 WYE     -0.238000
     26 C21         3.4930    0.6590    4.2820 c2        1 WYE     -0.657000
     27 C22        -5.6240    0.7790    2.5080 c1        1 WYE      0.056000
     28 H1          0.7400    1.1670    0.2190 h4        1 WYE      0.152000
     29 H2         -0.3070    0.5670    8.7420 ha        1 WYE      0.168000
     30 H3         -4.4870    0.0320    9.8590 ha        1 WYE      0.163000
     31 HO3        -1.2160    0.8190   10.8470 ho        1 WYE      0.234000
     32 H4          2.1520   -0.3790   -0.6170 h4        1 WYE      0.171000
     33 HO4        -5.8850   -0.5660    8.1460 ho        1 WYE      0.232000
     34 H5          1.4110   -0.8180    5.3010 hx        1 WYE      0.195000
     35 H16        -1.6760   -0.8590    2.9230 ha        1 WYE      0.169000
     36 H17        -2.7960   -4.3250    2.3810 hc        1 WYE      0.068750
     37 H17A       -3.3770   -2.7550    3.0890 hc        1 WYE      0.068750
     38 H18        -1.7410    0.9230    1.8390 hn        1 WYE      0.228500
     39 H18A       -1.5130    1.6620    0.3390 hn        1 WYE      0.228500
     40 H19        -2.3220   -2.7500    1.6100 hc        1 WYE      0.068750
     41 H19A       -4.0360   -3.3350    1.4990 hc        1 WYE      0.068750
     42 H20        -4.4330    2.0210    1.0490 ha        1 WYE      0.236000
     43 H20A       -2.6480    3.9140   -1.0290 ha        1 WYE      0.236000
     44 H21         3.2550   -1.1770    3.5740 hn        1 WYE      0.227000
     45 H21A        2.9940    1.5480    4.6660 hx        1 WYE      0.128500
     46 H21B        4.5560    0.7060    4.0390 hx        1 WYE      0.128500
     47 H22        -3.8240   -0.7490    2.1330 ha        1 WYE      0.008500
     48 H22A       -3.7470   -0.2530    1.6730 ha        1 WYE      0.008500
     49 H22B       -5.3460    0.6100    3.5760 ha        1 WYE      0.078000
     50 O1         -3.9080   -0.8860    4.5560 o         1 WYE     -0.286000
     51 O3         -2.1600    0.6230   10.7350 oh        1 WYE     -0.237000
     52 O4         -5.3130   -0.5990    7.3610 oh        1 WYE     -0.221000
@<TRIPOS>BOND
     1    1    8 1   
     2    2    8 1   
     3    2   18 1   
     4    3   15 1   
     5    3   16 1   
     6    3   29 1   
     7    4   10 1   
     8    4   18 1   
     9    4   26 1   
    10    4   44 1   
    11    5   15 1   
    12    5   20 1   
    13    6   16 1   
    14    6   17 1   
    15    6   30 1   
    16    7   14 1   
    17    7   38 1   
    18    7   39 1   
    19    8   32 1   
    20    9   24 1   
    21    9   27 1   
    22   10   13 1   
    23   10   34 1   
    24   11   13 1   
    25   11   14 1   
    26   11   18 1   
    27   12   15 1   
    28   12   17 1   
    29   12   19 1   
    30   13   21 1   
    31   14   28 1   
    32   16   51 1   
    33   17   52 1   
    34   19   20 1   
    35   19   50 1   
    36   20   21 1   
    37   21   35 1   
    38   22   36 1   
    39   22   37 1   
    40   22   40 1   
    41   22   41 1   
    42   23   25 1   
    43   23   42 1   
    44   25   43 1   
    45   26   45 1   
    46   26   46 1   
    47   27   49 1   
    48   31   51 1   
    49   33   52 1   
    50   47   48 1   
@<TRIPOS>SUBSTRUCTURE
     1 WYE         1 TEMP              0 ****  ****    0 ROOT
