@<TRIPOS>MOLECULE
WYF
   46    50     1     0     0
SMALL
bcc


@<TRIPOS>ATOM
      1 C1          0.4200   -0.4590   -0.2450 c3        1 WYF      0.114700
      2 N1          4.0100    0.1230    5.0090 na        1 WYF     -0.059400
      3 O1          1.8160   -0.5760   -0.0120 os        1 WYF     -0.327900
      4 C2          2.2400   -0.3820    1.2930 ca        1 WYF      0.099100
      5 N2          5.9880    0.6210    6.9800 n3        1 WYF     -0.823200
      6 O2          9.4720   -0.9030    1.4110 o         1 WYF     -0.510100
      7 C3          1.3650   -0.1100    2.3640 ca        1 WYF     -0.181000
      8 O3          6.1120   -1.9320    0.7990 os        1 WYF     -0.211200
      9 C4          1.8600    0.0750    3.6470 ca        1 WYF     -0.110000
     10 O4          6.4970   -4.6430   -3.1430 oh        1 WYF     -0.485100
     11 C5          3.2430   -0.0160    3.8440 ca        1 WYF     -0.071200
     12 O5         10.3670   -2.5230   -1.1300 oh        1 WYF     -0.463100
     13 C6          4.1460   -0.3030    2.7460 ca        1 WYF     -0.026800
     14 C7          3.6260   -0.4780    1.4680 ca        1 WYF     -0.108000
     15 C8          5.4890   -0.3110    3.3000 cc        1 WYF     -0.129200
     16 C9          5.3560   -0.0270    4.6750 cd        1 WYF     -0.014300
     17 C10         3.5800    0.5060    6.3210 c3        1 WYF      0.045300
     18 C11         4.6600    0.2100    7.3880 c3        1 WYF      0.151800
     19 C12         6.4320    0.0760    5.7080 c3        1 WYF      0.210000
     20 C13         6.7520   -0.5160    2.6700 ce        1 WYF     -0.010000
     21 C14         7.0660   -1.2180    1.5690 cd        1 WYF     -0.079100
     22 C15         8.4330   -1.3910    0.9750 c         1 WYF      0.603900
     23 C16         8.2050   -2.2550   -0.1930 ca        1 WYF     -0.309600
     24 C17         9.0300   -2.7980   -1.1770 ca        1 WYF      0.267100
     25 C18         8.4670   -3.6090   -2.1830 ca        1 WYF     -0.358000
     26 C19         7.0880   -3.8600   -2.1860 ca        1 WYF      0.220100
     27 C20         6.2160   -3.3300   -1.2090 ca        1 WYF     -0.218000
     28 C21         6.8090   -2.5400   -0.2410 ca        1 WYF      0.200100
     29 H1          0.0560    0.5640    0.0190 h1        1 WYF      0.041367
     30 H1A        -0.1440   -1.2350    0.3280 h1        1 WYF      0.041367
     31 H1B         0.3240   -0.6380   -1.3470 h1        1 WYF      0.041367
     32 HN2         6.6540    0.3990    7.6960 hn        1 WYF      0.376800
     33 H3          0.2820   -0.0410    2.1950 ha        1 WYF      0.136000
     34 H4          1.1830    0.2900    4.4850 ha        1 WYF      0.133000
     35 HO4         7.1840   -4.9460   -3.7570 ho        1 WYF      0.425000
     36 HO5        10.7950   -2.9670   -1.8790 ho        1 WYF      0.424000
     37 H7          4.2770   -0.6950    0.6090 ha        1 WYF      0.169000
     38 H10         3.3390    1.6080    6.3270 h1        1 WYF      0.060700
     39 H10A        2.6440   -0.0630    6.5850 h1        1 WYF      0.060700
     40 H11         4.6090   -0.8880    7.6450 h1        1 WYF      0.044200
     41 H11A        4.3920    0.7950    8.3130 h1        1 WYF      0.044200
     42 H12         6.8910   -0.9530    5.8160 h1        1 WYF      0.060200
     43 H12A        7.2350    0.7700    5.3190 h1        1 WYF      0.060200
     44 H13         7.6140   -0.0370    3.1830 ha        1 WYF      0.149000
     45 H18         9.1100   -4.0400   -2.9620 ha        1 WYF      0.140000
     46 H20         5.1400   -3.5390   -1.2320 ha        1 WYF      0.178000
@<TRIPOS>BOND
     1    1    3 1   
     2    1   29 1   
     3    1   30 1   
     4    1   31 1   
     5    2   11 1   
     6    2   16 1   
     7    2   17 1   
     8    3    4 1   
     9    4    7 ar  
    10    4   14 ar  
    11    5   18 1   
    12    5   19 1   
    13    5   32 1   
    14    6   22 2   
    15    7    9 ar  
    16    7   33 1   
    17    8   21 1   
    18    8   28 1   
    19    9   11 ar  
    20    9   34 1   
    21   10   26 1   
    22   10   35 1   
    23   11   13 ar  
    24   12   24 1   
    25   12   36 1   
    26   13   14 ar  
    27   13   15 1   
    28   14   37 1   
    29   15   16 2   
    30   15   20 1   
    31   16   19 1   
    32   17   18 1   
    33   17   38 1   
    34   17   39 1   
    35   18   40 1   
    36   18   41 1   
    37   19   42 1   
    38   19   43 1   
    39   20   21 2   
    40   20   44 1   
    41   21   22 1   
    42   22   23 1   
    43   23   24 ar  
    44   23   28 ar  
    45   24   25 ar  
    46   25   26 ar  
    47   25   45 1   
    48   26   27 ar  
    49   27   28 ar  
    50   27   46 1   
@<TRIPOS>SUBSTRUCTURE
     1 WYF         1 TEMP              0 ****  ****    0 ROOT
