@<TRIPOS>MOLECULE
WYF
   46    50     1     0     0
SMALL
bcc


@<TRIPOS>ATOM
      1 C1          0.4430   -0.4840   -0.2570 c3        1 WYF      0.115700
      2 N1          4.0220    0.0900    5.0030 na        1 WYF     -0.059400
      3 O1          1.8270   -0.6890   -0.0060 os        1 WYF     -0.330900
      4 C2          2.2520   -0.4660    1.2950 ca        1 WYF      0.097100
      5 N2          5.9940    0.6400    6.9660 n3        1 WYF     -0.823200
      6 O2          9.4970   -0.8360    1.3960 o         1 WYF     -0.509100
      7 C3          1.3750   -0.2110    2.3680 ca        1 WYF     -0.180000
      8 O3          6.1540   -1.9210    0.7870 os        1 WYF     -0.213200
      9 C4          1.8700   -0.0100    3.6480 ca        1 WYF     -0.110000
     10 O4          6.7040   -4.6200   -3.2270 oh        1 WYF     -0.490100
     11 C5          3.2550   -0.0690    3.8410 ca        1 WYF     -0.070200
     12 O5         10.4140   -2.4350   -1.1560 oh        1 WYF     -0.464100
     13 C6          4.1610   -0.3400    2.7410 ca        1 WYF     -0.026800
     14 C7          3.6410   -0.5290    1.4650 ca        1 WYF     -0.108000
     15 C8          5.5050   -0.3170    3.2910 cc        1 WYF     -0.129200
     16 C9          5.3710   -0.0310    4.6650 cd        1 WYF     -0.014300
     17 C10         3.5870    0.4680    6.3150 c3        1 WYF      0.045300
     18 C11         4.6780    0.2000    7.3800 c3        1 WYF      0.151800
     19 C12         6.4470    0.1000    5.6950 c3        1 WYF      0.210000
     20 C13         6.7710   -0.4980    2.6580 ce        1 WYF     -0.011000
     21 C14         7.0970   -1.1920    1.5570 cd        1 WYF     -0.079100
     22 C15         8.4660   -1.3400    0.9590 c         1 WYF      0.603900
     23 C16         8.2490   -2.2040   -0.2110 ca        1 WYF     -0.309600
     24 C17         9.0810   -2.7310   -1.2010 ca        1 WYF      0.262100
     25 C18         8.5320   -3.5460   -2.2100 ca        1 WYF     -0.302000
     26 C19         7.1570   -3.8190   -2.2100 ca        1 WYF      0.220100
     27 C20         6.2800   -3.3080   -1.2290 ca        1 WYF     -0.279000
     28 C21         6.8600   -2.5120   -0.2570 ca        1 WYF      0.208100
     29 H1         -0.1720   -1.2370    0.2940 h1        1 WYF      0.041033
     30 H1A         0.3530   -0.6390   -1.3630 h1        1 WYF      0.041033
     31 H1B         0.1340    0.5520    0.0210 h1        1 WYF      0.041033
     32 HN2         6.6680    0.4370    7.6810 hn        1 WYF      0.377800
     33 H3          0.2900   -0.1690    2.2020 ha        1 WYF      0.136000
     34 H4          1.1910    0.1930    4.4870 ha        1 WYF      0.133000
     35 HO4         5.7470   -4.7310   -3.1230 ho        1 WYF      0.430000
     36 HO5        10.8460   -2.8690   -1.9080 ho        1 WYF      0.427000
     37 H7          4.2950   -0.7310    0.6040 ha        1 WYF      0.168000
     38 H10         3.3220    1.5650    6.3190 h1        1 WYF      0.060700
     39 H10A        2.6660   -0.1210    6.5840 h1        1 WYF      0.060700
     40 H11         4.6520   -0.8980    7.6410 h1        1 WYF      0.044200
     41 H11A        4.3990    0.7820    8.3030 h1        1 WYF      0.044200
     42 H12         6.9290   -0.9190    5.8050 h1        1 WYF      0.060200
     43 H12A        7.2330    0.8090    5.3010 h1        1 WYF      0.060200
     44 H13         7.6250   -0.0030    3.1710 ha        1 WYF      0.149000
     45 H18         9.1680   -3.9700   -2.9980 ha        1 WYF      0.157000
     46 H20         5.2060   -3.5250   -1.2370 ha        1 WYF      0.163000
@<TRIPOS>BOND
     1    1    3 1   
     2    1   29 1   
     3    1   30 1   
     4    1   31 1   
     5    2   11 1   
     6    2   16 1   
     7    2   17 1   
     8    3    4 1   
     9    4    7 ar  
    10    4   14 ar  
    11    5   18 1   
    12    5   19 1   
    13    5   32 1   
    14    6   22 2   
    15    7    9 ar  
    16    7   33 1   
    17    8   21 1   
    18    8   28 1   
    19    9   11 ar  
    20    9   34 1   
    21   10   26 1   
    22   10   35 1   
    23   11   13 ar  
    24   12   24 1   
    25   12   36 1   
    26   13   14 ar  
    27   13   15 1   
    28   14   37 1   
    29   15   16 2   
    30   15   20 1   
    31   16   19 1   
    32   17   18 1   
    33   17   38 1   
    34   17   39 1   
    35   18   40 1   
    36   18   41 1   
    37   19   42 1   
    38   19   43 1   
    39   20   21 2   
    40   20   44 1   
    41   21   22 1   
    42   22   23 1   
    43   23   24 ar  
    44   23   28 ar  
    45   24   25 ar  
    46   25   26 ar  
    47   25   45 1   
    48   26   27 ar  
    49   27   28 ar  
    50   27   46 1   
@<TRIPOS>SUBSTRUCTURE
     1 WYF         1 TEMP              0 ****  ****    0 ROOT
