@<TRIPOS>MOLECULE
WYF
   46    42     1     0     0
SMALL
bcc


@<TRIPOS>ATOM
      1 C1         -5.6170   -1.7100   -1.9430 c3        1 WYF     -0.075000
      2 N1         -0.8610   -1.4960    2.4680 n2        1 WYF     -0.156000
      3 O1         -4.2340   -1.4180   -2.0420 os        1 WYF     -0.211000
      4 C2         -3.4860   -1.6610   -0.8010 c2        1 WYF      0.062000
      5 N2          0.7030   -0.2360    4.4920 n3        1 WYF     -0.301000
      6 O2          0.8640    4.0420   -0.9460 o         1 WYF     -0.267000
      7 C3         -3.6330   -2.6810    0.1690 c1        1 WYF     -0.185000
      8 O3          1.5620    0.5460   -1.0980 os        1 WYF     -0.142000
      9 C4         -2.7570   -2.7440    1.2530 c1        1 WYF     -0.103000
     10 O4          5.4020    0.8070   -4.4850 oh        1 WYF     -0.241000
     11 C5         -1.7140   -1.7830    1.3880 c1        1 WYF     -0.026000
     12 O5          3.0180    4.6580   -3.3050 oh        1 WYF     -0.215000
     13 C6         -1.5640   -0.7750    0.4380 c1        1 WYF     -0.027000
     14 C7         -2.4540   -0.7080   -0.6690 c2        1 WYF     -0.123000
     15 C8         -0.5830    0.1720    0.9410 c1        1 WYF     -0.155000
     16 C9         -0.1600   -0.2690    2.1710 c1        1 WYF      0.055000
     17 C10        -0.5410   -2.1790    3.7650 c2        1 WYF     -0.015000
     18 C11         0.5540   -1.6040    4.5470 c3        1 WYF     -0.086000
     19 C12         0.7760    0.3300    3.2980 c2        1 WYF     -0.037000
     20 C13        -0.1920    1.5390    0.3780 c1        1 WYF      0.009000
     21 C14         0.8070    1.6350   -0.5610 c2        1 WYF     -0.126000
     22 C15         1.2870    2.8680   -1.1850 c2        1 WYF      0.327000
     23 C16         2.3780    2.5060   -2.1260 c2        1 WYF     -0.284000
     24 C17         3.1900    3.2840   -2.9760 c2        1 WYF      0.223000
     25 C18         4.1450    2.6670   -3.7800 c1        1 WYF     -0.357000
     26 C19         4.3000    1.2650   -3.7440 c1        1 WYF      0.176000
     27 C20         3.4950    0.4890   -2.8990 c1        1 WYF     -0.226000
     28 C21         2.5360    1.1010   -2.0920 c1        1 WYF      0.156000
     29 H1         -6.0590   -1.3400   -2.6490 h1        1 WYF      0.081667
     30 H1A        -5.7430   -2.6530   -1.9510 h1        1 WYF      0.081667
     31 H1B        -5.9630   -1.3470   -1.1220 h1        1 WYF      0.081667
     32 HN2         1.4480    0.0120    4.9980 hn        1 WYF      0.171000
     33 H3         -4.3580   -3.2790    0.1160 ha        1 WYF      0.137000
     34 H4         -2.8570   -3.4420    1.9150 ha        1 WYF      0.134000
     35 HO4         5.1390    0.6210   -5.3370 ho        1 WYF      0.226000
     36 HO5         3.5970    5.1630   -2.8140 ho        1 WYF      0.224000
     37 H7         -2.4230    0.0610   -1.2730 ha        1 WYF      0.156000
     38 H10        -1.3680   -2.1740    4.3330 ha        1 WYF      0.098500
     39 H10A       -0.3180   -3.0920    3.5720 ha        1 WYF      0.098500
     40 H11         0.4160   -1.8540    5.4910 h1        1 WYF      0.082500
     41 H11A        1.4070   -2.0220    4.2360 h1        1 WYF      0.082500
     42 H12         1.6830    0.2640    2.9940 h4        1 WYF      0.112500
     43 H12A        0.5520    1.2980    3.4020 h4        1 WYF      0.112500
     44 H13        -0.6850    2.4020    0.7060 ha        1 WYF      0.161000
     45 H18         4.7270    3.2170   -4.3700 ha        1 WYF      0.141000
     46 H20         3.5830   -0.4820   -2.9020 ha        1 WYF      0.169000
@<TRIPOS>BOND
     1    1    3 1   
     2    1   29 1   
     3    1   30 1   
     4    1   31 1   
     5    2   11 1   
     6    2   16 1   
     7    3    4 1   
     8    4    7 1   
     9    4   14 1   
    10    5   18 1   
    11    5   19 1   
    12    5   32 1   
    13    6   22 1   
    14    7   33 1   
    15    8   21 1   
    16    8   28 1   
    17    9   11 1   
    18    9   34 1   
    19   10   26 1   
    20   10   35 1   
    21   12   24 1   
    22   12   36 1   
    23   13   14 1   
    24   14   37 1   
    25   15   16 1   
    26   17   18 1   
    27   17   38 1   
    28   17   39 1   
    29   18   40 1   
    30   18   41 1   
    31   19   42 1   
    32   19   43 1   
    33   20   21 1   
    34   20   44 1   
    35   21   22 1   
    36   22   23 1   
    37   23   24 1   
    38   23   28 1   
    39   24   25 1   
    40   25   45 1   
    41   26   27 1   
    42   27   46 1   
@<TRIPOS>SUBSTRUCTURE
     1 WYF         1 TEMP              0 ****  ****    0 ROOT
