@<TRIPOS>MOLECULE
WYF
   46    50     1     0     0
SMALL
bcc


@<TRIPOS>ATOM
      1 C1         -1.5680    5.2790    0.4480 c3        1 WYF      0.114700
      2 N1         -3.7160   -0.6900   -0.3260 na        1 WYF     -0.063400
      3 O1         -0.9390    4.0070    0.5300 os        1 WYF     -0.326900
      4 C2         -1.7450    2.9060    0.2880 ca        1 WYF      0.100100
      5 N2         -4.2920   -3.4810   -0.2160 n3        1 WYF     -0.795200
      6 O2          2.3840   -3.0280    0.9340 o         1 WYF     -0.550100
      7 C3         -3.1220    2.9950    0.0010 ca        1 WYF     -0.180000
      8 O3          1.3490    0.1460   -0.3470 os        1 WYF     -0.210200
      9 C4         -3.8690    1.8480   -0.2220 ca        1 WYF     -0.110000
     10 O4          5.5620    2.2470   -1.3310 oh        1 WYF     -0.486100
     11 C5         -3.2190    0.6100   -0.1570 ca        1 WYF     -0.071200
     12 O5          5.4180   -2.1750    0.5060 oh        1 WYF     -0.486100
     13 C6         -1.8020    0.5140    0.1270 ca        1 WYF     -0.028800
     14 C7         -1.0750    1.6780    0.3560 ca        1 WYF     -0.108000
     15 C8         -1.4700   -0.9000    0.1300 cc        1 WYF     -0.125200
     16 C9         -2.6680   -1.5940   -0.1370 cd        1 WYF     -0.050300
     17 C10        -5.0690   -1.0920   -0.5790 c3        1 WYF      0.004300
     18 C11        -5.1710   -2.5940   -0.9480 c3        1 WYF      0.140800
     19 C12        -2.9010   -3.0690   -0.2730 c3        1 WYF      0.200000
     20 C13        -0.2300   -1.5600    0.3770 ce        1 WYF     -0.003000
     21 C14         1.0290   -1.1320    0.1870 cd        1 WYF     -0.072100
     22 C15         2.2860   -1.8900    0.4700 c         1 WYF      0.601900
     23 C16         3.3560   -0.9750    0.0640 ca        1 WYF     -0.379600
     24 C17         4.7460   -1.0720    0.0670 ca        1 WYF      0.277100
     25 C18         5.5120    0.0130   -0.4030 ca        1 WYF     -0.304000
     26 C19         4.8610    1.1650   -0.8630 ca        1 WYF      0.217100
     27 C20         3.4520    1.3030   -0.8830 ca        1 WYF     -0.218000
     28 C21         2.7400    0.2170   -0.4140 ca        1 WYF      0.206100
     29 H1         -1.9800    5.4540   -0.5750 h1        1 WYF      0.042033
     30 H1A        -2.3730    5.3730    1.2170 h1        1 WYF      0.042033
     31 H1B        -0.7340    5.9950    0.6640 h1        1 WYF      0.042033
     32 HN2        -4.5920   -3.5530    0.7400 hn        1 WYF      0.361800
     33 H3         -3.6190    3.9740   -0.0470 ha        1 WYF      0.137000
     34 H4         -4.9430    1.9120   -0.4430 ha        1 WYF      0.133000
     35 HO4         6.5090    2.0470   -1.2710 ho        1 WYF      0.429000
     36 HO5         4.7620   -2.8340    0.7980 ho        1 WYF      0.454000
     37 H7          0.0020    1.6480    0.5780 ha        1 WYF      0.169000
     38 H10        -5.6890   -0.8850    0.3410 h1        1 WYF      0.057200
     39 H10A       -5.4870   -0.4760   -1.4240 h1        1 WYF      0.057200
     40 H11        -4.9360   -2.7110   -2.0430 h1        1 WYF      0.068700
     41 H11A       -6.2350   -2.9170   -0.7790 h1        1 WYF      0.068700
     42 H12        -2.3220   -3.6070    0.5310 h1        1 WYF      0.079700
     43 H12A       -2.4900   -3.3940   -1.2740 h1        1 WYF      0.079700
     44 H13        -0.3190   -2.5960    0.7690 ha        1 WYF      0.148000
     45 H18         6.6070   -0.0610   -0.4010 ha        1 WYF      0.158000
     46 H20         2.9770    2.2200   -1.2490 ha        1 WYF      0.177000
@<TRIPOS>BOND
     1    1    3 1   
     2    1   29 1   
     3    1   30 1   
     4    1   31 1   
     5    2   11 1   
     6    2   16 1   
     7    2   17 1   
     8    3    4 1   
     9    4    7 ar  
    10    4   14 ar  
    11    5   18 1   
    12    5   19 1   
    13    5   32 1   
    14    6   22 2   
    15    7    9 ar  
    16    7   33 1   
    17    8   21 1   
    18    8   28 1   
    19    9   11 ar  
    20    9   34 1   
    21   10   26 1   
    22   10   35 1   
    23   11   13 ar  
    24   12   24 1   
    25   12   36 1   
    26   13   14 ar  
    27   13   15 1   
    28   14   37 1   
    29   15   16 2   
    30   15   20 1   
    31   16   19 1   
    32   17   18 1   
    33   17   38 1   
    34   17   39 1   
    35   18   40 1   
    36   18   41 1   
    37   19   42 1   
    38   19   43 1   
    39   20   21 2   
    40   20   44 1   
    41   21   22 1   
    42   22   23 1   
    43   23   24 ar  
    44   23   28 ar  
    45   24   25 ar  
    46   25   26 ar  
    47   25   45 1   
    48   26   27 ar  
    49   27   28 ar  
    50   27   46 1   
@<TRIPOS>SUBSTRUCTURE
     1 WYF         1 TEMP              0 ****  ****    0 ROOT
