@<TRIPOS>MOLECULE
WYF
   46    50     1     0     0
SMALL
bcc


@<TRIPOS>ATOM
      1 C1          0.4870   -0.4860   -0.2890 c3        1 WYF      0.115700
      2 N1          4.0110    0.0930    5.0070 na        1 WYF     -0.059400
      3 O1          1.8660   -0.7000   -0.0210 os        1 WYF     -0.330900
      4 C2          2.2790   -0.4720    1.2830 ca        1 WYF      0.097100
      5 N2          5.9650    0.6390    6.9900 n7        1 WYF     -0.823200
      6 O2          9.5190   -0.8950    1.4670 o         1 WYF     -0.509100
      7 C3          1.3920   -0.2050    2.3450 ca        1 WYF     -0.180000
      8 O3          6.1750   -1.9590    0.8280 os        1 WYF     -0.213200
      9 C4          1.8740    0.0010    3.6300 ca        1 WYF     -0.110000
     10 O4          6.7500   -4.6870   -3.1640 oh        1 WYF     -0.490100
     11 C5          3.2560   -0.0680    3.8380 ca        1 WYF     -0.070200
     12 O5         10.4520   -2.5150   -1.0650 oh        1 WYF     -0.464100
     13 C6          4.1720   -0.3520    2.7500 ca        1 WYF     -0.026800
     14 C7          3.6650   -0.5440    1.4690 ca        1 WYF     -0.108000
     15 C8          5.5100   -0.3350    3.3140 cc        1 WYF     -0.129200
     16 C9          5.3630   -0.0410    4.6860 cd        1 WYF     -0.014300
     17 C10         3.5650    0.4810    6.3130 c3        1 WYF      0.045300
     18 C11         4.6410    0.2120    7.3910 c3        1 WYF      0.151800
     19 C12         6.4280    0.0880    5.7270 c3        1 WYF      0.210000
     20 C13         6.7820   -0.5290    2.6970 ce        1 WYF     -0.011000
     21 C14         7.1150   -1.2320    1.6040 cd        1 WYF     -0.079100
     22 C15         8.4890   -1.3940    1.0210 c         1 WYF      0.603900
     23 C16         8.2790   -2.2630   -0.1460 ca        1 WYF     -0.309600
     24 C17         9.1170   -2.8020   -1.1230 ca        1 WYF      0.262100
     25 C18         8.5740   -3.6190   -2.1330 ca        1 WYF     -0.302000
     26 C19         7.1970   -3.8830   -2.1470 ca        1 WYF      0.220100
     27 C20         6.3130   -3.3590   -1.1790 ca        1 WYF     -0.279000
     28 C21         6.8880   -2.5620   -0.2050 ca        1 WYF      0.208100
     29 H1          0.1830    0.5550   -0.0200 h1        1 WYF      0.041033
     30 H1A         0.4080   -0.6460   -1.3940 h1        1 WYF      0.041033
     31 H1B        -0.1410   -1.2300    0.2590 h1        1 WYF      0.041033
     32 HN2         6.6300    0.4360    7.7130 hn        1 WYF      0.377800
     33 H3          0.3090   -0.1550    2.1670 ha        1 WYF      0.136000
     34 H4          1.1870    0.2130    4.4600 ha        1 WYF      0.133000
     35 HO4         5.7900   -4.7900   -3.0700 ho        1 WYF      0.430000
     36 HO5        10.8890   -2.9580   -1.8090 ho        1 WYF      0.427000
     37 H7          4.3270   -0.7570    0.6160 ha        1 WYF      0.168000
     38 H10         3.3080    1.5800    6.3070 h1        1 WYF      0.060700
     39 H10A        2.6360   -0.0990    6.5740 h1        1 WYF      0.060700
     40 H11         4.3570    0.8010    8.3080 h1        1 WYF      0.044200
     41 H11A        4.6040   -0.8850    7.6580 h1        1 WYF      0.044200
     42 H12         6.9010   -0.9330    5.8480 h1        1 WYF      0.060200
     43 H12A        7.2240    0.7900    5.3370 h1        1 WYF      0.060200
     44 H13         7.6330   -0.0370    3.2160 ha        1 WYF      0.149000
     45 H18         9.2150   -4.0530   -2.9110 ha        1 WYF      0.157000
     46 H20         5.2380   -3.5680   -1.1970 ha        1 WYF      0.163000
@<TRIPOS>BOND
     1    1    3 1   
     2    1   29 1   
     3    1   30 1   
     4    1   31 1   
     5    2   11 1   
     6    2   16 1   
     7    2   17 1   
     8    3    4 1   
     9    4    7 ar  
    10    4   14 ar  
    11    5   18 1   
    12    5   19 1   
    13    5   32 1   
    14    6   22 2   
    15    7    9 ar  
    16    7   33 1   
    17    8   21 1   
    18    8   28 1   
    19    9   11 ar  
    20    9   34 1   
    21   10   26 1   
    22   10   35 1   
    23   11   13 ar  
    24   12   24 1   
    25   12   36 1   
    26   13   14 ar  
    27   13   15 1   
    28   14   37 1   
    29   15   16 2   
    30   15   20 1   
    31   16   19 1   
    32   17   18 1   
    33   17   38 1   
    34   17   39 1   
    35   18   40 1   
    36   18   41 1   
    37   19   42 1   
    38   19   43 1   
    39   20   21 2   
    40   20   44 1   
    41   21   22 1   
    42   22   23 1   
    43   23   24 ar  
    44   23   28 ar  
    45   24   25 ar  
    46   25   26 ar  
    47   25   45 1   
    48   26   27 ar  
    49   27   28 ar  
    50   27   46 1   
@<TRIPOS>SUBSTRUCTURE
     1 WYF         1 TEMP              0 ****  ****    0 ROOT
