@<TRIPOS>MOLECULE
WYQ
   61    62     1     0     0
SMALL
bcc


@<TRIPOS>ATOM
      1 C16         0.5490    0.0290   -0.2390 c3        1 WYQ     -0.116600
      2 C15         2.0630    0.0760   -0.2140 c3        1 WYQ      0.163100
      3 C17         2.6460   -0.5900    1.0120 c3        1 WYQ     -0.116600
      4 O6          2.4670   -0.6760   -1.4040 os        1 WYQ     -0.425900
      5 C14         3.6870   -0.4070   -1.9250 c         1 WYQ      0.707100
      6 O5          4.4730    0.3830   -1.3840 o         1 WYQ     -0.561000
      7 N5          3.9940   -1.1560   -3.1040 nt        1 WYQ     -0.673000
      8 S1          6.3210   -2.0890   -3.2350 s4        1 WYQ      1.692300
      9 O4          5.8540   -3.2870   -3.6710 o         1 WYQ     -0.433400
     10 O3          6.5890   -1.0730   -4.0920 o         1 WYQ     -0.433400
     11 C8          6.7670   -1.9760   -1.7720 ca        1 WYQ     -0.690500
     12 C7          7.0860   -0.7110   -1.1900 ca        1 WYQ      0.094000
     13 C9          6.8830   -3.1180   -0.9220 ca        1 WYQ      0.077000
     14 C10         7.2850   -3.0180    0.3840 ca        1 WYQ     -0.252000
     15 C11         7.5710   -1.7440    0.9500 ca        1 WYQ      0.330100
     16 O2          7.9180   -1.5450    2.2280 os        1 WYQ     -0.257900
     17 C12         8.1050   -2.7060    3.0830 c3        1 WYQ      0.124400
     18 C13         8.5390   -2.1440    4.4140 c3        1 WYQ     -0.110100
     19 C6          7.4520   -0.5790    0.1280 ca        1 WYQ     -0.182900
     20 C5          7.7220    0.7740    0.6850 cc        1 WYQ      0.470500
     21 N4          6.6330    1.6660    0.6450 ns        1 WYQ     -0.482400
     22 C4          6.7320    2.9790    1.1420 c         1 WYQ      0.736100
     23 O1          5.7430    3.7310    1.1010 o         1 WYQ     -0.618500
     24 N3          8.9320    1.0420    1.1570 nd        1 WYQ     -0.512100
     25 C2          9.1040    2.3170    1.6530 cd        1 WYQ     -0.018900
     26 C3          8.0530    3.2990    1.6690 cc        1 WYQ     -0.202900
     27 N2          8.5820    4.4510    2.2370 na        1 WYQ      0.160400
     28 C18         7.8580    5.6890    2.4440 c3        1 WYQ      0.022600
     29 N1          9.8670    4.2730    2.5720 nc        1 WYQ     -0.468800
     30 C1         10.2420    2.9990    2.2430 cd        1 WYQ      0.361600
     31 C19        11.5900    2.4190    2.4280 c3        1 WYQ     -0.106700
     32 C20        12.3120    2.9510    3.6500 c3        1 WYQ     -0.079400
     33 C21        13.6350    2.2520    3.8390 c3        1 WYQ     -0.095100
     34 H1          0.1850   -1.0240   -0.1800 hc        1 WYQ      0.060700
     35 H2          0.1590    0.4890   -1.1790 hc        1 WYQ      0.060700
     36 H3          0.1600    0.6010    0.6370 hc        1 WYQ      0.060700
     37 H4          2.4430    1.1300   -0.3190 h1        1 WYQ      0.084700
     38 H5          2.2830   -0.0590    1.9250 hc        1 WYQ      0.060700
     39 H6          2.3320   -1.6600    1.0690 hc        1 WYQ      0.060700
     40 H7          3.7600   -0.5380    0.9830 hc        1 WYQ      0.060700
     41 H8          3.2950   -1.8620   -3.2800 hn        1 WYQ      0.317500
     42 H9          7.0040    0.1970   -1.8230 ha        1 WYQ      0.188000
     43 H10         6.6410   -4.1140   -1.3440 ha        1 WYQ      0.172000
     44 H11         7.3810   -3.9260    1.0010 ha        1 WYQ      0.179000
     45 H12         7.1290   -3.2520    3.1560 h1        1 WYQ      0.062200
     46 H13         8.8930   -3.3600    2.6290 h1        1 WYQ      0.062200
     47 H14         8.7200   -2.9930    5.1170 hc        1 WYQ      0.072033
     48 H15         7.7490   -1.4780    4.8380 hc        1 WYQ      0.072033
     49 H16         9.4790   -1.5500    4.3040 hc        1 WYQ      0.072033
     50 H17         5.7680    1.3720    0.2430 hn        1 WYQ      0.349500
     51 H18         8.3620    6.5190    1.8810 h1        1 WYQ      0.081033
     52 H19         7.8450    5.9390    3.5390 h1        1 WYQ      0.081033
     53 H20         6.8080    5.5530    2.0680 h1        1 WYQ      0.081033
     54 H21        12.2000    2.6370    1.5070 hc        1 WYQ      0.063700
     55 H22        11.4870    1.3030    2.5050 hc        1 WYQ      0.063700
     56 H23        11.6720    2.8030    4.5590 hc        1 WYQ      0.053200
     57 H24        12.4830    4.0540    3.5400 hc        1 WYQ      0.053200
     58 H25        13.4870    1.1540    3.9840 hc        1 WYQ      0.036700
     59 H26        14.2930    2.4030    2.9500 hc        1 WYQ      0.036700
     60 H27        14.1580    2.6590    4.7380 hc        1 WYQ      0.036700
     61 H52         4.0530   -0.5270   -3.8930 hn        1 WYQ      0.317500
@<TRIPOS>BOND
     1    1    2 1   
     2    1   34 1   
     3    1   35 1   
     4    1   36 1   
     5    2    3 1   
     6    2    4 1   
     7    2   37 1   
     8    3   38 1   
     9    3   39 1   
    10    3   40 1   
    11    4    5 1   
    12    5    6 2   
    13    5    7 1   
    14    7   41 1   
    15    7   61 1   
    16    8    9 1   
    17    8   10 1   
    18    8   11 1   
    19   11   12 ar  
    20   11   13 ar  
    21   12   19 ar  
    22   12   42 1   
    23   13   14 ar  
    24   13   43 1   
    25   14   15 ar  
    26   14   44 1   
    27   15   16 1   
    28   15   19 ar  
    29   16   17 1   
    30   17   18 1   
    31   17   45 1   
    32   17   46 1   
    33   18   47 1   
    34   18   48 1   
    35   18   49 1   
    36   19   20 1   
    37   20   21 1   
    38   20   24 2   
    39   21   22 1   
    40   21   50 1   
    41   22   23 2   
    42   22   26 1   
    43   24   25 1   
    44   25   26 2   
    45   25   30 1   
    46   26   27 1   
    47   27   28 1   
    48   27   29 1   
    49   28   51 1   
    50   28   52 1   
    51   28   53 1   
    52   29   30 2   
    53   30   31 1   
    54   31   32 1   
    55   31   54 1   
    56   31   55 1   
    57   32   33 1   
    58   32   56 1   
    59   32   57 1   
    60   33   58 1   
    61   33   59 1   
    62   33   60 1   
@<TRIPOS>SUBSTRUCTURE
     1 WYQ         1 TEMP              0 ****  ****    0 ROOT
