@<TRIPOS>MOLECULE
WYQ
   61    62     1     0     0
SMALL
bcc


@<TRIPOS>ATOM
      1 C16         0.5470    0.0620   -0.2470 c3        1 WYQ     -0.116600
      2 C15         2.0610    0.0990   -0.2190 c3        1 WYQ      0.163100
      3 C17         2.6370   -0.5680    1.0100 c3        1 WYQ     -0.116600
      4 O6          2.4620   -0.6580   -1.4070 os        1 WYQ     -0.425900
      5 C14         3.6850   -0.3970   -1.9250 c         1 WYQ      0.707100
      6 O5          4.4750    0.3890   -1.3850 o         1 WYQ     -0.561000
      7 N5          3.9900   -1.1510   -3.1030 n         1 WYQ     -0.673000
      8 S1          6.3110   -2.0980   -3.2270 s4        1 WYQ      1.692300
      9 O4          5.8380   -3.2940   -3.6610 o         1 WYQ     -0.433400
     10 O3          6.5870   -1.0850   -4.0870 o         1 WYQ     -0.433400
     11 C8          6.7570   -1.9830   -1.7640 ca        1 WYQ     -0.690500
     12 C7          7.0810   -0.7190   -1.1850 ca        1 WYQ      0.094000
     13 C9          6.8650   -3.1240   -0.9100 ca        1 WYQ      0.077000
     14 C10         7.2650   -3.0220    0.3950 ca        1 WYQ     -0.252000
     15 C11         7.5570   -1.7480    0.9590 ca        1 WYQ      0.330100
     16 O2          7.9040   -1.5480    2.2360 os        1 WYQ     -0.257900
     17 C12         8.0830   -2.7080    3.0950 c3        1 WYQ      0.124400
     18 C13         8.5180   -2.1440    4.4250 c3        1 WYQ     -0.110100
     19 C6          7.4460   -0.5860    0.1340 ca        1 WYQ     -0.182900
     20 C5          7.7230    0.7680    0.6870 cc        1 WYQ      0.470500
     21 N4          6.6400    1.6650    0.6430 n         1 WYQ     -0.482400
     22 C4          6.7450    2.9790    1.1370 c         1 WYQ      0.736100
     23 O1          5.7600    3.7370    1.0930 o         1 WYQ     -0.618500
     24 N3          8.9350    1.0300    1.1600 nd        1 WYQ     -0.512100
     25 C2          9.1130    2.3060    1.6520 cd        1 WYQ     -0.018900
     26 C3          8.0670    3.2930    1.6650 cc        1 WYQ     -0.202900
     27 N2          8.6020    4.4440    2.2300 na        1 WYQ      0.160400
     28 C18         7.8840    5.6860    2.4330 c3        1 WYQ      0.022600
     29 N1          9.8850    4.2600    2.5670 nc        1 WYQ     -0.468800
     30 C1         10.2540    2.9840    2.2420 cd        1 WYQ      0.361600
     31 C19        11.5980    2.3950    2.4290 c3        1 WYQ     -0.106700
     32 C20        12.3340    2.9430    3.6360 c3        1 WYQ     -0.079400
     33 C21        13.6510    2.2370    3.8300 c3        1 WYQ     -0.095100
     34 H1          0.1760   -0.9890   -0.1860 hc        1 WYQ      0.060700
     35 H2          0.1620    0.5220   -1.1880 hc        1 WYQ      0.060700
     36 H3          0.1590    0.6380    0.6280 hc        1 WYQ      0.060700
     37 H4          2.4480    1.1500   -0.3250 h1        1 WYQ      0.084700
     38 H5          2.2760   -0.0330    1.9210 hc        1 WYQ      0.060700
     39 H6          2.3160   -1.6360    1.0680 hc        1 WYQ      0.060700
     40 H7          3.7520   -0.5240    0.9830 hc        1 WYQ      0.060700
     41 H8          3.2870   -1.8540   -3.2780 hn        1 WYQ      0.317500
     42 H9          7.0050    0.1890   -1.8210 ha        1 WYQ      0.188000
     43 H10         6.6170   -4.1190   -1.3300 ha        1 WYQ      0.172000
     44 H11         7.3550   -3.9290    1.0150 ha        1 WYQ      0.179000
     45 H12         7.1040   -3.2480    3.1680 h1        1 WYQ      0.062200
     46 H13         8.8680   -3.3680    2.6440 h1        1 WYQ      0.062200
     47 H14         8.6930   -2.9920    5.1310 hc        1 WYQ      0.072033
     48 H15         7.7310   -1.4720    4.8470 hc        1 WYQ      0.072033
     49 H16         9.4610   -1.5560    4.3150 hc        1 WYQ      0.072033
     50 H17         5.7730    1.3760    0.2410 hn        1 WYQ      0.349500
     51 H18         8.3940    6.5130    1.8690 h1        1 WYQ      0.081033
     52 H19         7.8720    5.9400    3.5270 h1        1 WYQ      0.081033
     53 H20         6.8340    5.5550    2.0570 h1        1 WYQ      0.081033
     54 H21        12.2040    2.5910    1.5010 hc        1 WYQ      0.063200
     55 H22        11.4860    1.2820    2.5280 hc        1 WYQ      0.063200
     56 H23        11.6980    2.8180    4.5520 hc        1 WYQ      0.052700
     57 H24        12.5130    4.0430    3.5050 hc        1 WYQ      0.052700
     58 H25        13.4950    1.1430    3.9960 hc        1 WYQ      0.037033
     59 H26        14.3040    2.3650    2.9330 hc        1 WYQ      0.037033
     60 H27        14.1850    2.6550    4.7170 hc        1 WYQ      0.037033
     61 H52         4.0540   -0.5240   -3.8930 hn        1 WYQ      0.317500
@<TRIPOS>BOND
     1    1    2 1   
     2    1   34 1   
     3    1   35 1   
     4    1   36 1   
     5    2    3 1   
     6    2    4 1   
     7    2   37 1   
     8    3   38 1   
     9    3   39 1   
    10    3   40 1   
    11    4    5 1   
    12    5    6 2   
    13    5    7 1   
    14    7   41 1   
    15    7   61 1   
    16    8    9 1   
    17    8   10 1   
    18    8   11 1   
    19   11   12 ar  
    20   11   13 ar  
    21   12   19 ar  
    22   12   42 1   
    23   13   14 ar  
    24   13   43 1   
    25   14   15 ar  
    26   14   44 1   
    27   15   16 1   
    28   15   19 ar  
    29   16   17 1   
    30   17   18 1   
    31   17   45 1   
    32   17   46 1   
    33   18   47 1   
    34   18   48 1   
    35   18   49 1   
    36   19   20 1   
    37   20   21 1   
    38   20   24 2   
    39   21   22 1   
    40   21   50 1   
    41   22   23 2   
    42   22   26 1   
    43   24   25 1   
    44   25   26 2   
    45   25   30 1   
    46   26   27 1   
    47   27   28 1   
    48   27   29 1   
    49   28   51 1   
    50   28   52 1   
    51   28   53 1   
    52   29   30 2   
    53   30   31 1   
    54   31   32 1   
    55   31   54 1   
    56   31   55 1   
    57   32   33 1   
    58   32   56 1   
    59   32   57 1   
    60   33   58 1   
    61   33   59 1   
    62   33   60 1   
@<TRIPOS>SUBSTRUCTURE
     1 WYQ         1 TEMP              0 ****  ****    0 ROOT
