@<TRIPOS>MOLECULE
WYQ
   60    56     1     0     0
SMALL
bcc


@<TRIPOS>ATOM
      1 C16        -4.3190    6.8060    4.5080 c3        1 WYQ     -0.230000
      2 C15        -4.3850    5.3280    4.7010 c3        1 WYQ      0.049000
      3 C17        -5.7080    4.9660    5.3930 c3        1 WYQ     -0.230000
      4 O6         -4.3200    4.6750    3.4200 os        1 WYQ     -0.280000
      5 C14        -3.0490    4.0710    3.1310 c2        1 WYQ      0.420000
      6 O5         -2.0780    4.3780    3.7680 o         1 WYQ     -0.366000
      7 N5         -2.9500    3.0710    2.1020 n         1 WYQ     -0.834000
      8 S1         -1.4720    2.7650    1.3670 s4        1 WYQ      2.097800
      9 O4         -0.3940    2.7580    2.3380 o         1 WYQ     -0.519400
     10 O3         -1.0750    3.8570    0.5160 o         1 WYQ     -0.519400
     11 C8         -1.5380    1.2050    0.4470 c1        1 WYQ     -0.893000
     12 C7         -0.4400    0.3420    0.4590 c2        1 WYQ      0.063000
     13 C9         -2.6450    0.9150   -0.3540 c1        1 WYQ      0.037000
     14 C10        -2.6540   -0.2370   -1.1440 c1        1 WYQ     -0.240000
     15 C11        -1.5560   -1.1010   -1.1340 c1        1 WYQ      0.177000
     16 O2         -1.5390   -2.2130   -1.9730 o         1 WYQ     -0.216000
     17 C12        -2.7940   -2.9140   -2.0330 c3        1 WYQ     -0.021000
     18 C13        -3.1350   -3.2380   -3.5070 c3        1 WYQ     -0.253000
     19 C6         -0.4480   -0.8120   -0.3320 c2        1 WYQ     -0.116000
     20 C5          0.7970   -1.7520   -0.3490 c2        1 WYQ      0.138000
     21 N4          0.8670   -2.8550    0.5500 n         1 WYQ     -0.305000
     22 C4          2.0080   -3.6680    0.5710 c2        1 WYQ      0.371000
     23 O1          2.0340   -4.6660    1.2800 o         1 WYQ     -0.365000
     24 N3          1.8940   -1.4760   -1.2320 n1        1 WYQ     -0.122000
     25 C2          3.1020   -2.3360   -1.2070 c1        1 WYQ     -0.066000
     26 C3          3.1670   -3.3740   -0.3630 c2        1 WYQ     -0.172000
     27 N2          4.3340   -4.0330   -0.5960 n2        1 WYQ     -0.071000
     28 C18         5.1660   -5.1660   -0.3370 c2        1 WYQ     -0.070000
     29 N1          4.9940   -3.3840   -1.6020 n2        1 WYQ     -0.047000
     30 C1          4.2490   -2.3460   -1.9820 c1        1 WYQ     -0.076000
     31 C19         5.0450   -2.0950   -3.2470 c2        1 WYQ     -0.089000
     32 C20         5.5390   -0.6060   -3.2710 c3        1 WYQ     -0.156000
     33 C21         6.4960   -0.4200   -4.4260 c3        1 WYQ     -0.213000
     34 H1         -5.1410    7.1150    4.0580 hc        1 WYQ      0.090500
     35 H2         -4.2400    7.2450    5.3790 hc        1 WYQ      0.090500
     36 H3         -3.5450    7.0290    3.9610 hc        1 WYQ      0.090500
     37 H4         -3.6260    5.0330    5.2610 h1        1 WYQ      0.117000
     38 H5         -6.4050    5.6310    5.1430 hc        1 WYQ      0.090500
     39 H6         -5.5810    4.9750    6.3710 hc        1 WYQ      0.090500
     40 H7         -5.9910    4.0750    5.1100 hc        1 WYQ      0.090500
     41 H8         -3.7010    2.6570    1.8020 hn        1 WYQ      0.260000
     42 H9          0.3150    0.5410    1.0050 ha        1 WYQ      0.180000
     43 H10        -3.4000    1.5100   -0.3630 ha        1 WYQ      0.166000
     44 H11        -3.4170   -0.4350   -1.6970 ha        1 WYQ      0.155000
     45 H12        -3.5010   -2.3510   -1.6500 h1        1 WYQ      0.104500
     46 H13        -2.7280   -3.7420   -1.5250 h1        1 WYQ      0.104500
     47 H14        -4.1070   -3.3820   -3.5960 hc        1 WYQ      0.096000
     48 H15        -2.8650   -2.4930   -4.0740 hc        1 WYQ      0.096000
     49 H16        -2.6600   -4.0450   -3.7810 hc        1 WYQ      0.096000
     50 H17         0.1620   -3.0310    1.1220 hn        1 WYQ      0.258000
     51 H18         5.1980   -5.7360   -1.1340 ha        1 WYQ      0.112333
     52 H19         4.8040   -5.6710    0.4080 ha        1 WYQ      0.112333
     53 H20         6.0660   -4.8640   -0.1170 ha        1 WYQ      0.112333
     54 H21         4.4710   -2.2640   -4.0360 ha        1 WYQ      0.105000
     55 H22         5.8270   -2.7010   -3.2720 ha        1 WYQ      0.105000
     56 H23         5.9990   -0.3990   -2.4230 hc        1 WYQ      0.088000
     57 H24         4.7540    0.0060   -3.3830 hc        1 WYQ      0.088000
     58 H25         5.9870   -0.2730   -5.2550 hc        1 WYQ      0.073667
     59 H26         7.0570   -1.2310   -4.5230 hc        1 WYQ      0.073667
     60 H27         7.0750    0.3600   -4.2530 hc        1 WYQ      0.073667
@<TRIPOS>BOND
     1    1    2 1   
     2    1   34 1   
     3    1   35 1   
     4    1   36 1   
     5    2    3 1   
     6    2    4 1   
     7    2   37 1   
     8    3   38 1   
     9    3   39 1   
    10    3   40 1   
    11    4    5 1   
    12    5    6 1   
    13    5    7 1   
    14    7    8 1   
    15    7   41 1   
    16    8    9 1   
    17    8   10 1   
    18   11   12 1   
    19   11   13 1   
    20   12   19 1   
    21   12   42 1   
    22   13   43 1   
    23   14   15 1   
    24   14   44 1   
    25   15   19 1   
    26   16   17 1   
    27   17   18 1   
    28   17   45 1   
    29   17   46 1   
    30   18   47 1   
    31   18   48 1   
    32   18   49 1   
    33   19   20 1   
    34   20   21 1   
    35   20   24 1   
    36   21   22 1   
    37   21   50 1   
    38   22   23 1   
    39   22   26 1   
    40   25   26 1   
    41   25   30 1   
    42   26   27 1   
    43   27   29 1   
    44   28   51 1   
    45   28   52 1   
    46   28   53 1   
    47   29   30 1   
    48   31   32 1   
    49   31   54 1   
    50   31   55 1   
    51   32   33 1   
    52   32   56 1   
    53   32   57 1   
    54   33   58 1   
    55   33   59 1   
    56   33   60 1   
@<TRIPOS>SUBSTRUCTURE
     1 WYQ         1 TEMP              0 ****  ****    0 ROOT
