@<TRIPOS>MOLECULE
WYQ
   61    62     1     0     0
SMALL
bcc


@<TRIPOS>ATOM
      1 C16         0.5390   -0.0010   -0.1750 c3        1 WYQ     -0.116600
      2 C15         2.0530    0.0540   -0.1650 c3        1 WYQ      0.163100
      3 C17         2.6510   -0.6150    1.0520 c3        1 WYQ     -0.116600
      4 O6          2.4490   -0.6890   -1.3630 os        1 WYQ     -0.425900
      5 C14         3.6620   -0.4110   -1.8940 c         1 WYQ      0.707100
      6 O5          4.4490    0.3810   -1.3580 o         1 WYQ     -0.561000
      7 N5          3.9610   -1.1520   -3.0810 n         1 WYQ     -0.673000
      8 S1          6.2910   -2.0710   -3.2400 s4        1 WYQ      1.692300
      9 O4          5.8270   -3.2690   -3.6780 o         1 WYQ     -0.433400
     10 O3          6.5450   -1.0480   -4.0950 o         1 WYQ     -0.433400
     11 C8          6.7530   -1.9630   -1.7820 ca        1 WYQ     -0.690500
     12 C7          7.0700   -0.6990   -1.1960 ca        1 WYQ      0.094000
     13 C9          6.8840   -3.1080   -0.9390 ca        1 WYQ      0.077000
     14 C10         7.2980   -3.0120    0.3630 ca        1 WYQ     -0.252000
     15 C11         7.5830   -1.7400    0.9330 ca        1 WYQ      0.330100
     16 O2          7.9420   -1.5450    2.2080 os        1 WYQ     -0.257900
     17 C12         8.1440   -2.7100    3.0560 c3        1 WYQ      0.124400
     18 C13         8.5880   -2.1510    4.3850 c3        1 WYQ     -0.110100
     19 C6          7.4490   -0.5720    0.1190 ca        1 WYQ     -0.182900
     20 C5          7.7180    0.7800    0.6790 cc        1 WYQ      0.470500
     21 N4          6.6240    1.6660    0.6540 n         1 WYQ     -0.482400
     22 C4          6.7200    2.9770    1.1580 c         1 WYQ      0.736100
     23 O1          5.7270    3.7240    1.1300 o         1 WYQ     -0.618500
     24 N3          8.9310    1.0520    1.1410 nd        1 WYQ     -0.512100
     25 C2          9.1010    2.3260    1.6410 cd        1 WYQ     -0.018900
     26 C3          8.0450    3.3020    1.6730 cc        1 WYQ     -0.202900
     27 N2          8.5730    4.4540    2.2410 na        1 WYQ      0.160400
     28 C18         7.8450    5.6870    2.4610 c3        1 WYQ      0.022600
     29 N1          9.8620    4.2820    2.5620 nc        1 WYQ     -0.468800
     30 C1         10.2410    3.0110    2.2230 cd        1 WYQ      0.361600
     31 C19        11.5940    2.4380    2.3920 c3        1 WYQ     -0.106700
     32 C20        12.3210    2.9600    3.6150 c3        1 WYQ     -0.079400
     33 C21        13.6490    2.2680    3.7880 c3        1 WYQ     -0.095100
     34 H1          0.1560    0.5650    0.7090 hc        1 WYQ      0.060700
     35 H2          0.1370    0.4620   -1.1080 hc        1 WYQ      0.060700
     36 H3          0.1810   -1.0560   -0.1180 hc        1 WYQ      0.060700
     37 H4          2.4260    1.1100   -0.2680 h1        1 WYQ      0.084700
     38 H5          2.3440   -1.6870    1.1060 hc        1 WYQ      0.060700
     39 H6          2.2950   -0.0910    1.9720 hc        1 WYQ      0.060700
     40 H7          3.7660   -0.5580    1.0120 hc        1 WYQ      0.060700
     41 H8          3.2640   -1.8610   -3.2530 hn        1 WYQ      0.317500
     42 H9          6.9770    0.2120   -1.8240 ha        1 WYQ      0.188000
     43 H10         6.6430   -4.1040   -1.3630 ha        1 WYQ      0.172000
     44 H11         7.4060   -3.9230    0.9750 ha        1 WYQ      0.179000
     45 H12         7.1720   -3.2620    3.1350 h1        1 WYQ      0.062200
     46 H13         8.9320   -3.3570    2.5900 h1        1 WYQ      0.062200
     47 H14         7.7990   -1.4920    4.8210 hc        1 WYQ      0.072033
     48 H15         8.7810   -3.0030    5.0820 hc        1 WYQ      0.072033
     49 H16         9.5230   -1.5520    4.2680 hc        1 WYQ      0.072033
     50 H17         5.7560    1.3700    0.2600 hn        1 WYQ      0.349500
     51 H18         8.3390    6.5230    1.8970 h1        1 WYQ      0.081033
     52 H19         7.8420    5.9320    3.5570 h1        1 WYQ      0.081033
     53 H20         6.7920    5.5470    2.0960 h1        1 WYQ      0.081033
     54 H21        11.4990    1.3200    2.4570 hc        1 WYQ      0.063700
     55 H22        12.1960    2.6700    1.4700 hc        1 WYQ      0.063700
     56 H23        12.4840    4.0660    3.5170 hc        1 WYQ      0.052700
     57 H24        11.6880    2.7980    4.5270 hc        1 WYQ      0.052700
     58 H25        14.1760    2.6670    4.6880 hc        1 WYQ      0.036367
     59 H26        13.5100    1.1680    3.9210 hc        1 WYQ      0.036367
     60 H27        14.3000    2.4330    2.8960 hc        1 WYQ      0.036367
     61 H52         4.0080   -0.5180   -3.8670 hn        1 WYQ      0.317500
@<TRIPOS>BOND
     1    1    2 1   
     2    1   34 1   
     3    1   35 1   
     4    1   36 1   
     5    2    3 1   
     6    2    4 1   
     7    2   37 1   
     8    3   38 1   
     9    3   39 1   
    10    3   40 1   
    11    4    5 1   
    12    5    6 2   
    13    5    7 1   
    14    7   41 1   
    15    7   61 1   
    16    8    9 1   
    17    8   10 1   
    18    8   11 1   
    19   11   12 ar  
    20   11   13 ar  
    21   12   19 ar  
    22   12   42 1   
    23   13   14 ar  
    24   13   43 1   
    25   14   15 ar  
    26   14   44 1   
    27   15   16 1   
    28   15   19 ar  
    29   16   17 1   
    30   17   18 1   
    31   17   45 1   
    32   17   46 1   
    33   18   47 1   
    34   18   48 1   
    35   18   49 1   
    36   19   20 1   
    37   20   21 1   
    38   20   24 2   
    39   21   22 1   
    40   21   50 1   
    41   22   23 2   
    42   22   26 1   
    43   24   25 1   
    44   25   26 2   
    45   25   30 1   
    46   26   27 1   
    47   27   28 1   
    48   27   29 1   
    49   28   51 1   
    50   28   52 1   
    51   28   53 1   
    52   29   30 2   
    53   30   31 1   
    54   31   32 1   
    55   31   54 1   
    56   31   55 1   
    57   32   33 1   
    58   32   56 1   
    59   32   57 1   
    60   33   58 1   
    61   33   59 1   
    62   33   60 1   
@<TRIPOS>SUBSTRUCTURE
     1 WYQ         1 TEMP              0 ****  ****    0 ROOT
