@<TRIPOS>MOLECULE
WYQ
   60    62     1     0     0
SMALL
bcc


@<TRIPOS>ATOM
      1 C16         4.6470    2.7340   -3.9040 c3        1 WYQ     -0.112600
      2 C15         3.5840    2.2650   -2.9300 c3        1 WYQ      0.160100
      3 C17         2.3240    1.8030   -3.6310 c3        1 WYQ     -0.112600
      4 O6          4.1890    1.1420   -2.2360 os        1 WYQ     -0.435900
      5 C14         3.6660    0.8340   -1.0070 c         1 WYQ      0.774100
      6 O5          2.7270    1.4980   -0.5410 o         1 WYQ     -0.577000
      7 N5          4.2920   -0.2480   -0.4070 n         1 WYQ     -0.650300
      8 S1          4.0400   -0.8570    1.1160 sy        1 WYQ      1.535900
      9 O4          4.9760   -1.9020    1.2620 o         1 WYQ     -0.638300
     10 O3          4.0830    0.1660    2.0680 o         1 WYQ     -0.638300
     11 C8          2.5040   -1.5020    1.0380 ca        1 WYQ     -0.456500
     12 C7          1.3670   -0.6820    1.0750 ca        1 WYQ      0.055000
     13 C9          2.3220   -2.8930    0.9840 ca        1 WYQ      0.042000
     14 C10         1.0580   -3.4600    0.9880 ca        1 WYQ     -0.249000
     15 C11        -0.0770   -2.6290    1.0410 ca        1 WYQ      0.245100
     16 O2         -1.3630   -3.0840    1.0910 os        1 WYQ     -0.303900
     17 C12        -1.5530   -4.5070    0.9770 c3        1 WYQ      0.126400
     18 C13        -3.0480   -4.7190    0.9960 c3        1 WYQ     -0.103100
     19 C6          0.0860   -1.2230    1.0750 ca        1 WYQ     -0.209900
     20 C5         -1.0980   -0.3250    1.0730 cc        1 WYQ      0.524500
     21 N4         -1.2870    0.4260    2.2480 n         1 WYQ     -0.473400
     22 C4         -2.3610    1.3170    2.4050 c         1 WYQ      0.735100
     23 O1         -2.5000    1.9560    3.4640 o         1 WYQ     -0.637500
     24 N3         -1.8770   -0.2820   -0.0030 nd        1 WYQ     -0.539100
     25 C2         -2.9520    0.5780    0.0790 cd        1 WYQ      0.011100
     26 C3         -3.2290    1.3800    1.2350 cc        1 WYQ     -0.216900
     27 N2         -4.3800    2.1150    0.9570 na        1 WYQ      0.142400
     28 C18        -4.9950    3.0640    1.8580 c3        1 WYQ      0.028600
     29 N1         -4.8390    1.8390   -0.2700 nc        1 WYQ     -0.481800
     30 C1         -4.0160    0.9140   -0.8520 cd        1 WYQ      0.339600
     31 C19        -4.1870    0.3250   -2.1980 c3        1 WYQ     -0.101700
     32 C20        -4.8250    1.2730   -3.1950 c3        1 WYQ     -0.078400
     33 C21        -4.8790    0.6540   -4.5680 c3        1 WYQ     -0.094100
     34 H1          4.2530    3.6080   -4.4750 hc        1 WYQ      0.052033
     35 H2          5.5700    3.0380   -3.3550 hc        1 WYQ      0.052033
     36 H3          4.9110    1.9190   -4.6190 hc        1 WYQ      0.052033
     37 H4          3.3440    3.0670   -2.1780 h1        1 WYQ      0.077700
     38 H5          1.5770    1.4530   -2.8780 hc        1 WYQ      0.052033
     39 H6          1.8880    2.6510   -4.2100 hc        1 WYQ      0.052033
     40 H7          2.5490    0.9640   -4.3320 hc        1 WYQ      0.052033
     41 H8          4.9970   -0.6670   -0.9800 hn        1 WYQ      0.353500
     42 H9          1.4960    0.4200    1.0910 ha        1 WYQ      0.185000
     43 H10         3.2130   -3.5500    0.9520 ha        1 WYQ      0.165000
     44 H11         0.9510   -4.5540    0.9510 ha        1 WYQ      0.152000
     45 H12        -1.1000   -4.8640    0.0160 h1        1 WYQ      0.046200
     46 H13        -1.0560   -5.0120    1.8470 h1        1 WYQ      0.046200
     47 H14        -3.4860   -4.3400    1.9500 hc        1 WYQ      0.056367
     48 H15        -3.5300   -4.1740    0.1490 hc        1 WYQ      0.056367
     49 H16        -3.2610   -5.8100    0.9000 hc        1 WYQ      0.056367
     50 H17        -0.6400    0.3260    3.0000 hn        1 WYQ      0.343500
     51 H18        -4.9990    4.0850    1.3900 h1        1 WYQ      0.073033
     52 H19        -6.0530    2.7540    2.0710 h1        1 WYQ      0.073033
     53 H20        -4.4020    3.0840    2.8120 h1        1 WYQ      0.073033
     54 H21        -3.1770    0.0060   -2.5730 hc        1 WYQ      0.061700
     55 H22        -4.8180   -0.6020   -2.1040 hc        1 WYQ      0.061700
     56 H23        -5.8630    1.5350   -2.8590 hc        1 WYQ      0.049200
     57 H24        -4.2380    2.2280   -3.2330 hc        1 WYQ      0.049200
     58 H25        -3.8520    0.4150   -4.9360 hc        1 WYQ      0.032700
     59 H26        -5.4740   -0.2910   -4.5520 hc        1 WYQ      0.032700
     60 H27        -5.3570    1.3590   -5.2900 hc        1 WYQ      0.032700
@<TRIPOS>BOND
     1    1    2 1   
     2    1   34 1   
     3    1   35 1   
     4    1   36 1   
     5    2    3 1   
     6    2    4 1   
     7    2   37 1   
     8    3   38 1   
     9    3   39 1   
    10    3   40 1   
    11    4    5 1   
    12    5    6 2   
    13    5    7 1   
    14    7    8 1   
    15    7   41 1   
    16    8    9 2   
    17    8   10 2   
    18    8   11 1   
    19   11   12 ar  
    20   11   13 ar  
    21   12   19 ar  
    22   12   42 1   
    23   13   14 ar  
    24   13   43 1   
    25   14   15 ar  
    26   14   44 1   
    27   15   16 1   
    28   15   19 ar  
    29   16   17 1   
    30   17   18 1   
    31   17   45 1   
    32   17   46 1   
    33   18   47 1   
    34   18   48 1   
    35   18   49 1   
    36   19   20 1   
    37   20   21 1   
    38   20   24 2   
    39   21   22 1   
    40   21   50 1   
    41   22   23 2   
    42   22   26 1   
    43   24   25 1   
    44   25   26 2   
    45   25   30 1   
    46   26   27 1   
    47   27   28 1   
    48   27   29 1   
    49   28   51 1   
    50   28   52 1   
    51   28   53 1   
    52   29   30 2   
    53   30   31 1   
    54   31   32 1   
    55   31   54 1   
    56   31   55 1   
    57   32   33 1   
    58   32   56 1   
    59   32   57 1   
    60   33   58 1   
    61   33   59 1   
    62   33   60 1   
@<TRIPOS>SUBSTRUCTURE
     1 WYQ         1 TEMP              0 ****  ****    0 ROOT
