@<TRIPOS>MOLECULE
WZ1
   48    49     1     0     0
SMALL
bcc


@<TRIPOS>ATOM
      1 O41         0.0880   -0.2600   -0.3270 oh        1 WZ1     -0.579800
      2 C41         1.4730   -0.0390   -0.1460 c3        1 WZ1      0.132100
      3 C51         1.8030   -0.0110    1.3570 c3        1 WZ1      0.075100
      4 C61         1.4580   -1.3530    2.0130 c3        1 WZ1      0.137400
      5 O61         1.5520   -1.2670    3.4180 oh        1 WZ1     -0.598800
      6 O01         3.1980    0.1770    1.5880 os        1 WZ1     -0.434600
      7 C11         3.7590    1.3230    0.9870 c3        1 WZ1      0.334900
      8 O11         3.1950    2.4410    1.6520 os        1 WZ1     -0.454600
      9 C71         3.6640    2.6050    2.9830 c3        1 WZ1      0.121700
     10 C21         3.4420    1.4820   -0.5140 c3        1 WZ1      0.128100
     11 O21         4.2650    0.5380   -1.1710 oh        1 WZ1     -0.590800
     12 C31         1.9510    1.2650   -0.7840 c3        1 WZ1     -0.056600
     13 S12         1.5760    1.2010   -2.5270 ss        1 WZ1     -0.255200
     14 C12         2.0640    2.8170   -3.0990 c3        1 WZ1      0.169200
     15 O02         3.4730    2.7560   -3.2620 os        1 WZ1     -0.385600
     16 C52         4.0810    3.9420   -3.7550 c3        1 WZ1      0.143100
     17 C62         4.0710    5.0720   -2.7200 c3        1 WZ1      0.095400
     18 O62         4.5680    4.5340   -1.5070 oh        1 WZ1     -0.595800
     19 C42         3.4440    4.4490   -5.0590 c3        1 WZ1      0.117100
     20 O42         3.9570    3.6310   -6.0980 oh        1 WZ1     -0.583800
     21 C32         1.9050    4.3980   -5.0530 c3        1 WZ1      0.121100
     22 O32         1.4630    5.5310   -4.3240 oh        1 WZ1     -0.606800
     23 C22         1.3780    3.0880   -4.4400 c3        1 WZ1      0.098100
     24 O22        -0.0190    3.2750   -4.2860 oh        1 WZ1     -0.610800
     25 HO41       -0.3820    0.4800    0.0770 ho        1 WZ1      0.401000
     26 H41         1.9740   -0.9190   -0.6430 h1        1 WZ1      0.113700
     27 H51         1.2380    0.8250    1.8570 h1        1 WZ1      0.059700
     28 H61         2.1360   -2.1550    1.6200 h1        1 WZ1      0.063700
     29 H61A        0.3860   -1.6070    1.7960 h1        1 WZ1      0.063700
     30 HO61        2.4640   -1.0240    3.6230 ho        1 WZ1      0.410000
     31 H11         4.8680    1.2230    1.1590 h2        1 WZ1      0.099700
     32 H71         3.4480    1.6910    3.5880 h1        1 WZ1      0.039367
     33 H71A        3.0910    3.4830    3.3720 h1        1 WZ1      0.039367
     34 H71B        4.7610    2.8180    2.9830 h1        1 WZ1      0.039367
     35 H21         3.7260    2.5290   -0.8380 h1        1 WZ1      0.095700
     36 HO21        4.1390    0.6880   -2.1220 ho        1 WZ1      0.433000
     37 H31         1.4000    2.1270   -0.3220 h1        1 WZ1      0.083700
     38 H12         1.7950    3.6120   -2.3550 h2        1 WZ1      0.076700
     39 H52         5.1410    3.6060   -3.9550 h1        1 WZ1      0.111700
     40 H62         4.7380    5.9040   -3.0730 h1        1 WZ1      0.042700
     41 H62A        3.0290    5.4690   -2.5790 h1        1 WZ1      0.042700
     42 HO62        4.5150    5.2400   -0.8520 ho        1 WZ1      0.405000
     43 H42         3.7570    5.5200   -5.2260 h1        1 WZ1      0.061700
     44 HO42        3.6460    4.0050   -6.9320 ho        1 WZ1      0.405000
     45 H32         1.5220    4.4690   -6.1110 h1        1 WZ1      0.050700
     46 HO32        0.5040    5.4430   -4.2240 ho        1 WZ1      0.431000
     47 H22         1.5840    2.2380   -5.1500 h1        1 WZ1      0.079700
     48 HO22       -0.3590    2.4970   -3.8210 ho        1 WZ1      0.430000
@<TRIPOS>BOND
     1    1    2 1   
     2    1   25 1   
     3    2    3 1   
     4    2   12 1   
     5    2   26 1   
     6    3    4 1   
     7    3    6 1   
     8    3   27 1   
     9    4    5 1   
    10    4   28 1   
    11    4   29 1   
    12    5   30 1   
    13    6    7 1   
    14    7    8 1   
    15    7   10 1   
    16    7   31 1   
    17    8    9 1   
    18    9   32 1   
    19    9   33 1   
    20    9   34 1   
    21   10   11 1   
    22   10   12 1   
    23   10   35 1   
    24   11   36 1   
    25   12   13 1   
    26   12   37 1   
    27   13   14 1   
    28   14   15 1   
    29   14   23 1   
    30   14   38 1   
    31   15   16 1   
    32   16   17 1   
    33   16   19 1   
    34   16   39 1   
    35   17   18 1   
    36   17   40 1   
    37   17   41 1   
    38   18   42 1   
    39   19   20 1   
    40   19   21 1   
    41   19   43 1   
    42   20   44 1   
    43   21   22 1   
    44   21   23 1   
    45   21   45 1   
    46   22   46 1   
    47   23   24 1   
    48   23   47 1   
    49   24   48 1   
@<TRIPOS>SUBSTRUCTURE
     1 WZ1         1 TEMP              0 ****  ****    0 ROOT
