@<TRIPOS>MOLECULE
WZ1
   48    49     1     0     0
SMALL
bcc


@<TRIPOS>ATOM
      1 O41         0.1370   -0.2160   -0.2760 oh        1 WZ1     -0.592800
      2 C41         1.5440   -0.0610   -0.1730 c3        1 WZ1      0.133100
      3 C51         1.8460   -0.0320    1.3370 c3        1 WZ1      0.111100
      4 C61         1.4860   -1.3680    1.9930 c3        1 WZ1      0.140400
      5 O61         1.6740   -1.3150    3.3900 oh        1 WZ1     -0.597800
      6 O01         3.2440    0.1470    1.5700 os        1 WZ1     -0.440600
      7 C11         3.8090    1.3030    0.9940 c3        1 WZ1      0.336900
      8 O11         3.2410    2.4120    1.6690 os        1 WZ1     -0.452600
      9 C71         3.6710    2.5380    3.0170 c3        1 WZ1      0.121700
     10 C21         3.5070    1.4870   -0.5080 c3        1 WZ1      0.127100
     11 O21         4.3630    0.5770   -1.1730 oh        1 WZ1     -0.589800
     12 C31         2.0270    1.2440   -0.8030 c3        1 WZ1     -0.046600
     13 S12         1.6840    1.1590   -2.5590 ss        1 WZ1     -0.317200
     14 C12         2.0710    2.8110   -3.1150 c3        1 WZ1      0.185200
     15 O02         3.4800    2.8170   -3.2990 os        1 WZ1     -0.398600
     16 C52         4.0190    4.0570   -3.7510 c3        1 WZ1      0.101100
     17 C62         3.8940    5.1730   -2.7140 c3        1 WZ1      0.099400
     18 O62         4.3660    4.6540   -1.4820 oh        1 WZ1     -0.598800
     19 C42         3.3850    4.4810   -5.0840 c3        1 WZ1      0.117100
     20 O42         3.9000    3.7020   -6.1460 oh        1 WZ1     -0.583800
     21 C32         1.8480    4.3910   -5.0750 c3        1 WZ1      0.120100
     22 O32         1.3700    5.5180   -4.3630 oh        1 WZ1     -0.602800
     23 C22         1.3520    3.0760   -4.4410 c3        1 WZ1      0.090100
     24 O22        -0.0420    3.2470   -4.2530 oh        1 WZ1     -0.601800
     25 HO41       -0.0800   -0.1900   -1.2180 ho        1 WZ1      0.412000
     26 H41         2.0700   -0.9320   -0.6560 h1        1 WZ1      0.071700
     27 H51         1.2810    0.8110    1.8220 h1        1 WZ1      0.076700
     28 H61         2.1010   -2.1920    1.5460 h1        1 WZ1      0.062200
     29 H61A        0.3920   -1.5690    1.8420 h1        1 WZ1      0.062200
     30 HO61        2.6010   -1.0910    3.5420 ho        1 WZ1      0.409000
     31 H11         4.9160    1.2000    1.1750 h2        1 WZ1      0.098700
     32 H71         3.0970    3.4150    3.4080 h1        1 WZ1      0.040033
     33 H71A        4.7700    2.7350    3.0560 h1        1 WZ1      0.040033
     34 H71B        3.4220    1.6130    3.5930 h1        1 WZ1      0.040033
     35 H21         3.7710    2.5460   -0.8080 h1        1 WZ1      0.094700
     36 HO21        4.2360    0.7340   -2.1220 ho        1 WZ1      0.428000
     37 H31         1.4480    2.0970   -0.3620 h1        1 WZ1      0.099700
     38 H12         1.7760    3.5740   -2.3480 h2        1 WZ1      0.088700
     39 H52         5.1090    3.8030   -3.9080 h1        1 WZ1      0.105700
     40 H62         2.8280    5.5110   -2.6160 h1        1 WZ1      0.047200
     41 H62A        4.5280    6.0430   -3.0350 h1        1 WZ1      0.047200
     42 HO62        4.2650    5.3580   -0.8310 ho        1 WZ1      0.408000
     43 H42         3.6860    5.5380   -5.3320 h1        1 WZ1      0.104700
     44 HO42        3.7820    2.7730   -5.9040 ho        1 WZ1      0.409000
     45 H32         1.4740    4.4310   -6.1380 h1        1 WZ1      0.069700
     46 HO32        0.4060    5.4410   -4.3310 ho        1 WZ1      0.431000
     47 H22         1.5440    2.2240   -5.1520 h1        1 WZ1      0.064700
     48 HO22       -0.3620    2.4680   -3.7770 ho        1 WZ1      0.427000
@<TRIPOS>BOND
     1    1    2 1   
     2    1   25 1   
     3    2    3 1   
     4    2   12 1   
     5    2   26 1   
     6    3    4 1   
     7    3    6 1   
     8    3   27 1   
     9    4    5 1   
    10    4   28 1   
    11    4   29 1   
    12    5   30 1   
    13    6    7 1   
    14    7    8 1   
    15    7   10 1   
    16    7   31 1   
    17    8    9 1   
    18    9   32 1   
    19    9   33 1   
    20    9   34 1   
    21   10   11 1   
    22   10   12 1   
    23   10   35 1   
    24   11   36 1   
    25   12   13 1   
    26   12   37 1   
    27   13   14 1   
    28   14   15 1   
    29   14   23 1   
    30   14   38 1   
    31   15   16 1   
    32   16   17 1   
    33   16   19 1   
    34   16   39 1   
    35   17   18 1   
    36   17   40 1   
    37   17   41 1   
    38   18   42 1   
    39   19   20 1   
    40   19   21 1   
    41   19   43 1   
    42   20   44 1   
    43   21   22 1   
    44   21   23 1   
    45   21   45 1   
    46   22   46 1   
    47   23   24 1   
    48   23   47 1   
    49   24   48 1   
@<TRIPOS>SUBSTRUCTURE
     1 WZ1         1 TEMP              0 ****  ****    0 ROOT
