@<TRIPOS>MOLECULE
WZ1
   48    49     1     0     0
SMALL
bcc


@<TRIPOS>ATOM
      1 O41         2.3270    2.5820   -0.6750 oh        1 WZ1     -0.587800
      2 C41         2.3780    1.4210    0.1430 c3        1 WZ1      0.134100
      3 C51         3.5990    0.5730   -0.2620 c3        1 WZ1      0.074100
      4 C61         4.9120    1.2820    0.0860 c3        1 WZ1      0.136400
      5 O61         6.0290    0.5090   -0.2940 oh        1 WZ1     -0.594800
      6 O01         3.6390   -0.6570    0.4620 os        1 WZ1     -0.441600
      7 C11         2.4850   -1.4610    0.3450 c3        1 WZ1      0.336900
      8 O11         2.4390   -1.9070   -0.9990 os        1 WZ1     -0.450600
      9 C71         3.4540   -2.8490   -1.3200 c3        1 WZ1      0.120700
     10 C21         1.1600   -0.7250    0.6260 c3        1 WZ1      0.124100
     11 O21         1.1030   -0.5890    2.0340 oh        1 WZ1     -0.592800
     12 C31         1.1050    0.6170   -0.1070 c3        1 WZ1     -0.016600
     13 S12        -0.2920    1.6070    0.4090 ss        1 WZ1     -0.259200
     14 C12        -1.6800    0.6090   -0.0940 c3        1 WZ1      0.171200
     15 O02        -1.8500   -0.3540    0.9350 os        1 WZ1     -0.385600
     16 C52        -2.9410   -1.2480    0.7580 c3        1 WZ1      0.143100
     17 C62        -2.6940   -2.2440   -0.3810 c3        1 WZ1      0.095400
     18 O62        -1.4100   -2.8060   -0.1740 oh        1 WZ1     -0.595800
     19 C42        -4.2770   -0.5270    0.5150 c3        1 WZ1      0.116100
     20 O42        -4.7220   -0.0740    1.7830 oh        1 WZ1     -0.583800
     21 C32        -4.1700    0.6540   -0.4660 c3        1 WZ1      0.121100
     22 O32        -4.1640    0.1010   -1.7720 oh        1 WZ1     -0.607800
     23 C22        -2.9150    1.5060   -0.2050 c3        1 WZ1      0.099100
     24 O22        -2.8220    2.3950   -1.3060 oh        1 WZ1     -0.611800
     25 HO41        3.0170    3.1750   -0.3530 ho        1 WZ1      0.406000
     26 H41         2.4450    1.6970    1.2330 h1        1 WZ1      0.071700
     27 H51         3.5540    0.3490   -1.3630 h1        1 WZ1      0.077700
     28 H61         5.0000    2.2320   -0.5060 h1        1 WZ1      0.051200
     29 H61A        4.9490    1.5040    1.1860 h1        1 WZ1      0.051200
     30 HO61        5.9400   -0.3500    0.1400 ho        1 WZ1      0.416000
     31 H11         2.6480   -2.2990    1.0800 h2        1 WZ1      0.098700
     32 H71         3.3070   -3.0500   -2.4100 h1        1 WZ1      0.039367
     33 H71A        4.4650   -2.4120   -1.1300 h1        1 WZ1      0.039367
     34 H71B        3.3180   -3.7840   -0.7230 h1        1 WZ1      0.039367
     35 H21         0.3010   -1.3710    0.2710 h1        1 WZ1      0.095700
     36 HO21        0.2310   -0.2130    2.2320 ho        1 WZ1      0.433000
     37 H31         1.0200    0.4070   -1.2060 h1        1 WZ1      0.099700
     38 H12        -1.4790    0.0990   -1.0730 h2        1 WZ1      0.078700
     39 H52        -2.9750   -1.7890    1.7480 h1        1 WZ1      0.110700
     40 H62        -3.4750   -3.0490   -0.3450 h1        1 WZ1      0.043200
     41 H62A       -2.7430   -1.7250   -1.3760 h1        1 WZ1      0.043200
     42 HO62       -1.2370   -3.3790   -0.9310 ho        1 WZ1      0.405000
     43 H42        -5.0180   -1.2660    0.0920 h1        1 WZ1      0.060700
     44 HO42       -5.6060    0.2940    1.6570 ho        1 WZ1      0.405000
     45 H32        -5.0740    1.3190   -0.3540 h1        1 WZ1      0.050700
     46 HO32       -3.9730    0.8260   -2.3840 ho        1 WZ1      0.432000
     47 H22        -3.0510    2.0840    0.7520 h1        1 WZ1      0.078700
     48 HO22       -1.9660    2.8430   -1.2380 ho        1 WZ1      0.433000
@<TRIPOS>BOND
     1    1    2 1   
     2    1   25 1   
     3    2    3 1   
     4    2   12 1   
     5    2   26 1   
     6    3    4 1   
     7    3    6 1   
     8    3   27 1   
     9    4    5 1   
    10    4   28 1   
    11    4   29 1   
    12    5   30 1   
    13    6    7 1   
    14    7    8 1   
    15    7   10 1   
    16    7   31 1   
    17    8    9 1   
    18    9   32 1   
    19    9   33 1   
    20    9   34 1   
    21   10   11 1   
    22   10   12 1   
    23   10   35 1   
    24   11   36 1   
    25   12   13 1   
    26   12   37 1   
    27   13   14 1   
    28   14   15 1   
    29   14   23 1   
    30   14   38 1   
    31   15   16 1   
    32   16   17 1   
    33   16   19 1   
    34   16   39 1   
    35   17   18 1   
    36   17   40 1   
    37   17   41 1   
    38   18   42 1   
    39   19   20 1   
    40   19   21 1   
    41   19   43 1   
    42   20   44 1   
    43   21   22 1   
    44   21   23 1   
    45   21   45 1   
    46   22   46 1   
    47   23   24 1   
    48   23   47 1   
    49   24   48 1   
@<TRIPOS>SUBSTRUCTURE
     1 WZ1         1 TEMP              0 ****  ****    0 ROOT
