@<TRIPOS>MOLECULE
WZA
   53    56     1     0     0
SMALL
bcc


@<TRIPOS>ATOM
      1 C1          2.6720    0.1100    0.5330 ca        1 WZA      0.117100
      2 O1          4.9380   -0.3600   -1.2780 o         1 WZA     -0.639800
      3 O2          6.3440   -0.0030    0.6640 o         1 WZA     -0.639800
      4 C2          2.1140   -1.1560    0.2330 ca        1 WZA      0.117100
      5 C3          0.7620   -1.2510   -0.1060 ca        1 WZA     -0.187000
      6 C4         -0.0540   -0.1130   -0.1340 ca        1 WZA     -0.035300
      7 S1          5.2790    0.3650   -0.1440 s6        1 WZA      1.703400
      8 N1          5.3020    1.9210   -0.4640 n3        1 WZA     -1.037700
      9 O3          3.9690    0.2140    0.9400 os        1 WZA     -0.460800
     10 C5          0.4980    1.1400    0.1850 ca        1 WZA     -0.090300
     11 C6          1.8540    1.2420    0.5170 ca        1 WZA     -0.137000
     12 O4          2.9770   -2.2260    0.3270 os        1 WZA     -0.309900
     13 C7          2.5330   -3.4440   -0.2630 c3        1 WZA      0.113700
     14 C8         -1.4880   -0.2230   -0.5580 c3        1 WZA     -0.014400
     15 C10        -1.6860    2.2510   -0.3820 c3        1 WZA     -0.074400
     16 C11        -0.3060    2.3940    0.2210 c3        1 WZA     -0.030100
     17 C12        -2.1090   -1.5810   -0.2430 c3        1 WZA     -0.071400
     18 C13        -3.5940   -1.6710   -0.5610 c3        1 WZA     -0.063400
     19 C14        -4.3610   -0.5230    0.0690 c3        1 WZA     -0.044000
     20 C15        -5.8220   -0.3490   -0.4150 c3        1 WZA      0.142100
     21 C16        -4.3580   -0.6520    1.5830 c3        1 WZA     -0.078100
     22 C17        -3.7330    0.7930   -0.4470 c3        1 WZA     -0.066700
     23 C18        -4.7610    1.8630   -0.1030 c3        1 WZA     -0.068400
     24 C19        -6.1130    1.1590   -0.2510 c3        1 WZA     -0.117400
     25 CAW        -2.3090    0.9340    0.0400 c3        1 WZA     -0.047700
     26 OAF        -6.6880   -1.1540    0.3620 oh        1 WZA     -0.591800
     27 H6          2.2830    2.2200    0.7820 ha        1 WZA      0.138000
     28 H3          0.3410   -2.2370   -0.3500 ha        1 WZA      0.143000
     29 H8         -1.5000   -0.1010   -1.6830 hc        1 WZA      0.057700
     30 H11N        5.7380    2.5960    0.1160 hn        1 WZA      0.454800
     31 H12N        4.8620    2.3310   -1.2510 hn        1 WZA      0.454800
     32 H111       -0.4040    2.7130    1.2960 hc        1 WZA      0.048200
     33 H112        0.2500    3.2100   -0.3140 hc        1 WZA      0.048200
     34 H71C        1.6890   -3.8760    0.3280 h1        1 WZA      0.046367
     35 H72C        2.2300   -3.2870   -1.3260 h1        1 WZA      0.046367
     36 H73C        3.4360   -4.1030   -0.2010 h1        1 WZA      0.046367
     37 H121       -1.5880   -2.3700   -0.8480 hc        1 WZA      0.044200
     38 H122       -1.9400   -1.8210    0.8390 hc        1 WZA      0.044200
     39 HAW        -2.2810    0.8700    1.1630 hc        1 WZA      0.065700
     40 H101       -2.3350    3.1010   -0.0440 hc        1 WZA      0.044700
     41 H102       -1.6250    2.3010   -1.5010 hc        1 WZA      0.044700
     42 H131       -3.7400   -1.6540   -1.6730 hc        1 WZA      0.045700
     43 H132       -3.9930   -2.6470   -0.1820 hc        1 WZA      0.045700
     44 H15        -5.9070   -0.6500   -1.4950 h1        1 WZA      0.034700
     45 H161       -3.3210   -0.7240    1.9870 hc        1 WZA      0.041700
     46 H162       -4.8640    0.2300    2.0450 hc        1 WZA      0.041700
     47 H163       -4.9190   -1.5730    1.8770 hc        1 WZA      0.041700
     48 H17        -3.6940    0.7310   -1.5760 hc        1 WZA      0.045700
     49 H191       -6.6670    1.5440   -1.1400 hc        1 WZA      0.048200
     50 H192       -6.7460    1.3280    0.6550 hc        1 WZA      0.048200
     51 HAF        -7.5850   -0.9430    0.0760 ho        1 WZA      0.399000
     52 H181       -4.6170    2.2340    0.9420 hc        1 WZA      0.045200
     53 H182       -4.6800    2.7390   -0.7910 hc        1 WZA      0.045200
@<TRIPOS>BOND
     1    1    4 ar  
     2    1    9 1   
     3    1   11 ar  
     4    2    7 2   
     5    3    7 2   
     6    4    5 ar  
     7    4   12 1   
     8    5    6 ar  
     9    5   28 1   
    10    6   10 ar  
    11    6   14 1   
    12    7    8 1   
    13    7    9 1   
    14    8   30 1   
    15    8   31 1   
    16   10   11 ar  
    17   10   16 1   
    18   11   27 1   
    19   12   13 1   
    20   13   34 1   
    21   13   35 1   
    22   13   36 1   
    23   14   17 1   
    24   14   25 1   
    25   14   29 1   
    26   15   16 1   
    27   15   25 1   
    28   15   40 1   
    29   15   41 1   
    30   16   32 1   
    31   16   33 1   
    32   17   18 1   
    33   17   37 1   
    34   17   38 1   
    35   18   19 1   
    36   18   42 1   
    37   18   43 1   
    38   19   20 1   
    39   19   21 1   
    40   19   22 1   
    41   20   24 1   
    42   20   26 1   
    43   20   44 1   
    44   21   45 1   
    45   21   46 1   
    46   21   47 1   
    47   22   23 1   
    48   22   25 1   
    49   22   48 1   
    50   23   24 1   
    51   23   52 1   
    52   23   53 1   
    53   24   49 1   
    54   24   50 1   
    55   25   39 1   
    56   26   51 1   
@<TRIPOS>SUBSTRUCTURE
     1 WZA         1 TEMP              0 ****  ****    0 ROOT
