@<TRIPOS>MOLECULE
WZA
   53    51     1     0     0
SMALL
bcc


@<TRIPOS>ATOM
      1 C1         -1.7770   -0.4030   -3.3730 c1        1 WZA      0.088000
      2 O1         -3.5570   -2.5290   -4.2870 o         1 WZA     -0.929000
      3 O2         -1.9260   -2.0230   -5.8750 o         1 WZA     -0.929000
      4 C2         -0.3160   -0.4320   -3.4010 c1        1 WZA      0.038000
      5 C3          0.4210   -0.4520   -2.1860 c1        1 WZA     -0.124000
      6 C4         -0.2350   -0.4430   -0.9890 c1        1 WZA     -0.058000
      7 S1         -3.1180   -1.4020   -5.1890 ss        1 WZA      2.822000
      8 N1         -4.2910   -1.0120   -6.2700 n2        1 WZA     -0.947000
      9 O3         -2.7180   -0.1870   -4.3920 os        1 WZA     -0.660000
     10 C5         -1.7720   -0.4120   -0.9600 c1        1 WZA     -0.048000
     11 C6         -2.4700   -0.3930   -2.1250 c2        1 WZA     -0.171000
     12 O4          0.3610   -0.4680   -4.6310 os        1 WZA     -0.219000
     13 C7          0.6050    0.8040   -5.1860 c3        1 WZA     -0.074000
     14 C8          0.4590   -0.5190    0.3490 c3        1 WZA     -0.060000
     15 C10        -1.6120   -0.4150    1.8940 c3        1 WZA     -0.153000
     16 C11        -2.5670   -0.4250    0.6760 c3        1 WZA     -0.122000
     17 C12         1.8630    0.0500    0.2350 c3        1 WZA     -0.151000
     18 C13         2.6660   -0.1020    1.5050 c3        1 WZA     -0.142000
     19 C14         1.9900    0.3800    2.6490 c3        1 WZA     -0.044000
     20 C15         2.7570    0.3130    4.1000 c3        1 WZA      0.030000
     21 C16         1.7940    1.8570    2.3800 c3        1 WZA     -0.195000
     22 C17         0.5970   -0.1720    2.8560 c3        1 WZA     -0.106000
     23 C18         0.1830    0.2350    4.3900 c3        1 WZA     -0.147000
     24 C19         1.6860    0.7290    5.1250 c3        1 WZA     -0.196000
     25 CAW        -0.4330    0.1010    1.6740 c3        1 WZA     -0.087000
     26 OAF         3.7530    1.1370    4.1250 oh        1 WZA     -0.319000
     27 H6         -3.4450   -0.3740   -2.1100 ha        1 WZA      0.160000
     28 H3          1.3970   -0.4710   -2.2080 ha        1 WZA      0.150000
     29 H8          0.5730   -1.4710    0.5330 hc        1 WZA      0.098000
     30 H11N       -4.2020   -0.2670   -6.7920 hn        1 WZA      0.255500
     31 H12N       -5.0450   -1.5250   -6.3300 hn        1 WZA      0.255500
     32 H111       -3.1470    0.3600    0.7380 hc        1 WZA      0.093500
     33 H112       -3.1260   -1.2240    0.7350 hc        1 WZA      0.093500
     34 H71C        1.4340    0.7780   -5.7110 h1        1 WZA      0.081000
     35 H72C        0.6950    1.4630   -4.4640 h1        1 WZA      0.081000
     36 H73C       -0.1430    1.0560   -5.7680 h1        1 WZA      0.081000
     37 H121        2.3310   -0.4110   -0.4890 hc        1 WZA      0.084000
     38 H122        1.8010    1.0020    0.0150 hc        1 WZA      0.084000
     39 HAW        -0.5320    1.0670    1.5610 hc        1 WZA      0.103000
     40 H101       -2.0390    0.1100    2.6030 hc        1 WZA      0.084500
     41 H102       -1.4820   -1.3430    2.1780 hc        1 WZA      0.084500
     42 H131        2.8700   -1.0510    1.6370 hc        1 WZA      0.084500
     43 H132        3.5060    0.3900    1.4060 hc        1 WZA      0.084500
     44 H15         3.0640   -0.5980    4.2810 h1        1 WZA      0.074000
     45 H161        1.4410    2.2910    3.1860 hc        1 WZA      0.080333
     46 H162        2.6540    2.2620    2.1400 hc        1 WZA      0.080333
     47 H163        1.1610    1.9730    1.6420 hc        1 WZA      0.080333
     48 H17         0.7040   -1.1420    2.8700 hc        1 WZA      0.086000
     49 H191        1.6990    1.6990    5.2590 hc        1 WZA      0.087000
     50 H192        1.8230    0.2620    5.9720 hc        1 WZA      0.087000
     51 HAF         4.3110    0.9090    4.7780 ho        1 WZA      0.197000
     52 H181       -0.4570    0.9750    4.3870 hc        1 WZA      0.084500
     53 H182       -0.1900   -0.5390    4.8600 hc        1 WZA      0.084500
@<TRIPOS>BOND
     1    1    4 1   
     2    1   11 1   
     3    2    7 1   
     4    3    7 1   
     5    4   12 1   
     6    5    6 1   
     7    5   28 1   
     8    6   14 1   
     9    8   30 1   
    10    8   31 1   
    11   10   11 1   
    12   10   16 1   
    13   11   27 1   
    14   12   13 1   
    15   13   34 1   
    16   13   35 1   
    17   13   36 1   
    18   14   17 1   
    19   14   25 1   
    20   14   29 1   
    21   15   16 1   
    22   15   25 1   
    23   15   40 1   
    24   15   41 1   
    25   16   32 1   
    26   16   33 1   
    27   17   18 1   
    28   17   37 1   
    29   17   38 1   
    30   18   19 1   
    31   18   42 1   
    32   18   43 1   
    33   19   20 1   
    34   19   21 1   
    35   19   22 1   
    36   20   24 1   
    37   20   26 1   
    38   20   44 1   
    39   21   45 1   
    40   21   46 1   
    41   21   47 1   
    42   22   23 1   
    43   22   25 1   
    44   22   48 1   
    45   23   24 1   
    46   23   52 1   
    47   23   53 1   
    48   24   49 1   
    49   24   50 1   
    50   25   39 1   
    51   26   51 1   
@<TRIPOS>SUBSTRUCTURE
     1 WZA         1 TEMP              0 ****  ****    0 ROOT
