@<TRIPOS>MOLECULE
WZA
   54    57     1     0     0
SMALL
bcc


@<TRIPOS>ATOM
      1 C1         -0.3780   -0.7570    0.5800 ca        1 WZA      0.087100
      2 O1         -0.0430   -2.7030   -1.9130 o         1 WZA     -0.557300
      3 O2         -0.1870   -0.3950   -2.7810 o         1 WZA     -0.557300
      4 C2          1.0120   -0.6360    0.4010 ca        1 WZA      0.034100
      5 C3          1.8470   -0.4280    1.4900 ca        1 WZA     -0.114000
      6 C4          1.2900   -0.3340    2.7770 ca        1 WZA     -0.020300
      7 S1         -0.5170   -1.4330   -1.9680 s6        1 WZA      1.666400
      8 N1         -2.2880   -1.8040   -2.6770 nz        1 WZA     -0.793500
      9 O3         -1.1810   -0.9310   -0.5400 os        1 WZA     -0.463800
     10 C5         -0.1020   -0.4620    2.9490 ca        1 WZA     -0.043300
     11 C6         -0.9450   -0.6830    1.8450 ca        1 WZA     -0.091000
     12 O4          1.4130   -0.8230   -0.9200 os        1 WZA     -0.472900
     13 C7          2.5580   -0.0580   -1.3450 c3        1 WZA      0.144700
     14 C8          2.1880   -0.1590    3.9660 c3        1 WZA     -0.026400
     15 C10         0.1970   -0.3390    5.4460 c3        1 WZA     -0.080400
     16 C11        -0.7660   -0.3450    4.2790 c3        1 WZA     -0.044100
     17 C12         3.4810    0.5830    3.6400 c3        1 WZA     -0.070400
     18 C13         4.3480    0.8700    4.8560 c3        1 WZA     -0.065400
     19 C14         3.5470    1.5490    5.9510 c3        1 WZA     -0.046000
     20 C15         4.2460    1.6400    7.3320 c3        1 WZA      0.145100
     21 C16         3.1340    2.9460    5.5200 c3        1 WZA     -0.079100
     22 C17         2.3570    0.6240    6.2980 c3        1 WZA     -0.068700
     23 C18         1.8390    1.1550    7.6280 c3        1 WZA     -0.067400
     24 C19         3.0900    1.6530    8.3560 c3        1 WZA     -0.118400
     25 CAW         1.4150    0.5040    5.1210 c3        1 WZA     -0.046700
     26 OAF         5.0350    2.8120    7.3890 oh        1 WZA     -0.591800
     27 H6         -2.0330   -0.7820    1.9770 ha        1 WZA      0.166000
     28 H3          2.9330   -0.3420    1.3300 ha        1 WZA      0.168000
     29 H8          2.4740   -1.2020    4.3040 hc        1 WZA      0.073700
     30 H11N       -3.0050   -1.5800   -1.9910 hn        1 WZA      0.458133
     31 H12N       -2.4690   -1.2480   -3.5090 hn        1 WZA      0.458133
     32 H111       -1.3610    0.6110    4.2830 hc        1 WZA      0.065200
     33 H112       -1.4980   -1.1890    4.4040 hc        1 WZA      0.065200
     34 H71C        2.4880    0.9860   -0.9580 h1        1 WZA      0.073367
     35 H72C        2.4930   -0.0840   -2.4620 h1        1 WZA      0.073367
     36 H73C        3.4760   -0.5720   -0.9720 h1        1 WZA      0.073367
     37 H121        3.2340    1.5450    3.1190 hc        1 WZA      0.041200
     38 H122        4.0930   -0.0390    2.9330 hc        1 WZA      0.041200
     39 HAW         1.0710    1.5260    4.8030 hc        1 WZA      0.066700
     40 H101        0.5120   -1.3870    5.6920 hc        1 WZA      0.058700
     41 H102       -0.3180    0.0770    6.3520 hc        1 WZA      0.058700
     42 H131        4.7800   -0.0900    5.2450 hc        1 WZA      0.054200
     43 H132        5.2040    1.5280    4.5510 hc        1 WZA      0.054200
     44 H15         4.9030    0.7410    7.4900 h1        1 WZA      0.037700
     45 H161        4.0470    3.5790    5.3930 hc        1 WZA      0.043033
     46 H162        2.5750    2.9330    4.5550 hc        1 WZA      0.043033
     47 H163        2.4900    3.4150    6.3030 hc        1 WZA      0.043033
     48 H17         2.7730   -0.4080    6.4990 hc        1 WZA      0.049700
     49 H191        2.9350    2.6910    8.7420 hc        1 WZA      0.055700
     50 H192        3.3360    0.9930    9.2220 hc        1 WZA      0.055700
     51 HAF         5.3870    2.8630    8.2870 ho        1 WZA      0.407000
     52 H181        1.1120    1.9900    7.4700 hc        1 WZA      0.047700
     53 H182        1.3200    0.3550    8.2100 hc        1 WZA      0.047700
     54 H13        -2.3830   -2.7870   -2.9180 hn        1 WZA      0.458133
@<TRIPOS>BOND
     1    1    4 ar  
     2    1    9 1   
     3    1   11 ar  
     4    2    7 2   
     5    3    7 2   
     6    4    5 ar  
     7    4   12 1   
     8    5    6 ar  
     9    5   28 1   
    10    6   10 ar  
    11    6   14 1   
    12    7    8 1   
    13    7    9 1   
    14    8   30 1   
    15    8   31 1   
    16    8   54 1   
    17   10   11 ar  
    18   10   16 1   
    19   11   27 1   
    20   12   13 1   
    21   13   34 1   
    22   13   35 1   
    23   13   36 1   
    24   14   17 1   
    25   14   25 1   
    26   14   29 1   
    27   15   16 1   
    28   15   25 1   
    29   15   40 1   
    30   15   41 1   
    31   16   32 1   
    32   16   33 1   
    33   17   18 1   
    34   17   37 1   
    35   17   38 1   
    36   18   19 1   
    37   18   42 1   
    38   18   43 1   
    39   19   20 1   
    40   19   21 1   
    41   19   22 1   
    42   20   24 1   
    43   20   26 1   
    44   20   44 1   
    45   21   45 1   
    46   21   46 1   
    47   21   47 1   
    48   22   23 1   
    49   22   25 1   
    50   22   48 1   
    51   23   24 1   
    52   23   52 1   
    53   23   53 1   
    54   24   49 1   
    55   24   50 1   
    56   25   39 1   
    57   26   51 1   
@<TRIPOS>SUBSTRUCTURE
     1 WZA         1 TEMP              0 ****  ****    0 ROOT
