@<TRIPOS>MOLECULE
WZA
   54    57     1     0     0
SMALL
bcc


@<TRIPOS>ATOM
      1 C1         -0.3440   -0.7090    0.5380 ca        1 WZA      0.087100
      2 O1          0.0010   -2.6560   -1.9530 o         1 WZA     -0.557300
      3 O2         -0.0760   -0.3430   -2.8170 o         1 WZA     -0.557300
      4 C2          1.0530   -0.6170    0.3870 ca        1 WZA      0.034100
      5 C3          1.8690   -0.4300    1.4940 ca        1 WZA     -0.114000
      6 C4          1.2890   -0.3260    2.7700 ca        1 WZA     -0.020300
      7 S1         -0.4450   -1.3760   -2.0150 s6        1 WZA      1.666400
      8 N1         -2.2090   -1.7070   -2.7600 n4        1 WZA     -0.793500
      9 O3         -1.1270   -0.8630   -0.5980 os        1 WZA     -0.463800
     10 C5         -0.1100   -0.4240    2.9120 ca        1 WZA     -0.043300
     11 C6         -0.9340   -0.6250    1.7910 ca        1 WZA     -0.091000
     12 O4          1.4760   -0.8100   -0.9250 os        1 WZA     -0.472900
     13 C7          2.6450   -0.0690   -1.3250 c3        1 WZA      0.144700
     14 C8          2.1650   -0.1730    3.9760 c3        1 WZA     -0.026400
     15 C10         0.1410   -0.3130    5.4150 c3        1 WZA     -0.080400
     16 C11        -0.7970   -0.2960    4.2290 c3        1 WZA     -0.044100
     17 C12         3.4810    0.5420    3.6780 c3        1 WZA     -0.070400
     18 C13         4.3290    0.8080    4.9130 c3        1 WZA     -0.065400
     19 C14         3.5200    1.5020    5.9930 c3        1 WZA     -0.046000
     20 C15         4.1930    1.5750    7.3870 c3        1 WZA      0.145100
     21 C16         3.1460    2.9080    5.5570 c3        1 WZA     -0.079100
     22 C17         2.3040    0.6020    6.3130 c3        1 WZA     -0.068700
     23 C18         1.7710    1.1420    7.6340 c3        1 WZA     -0.067400
     24 C19         3.0180    1.6110    8.3880 c3        1 WZA     -0.118400
     25 CAW         1.3840    0.5040    5.1170 c3        1 WZA     -0.046700
     26 OAF         5.0060    2.7300    7.4630 oh        1 WZA     -0.591800
     27 H6         -2.0260   -0.7010    1.9010 ha        1 WZA      0.166000
     28 H3          2.9600   -0.3660    1.3560 ha        1 WZA      0.168000
     29 H8          2.4220   -1.2220    4.3170 hc        1 WZA      0.073700
     30 H11N       -2.9350   -1.4690   -2.0880 hn        1 WZA      0.458133
     31 H12N       -2.3190   -2.6870   -3.0060 hn        1 WZA      0.458133
     32 H111       -1.3710    0.6730    4.2230 hc        1 WZA      0.065200
     33 H112       -1.5490   -1.1240    4.3380 hc        1 WZA      0.065200
     34 H71C        2.6030   -0.0910   -2.4440 h1        1 WZA      0.073367
     35 H72C        3.5450   -0.6040   -0.9350 h1        1 WZA      0.073367
     36 H73C        2.5910    0.9760   -0.9370 h1        1 WZA      0.073367
     37 H121        4.0930   -0.0920    2.9820 hc        1 WZA      0.041200
     38 H122        3.2650    1.5100    3.1550 hc        1 WZA      0.041200
     39 HAW         1.0690    1.5350    4.7950 hc        1 WZA      0.066700
     40 H101        0.4290   -1.3680    5.6660 hc        1 WZA      0.058700
     41 H102       -0.3830    0.1120    6.3120 hc        1 WZA      0.058700
     42 H131        5.2040    1.4470    4.6260 hc        1 WZA      0.054200
     43 H132        4.7320   -0.1620    5.3080 hc        1 WZA      0.054200
     44 H15         4.8270    0.6620    7.5570 h1        1 WZA      0.037700
     45 H161        4.0750    3.5220    5.4500 hc        1 WZA      0.043033
     46 H162        2.4970    3.3900    6.3270 hc        1 WZA      0.043033
     47 H163        2.6070    2.9090    4.5810 hc        1 WZA      0.043033
     48 H17         2.6940   -0.4390    6.5210 hc        1 WZA      0.049700
     49 H191        3.2310    0.9440    9.2580 hc        1 WZA      0.055700
     50 H192        2.8770    2.6510    8.7730 hc        1 WZA      0.055700
     51 HAF         5.3400    2.7710    8.3680 ho        1 WZA      0.407000
     52 H181        1.2230    0.3520    8.2030 hc        1 WZA      0.047700
     53 H182        1.0650    1.9920    7.4630 hc        1 WZA      0.047700
     54 H13        -2.3610   -1.1450   -3.5940 hn        1 WZA      0.458133
@<TRIPOS>BOND
     1    1    4 ar  
     2    1    9 1   
     3    1   11 ar  
     4    2    7 2   
     5    3    7 2   
     6    4    5 ar  
     7    4   12 1   
     8    5    6 ar  
     9    5   28 1   
    10    6   10 ar  
    11    6   14 1   
    12    7    8 1   
    13    7    9 1   
    14    8   30 1   
    15    8   31 1   
    16    8   54 1   
    17   10   11 ar  
    18   10   16 1   
    19   11   27 1   
    20   12   13 1   
    21   13   34 1   
    22   13   35 1   
    23   13   36 1   
    24   14   17 1   
    25   14   25 1   
    26   14   29 1   
    27   15   16 1   
    28   15   25 1   
    29   15   40 1   
    30   15   41 1   
    31   16   32 1   
    32   16   33 1   
    33   17   18 1   
    34   17   37 1   
    35   17   38 1   
    36   18   19 1   
    37   18   42 1   
    38   18   43 1   
    39   19   20 1   
    40   19   21 1   
    41   19   22 1   
    42   20   24 1   
    43   20   26 1   
    44   20   44 1   
    45   21   45 1   
    46   21   46 1   
    47   21   47 1   
    48   22   23 1   
    49   22   25 1   
    50   22   48 1   
    51   23   24 1   
    52   23   52 1   
    53   23   53 1   
    54   24   49 1   
    55   24   50 1   
    56   25   39 1   
    57   26   51 1   
@<TRIPOS>SUBSTRUCTURE
     1 WZA         1 TEMP              0 ****  ****    0 ROOT
