@<TRIPOS>MOLECULE
WZA
   54    57     1     0     0
SMALL
bcc


@<TRIPOS>ATOM
      1 C1         -0.3430   -0.6800    0.5270 ca        1 WZA      0.087100
      2 O1         -0.0110   -2.6300   -1.9630 o         1 WZA     -0.557300
      3 O2         -0.0550   -0.3160   -2.8260 o         1 WZA     -0.557300
      4 C2          1.0550   -0.6060    0.3830 ca        1 WZA      0.034100
      5 C3          1.8690   -0.4310    1.4940 ca        1 WZA     -0.114000
      6 C4          1.2840   -0.3210    2.7670 ca        1 WZA     -0.020300
      7 S1         -0.4410   -1.3440   -2.0260 s6        1 WZA      1.666400
      8 N1         -2.2050   -1.6520   -2.7800 n4        1 WZA     -0.793500
      9 O3         -1.1230   -0.8230   -0.6130 os        1 WZA     -0.463800
     10 C5         -0.1160   -0.4010    2.9030 ca        1 WZA     -0.043300
     11 C6         -0.9380   -0.5910    1.7780 ca        1 WZA     -0.091000
     12 O4          1.4830   -0.8030   -0.9270 os        1 WZA     -0.472900
     13 C7          2.6620   -0.0760   -1.3210 c3        1 WZA      0.144700
     14 C8          2.1560   -0.1810    3.9780 c3        1 WZA     -0.026400
     15 C10         0.1240   -0.2960    5.4070 c3        1 WZA     -0.080400
     16 C11        -0.8090   -0.2660    4.2170 c3        1 WZA     -0.044100
     17 C12         3.4820    0.5170    3.6870 c3        1 WZA     -0.070400
     18 C13         4.3280    0.7710    4.9260 c3        1 WZA     -0.065400
     19 C14         3.5230    1.4740    6.0030 c3        1 WZA     -0.046000
     20 C15         4.1910    1.5380    7.4010 c3        1 WZA      0.145100
     21 C16         3.1690    2.8860    5.5670 c3        1 WZA     -0.079100
     22 C17         2.2940    0.5900    6.3160 c3        1 WZA     -0.068700
     23 C18         1.7610    1.1350    7.6360 c3        1 WZA     -0.067400
     24 C19         3.0110    1.5870    8.3960 c3        1 WZA     -0.118400
     25 CAW         1.3790    0.5050    5.1160 c3        1 WZA     -0.046700
     26 OAF         5.0180    2.6820    7.4820 oh        1 WZA     -0.591800
     27 H6         -2.0320   -0.6520    1.8830 ha        1 WZA      0.166000
     28 H3          2.9610   -0.3810    1.3610 ha        1 WZA      0.168000
     29 H8          2.3980   -1.2340    4.3190 hc        1 WZA      0.073700
     30 H11N       -2.3460   -1.0890   -3.6150 hn        1 WZA      0.458133
     31 H12N       -2.9310   -1.4050   -2.1110 hn        1 WZA      0.458133
     32 H111       -1.5720   -1.0840    4.3210 hc        1 WZA      0.065200
     33 H112       -1.3700    0.7110    4.2100 hc        1 WZA      0.065200
     34 H71C        3.5530   -0.6220   -0.9280 h1        1 WZA      0.073367
     35 H72C        2.6190    0.9690   -0.9320 h1        1 WZA      0.073367
     36 H73C        2.6240   -0.0960   -2.4400 h1        1 WZA      0.073367
     37 H121        4.0900   -0.1240    2.9940 hc        1 WZA      0.041200
     38 H122        3.2820    1.4880    3.1640 hc        1 WZA      0.041200
     39 HAW         1.0780    1.5400    4.7930 hc        1 WZA      0.066700
     40 H101        0.3970   -1.3550    5.6580 hc        1 WZA      0.058700
     41 H102       -0.3990    0.1350    6.3020 hc        1 WZA      0.058700
     42 H131        4.7170   -0.2040    5.3220 hc        1 WZA      0.054200
     43 H132        5.2130    1.3990    4.6440 hc        1 WZA      0.054200
     44 H15         4.8120    0.6160    7.5720 h1        1 WZA      0.037700
     45 H161        2.6350    2.8940    4.5880 hc        1 WZA      0.043033
     46 H162        4.1070    3.4870    5.4650 hc        1 WZA      0.043033
     47 H163        2.5230    3.3750    6.3350 hc        1 WZA      0.043033
     48 H17         2.6690   -0.4560    6.5250 hc        1 WZA      0.049700
     49 H191        2.8820    2.6290    8.7810 hc        1 WZA      0.055700
     50 H192        3.2120    0.9170    9.2660 hc        1 WZA      0.055700
     51 HAF         5.3480    2.7180    8.3880 ho        1 WZA      0.407000
     52 H181        1.2010    0.3520    8.2010 hc        1 WZA      0.047700
     53 H182        1.0680    1.9950    7.4620 hc        1 WZA      0.047700
     54 H13        -2.3270   -2.6310   -3.0270 hn        1 WZA      0.458133
@<TRIPOS>BOND
     1    1    4 ar  
     2    1    9 1   
     3    1   11 ar  
     4    2    7 2   
     5    3    7 2   
     6    4    5 ar  
     7    4   12 1   
     8    5    6 ar  
     9    5   28 1   
    10    6   10 ar  
    11    6   14 1   
    12    7    8 1   
    13    7    9 1   
    14    8   30 1   
    15    8   31 1   
    16    8   54 1   
    17   10   11 ar  
    18   10   16 1   
    19   11   27 1   
    20   12   13 1   
    21   13   34 1   
    22   13   35 1   
    23   13   36 1   
    24   14   17 1   
    25   14   25 1   
    26   14   29 1   
    27   15   16 1   
    28   15   25 1   
    29   15   40 1   
    30   15   41 1   
    31   16   32 1   
    32   16   33 1   
    33   17   18 1   
    34   17   37 1   
    35   17   38 1   
    36   18   19 1   
    37   18   42 1   
    38   18   43 1   
    39   19   20 1   
    40   19   21 1   
    41   19   22 1   
    42   20   24 1   
    43   20   26 1   
    44   20   44 1   
    45   21   45 1   
    46   21   46 1   
    47   21   47 1   
    48   22   23 1   
    49   22   25 1   
    50   22   48 1   
    51   23   24 1   
    52   23   52 1   
    53   23   53 1   
    54   24   49 1   
    55   24   50 1   
    56   25   39 1   
    57   26   51 1   
@<TRIPOS>SUBSTRUCTURE
     1 WZA         1 TEMP              0 ****  ****    0 ROOT
