@<TRIPOS>MOLECULE
WZB
   62    65     1     0     0
SMALL
bcc


@<TRIPOS>ATOM
      1 OAH         0.2120   -1.2070   -0.3990 o         1 WZB     -0.558300
      2 SBD         1.0590   -0.2970    0.1520 s6        1 WZB      1.636400
      3 OAG         0.9180    0.4040    1.3080 o         1 WZB     -0.558300
      4 NAD         2.6090   -1.2900    0.4670 n4        1 WZB     -0.801500
      5 OAS         1.6970    0.6370   -0.9970 os        1 WZB     -0.583500
      6 CAX         0.9310    1.1820   -2.0870 c3        1 WZB      0.189100
      7 CAM        -0.0520    2.2550   -1.5760 c3        1 WZB     -0.132400
      8 CAO         0.0550    3.4390   -2.5420 c3        1 WZB     -0.067400
      9 CBB         1.8760    1.9210   -3.0690 c3        1 WZB     -0.046000
     10 CBA         0.8620    2.9010   -3.7150 c3        1 WZB     -0.064700
     11 CAB         2.9780    2.6080   -2.2830 c3        1 WZB     -0.079100
     12 CAQ         2.4600    1.0720   -4.1850 c3        1 WZB     -0.068400
     13 CAP         3.1040    1.9440   -5.2540 c3        1 WZB     -0.073400
     14 CAY         2.1880    3.0420   -5.7870 c3        1 WZB     -0.027400
     15 CAZ         1.5660    3.8640   -4.6450 c3        1 WZB     -0.048700
     16 CAN         0.6080    4.8850   -5.2310 c3        1 WZB     -0.078400
     17 CAL         1.3660    5.8900   -6.0710 c3        1 WZB     -0.044100
     18 CAU         2.4120    5.2770   -6.9370 ca        1 WZB     -0.052300
     19 CAI         2.9840    6.0840   -7.9220 ca        1 WZB     -0.123000
     20 CAW         2.8530    3.9440   -6.7820 ca        1 WZB     -0.017300
     21 CAJ         3.8680    3.4600   -7.6130 ca        1 WZB     -0.125000
     22 CAT         4.4620    4.2470   -8.6070 ca        1 WZB     -0.030300
     23 CAK         5.5560    3.6890   -9.4470 c3        1 WZB     -0.049100
     24 CAA         5.0360    2.7790  -10.5350 c3        1 WZB     -0.103100
     25 CAV         3.9930    5.5650   -8.7480 ca        1 WZB      0.040100
     26 OAR         4.6120    6.4230   -9.6410 os        1 WZB     -0.432800
     27 SBC         3.8740    6.7280  -11.0940 s6        1 WZB      1.560400
     28 OAF         4.0060    5.6830  -11.9580 o         1 WZB     -0.551800
     29 OAE         2.7800    7.5220  -10.9130 o         1 WZB     -0.551800
     30 NAC         5.1780    7.9260  -11.6730 n4        1 WZB     -0.796500
     31 HAD1        2.9140   -1.2030    1.4400 hn        1 WZB      0.475800
     32 HAD2        2.4660   -2.2830    0.2740 hn        1 WZB      0.475800
     33 HAX         0.4090    0.3230   -2.5910 h1        1 WZB      0.080700
     34 HAM1        0.2160    2.5750   -0.5380 hc        1 WZB      0.071700
     35 HAM2       -1.0950    1.8490   -1.5660 hc        1 WZB      0.071700
     36 HAO1        0.5740    4.3030   -2.0560 hc        1 WZB      0.071200
     37 HAO2       -0.9570    3.7850   -2.8670 hc        1 WZB      0.071200
     38 HBA         0.1520    2.2880   -4.3480 hc        1 WZB      0.059700
     39 HAB1        2.5420    3.2630   -1.4910 hc        1 WZB      0.047033
     40 HAB2        3.6260    1.8410   -1.7930 hc        1 WZB      0.047033
     41 HAB3        3.6210    3.2320   -2.9490 hc        1 WZB      0.047033
     42 HAQ1        3.2340    0.3750   -3.7720 hc        1 WZB      0.049200
     43 HAQ2        1.6510    0.4480   -4.6490 hc        1 WZB      0.049200
     44 HAZ         2.3770    4.4110   -4.0900 hc        1 WZB      0.069700
     45 HAP1        4.0420    2.4070   -4.8500 hc        1 WZB      0.055200
     46 HAP2        3.3990    1.2660   -6.0990 hc        1 WZB      0.055200
     47 HAY         1.3410    2.5350   -6.3420 hc        1 WZB      0.075700
     48 HAN1        0.0720    5.4210   -4.4040 hc        1 WZB      0.060200
     49 HAN2       -0.1680    4.3680   -5.8540 hc        1 WZB      0.060200
     50 HAL1        0.6380    6.4620   -6.7080 hc        1 WZB      0.070700
     51 HAL2        1.8690    6.6360   -5.3950 hc        1 WZB      0.070700
     52 HAI         2.6470    7.1260   -8.0490 ha        1 WZB      0.162000
     53 HAJ         4.2300    2.4240   -7.5040 ha        1 WZB      0.158000
     54 HAK1        6.1490    4.5250   -9.9050 hc        1 WZB      0.060200
     55 HAK2        6.2620    3.1140   -8.7860 hc        1 WZB      0.060200
     56 HAA1        5.8930    2.3120  -11.0790 hc        1 WZB      0.052700
     57 HAA2        4.4200    3.3490  -11.2730 hc        1 WZB      0.052700
     58 HAA3        4.4070    1.9640  -10.1010 hc        1 WZB      0.052700
     59 HAC1        5.9190    8.0350  -10.9770 hn        1 WZB      0.476467
     60 HAC2        4.7840    8.8540  -11.8440 hn        1 WZB      0.476467
     61 HAD3        3.3820   -0.9720   -0.1200 hn        1 WZB      0.475800
     62 HAC3        5.6190    7.6110  -12.5400 hn        1 WZB      0.476467
@<TRIPOS>BOND
     1    1    2 2   
     2    2    3 2   
     3    2    4 1   
     4    2    5 1   
     5    4   31 1   
     6    4   32 1   
     7    4   61 1   
     8    5    6 1   
     9    6    7 1   
    10    6    9 1   
    11    6   33 1   
    12    7    8 1   
    13    7   34 1   
    14    7   35 1   
    15    8   10 1   
    16    8   36 1   
    17    8   37 1   
    18    9   10 1   
    19    9   11 1   
    20    9   12 1   
    21   10   15 1   
    22   10   38 1   
    23   11   39 1   
    24   11   40 1   
    25   11   41 1   
    26   12   13 1   
    27   12   42 1   
    28   12   43 1   
    29   13   14 1   
    30   13   45 1   
    31   13   46 1   
    32   14   15 1   
    33   14   20 1   
    34   14   47 1   
    35   15   16 1   
    36   15   44 1   
    37   16   17 1   
    38   16   48 1   
    39   16   49 1   
    40   17   18 1   
    41   17   50 1   
    42   17   51 1   
    43   18   19 ar  
    44   18   20 ar  
    45   19   25 ar  
    46   19   52 1   
    47   20   21 ar  
    48   21   22 ar  
    49   21   53 1   
    50   22   23 1   
    51   22   25 ar  
    52   23   24 1   
    53   23   54 1   
    54   23   55 1   
    55   24   56 1   
    56   24   57 1   
    57   24   58 1   
    58   25   26 1   
    59   26   27 1   
    60   27   28 2   
    61   27   29 2   
    62   27   30 1   
    63   30   59 1   
    64   30   60 1   
    65   30   62 1   
@<TRIPOS>SUBSTRUCTURE
     1 WZB         1 TEMP              0 ****  ****    0 ROOT
