@<TRIPOS>MOLECULE
WZB
   62    65     1     0     0
SMALL
bcc


@<TRIPOS>ATOM
      1 OAH         0.2160   -1.2060   -0.3950 o         1 WZB     -0.558300
      2 SBD         1.0550   -0.2890    0.1570 s6        1 WZB      1.636400
      3 OAG         0.9050    0.4150    1.3090 o         1 WZB     -0.558300
      4 NAD         2.6100   -1.2710    0.4820 nz        1 WZB     -0.801500
      5 OAS         1.6930    0.6440   -0.9930 os        1 WZB     -0.583500
      6 CAX         0.9280    1.1820   -2.0880 c3        1 WZB      0.189100
      7 CAM        -0.0630    2.2500   -1.5850 c3        1 WZB     -0.132400
      8 CAO         0.0410    3.4320   -2.5540 c3        1 WZB     -0.067400
      9 CBB         1.8730    1.9230   -3.0690 c3        1 WZB     -0.046000
     10 CBA         0.8570    2.8950   -3.7220 c3        1 WZB     -0.064700
     11 CAB         2.9680    2.6190   -2.2800 c3        1 WZB     -0.079100
     12 CAQ         2.4670    1.0750   -4.1790 c3        1 WZB     -0.068400
     13 CAP         3.1110    1.9470   -5.2480 c3        1 WZB     -0.073400
     14 CAY         2.1910    3.0380   -5.7890 c3        1 WZB     -0.027400
     15 CAZ         1.5590    3.8600   -4.6510 c3        1 WZB     -0.048700
     16 CAN         0.5980    4.8740   -5.2450 c3        1 WZB     -0.078400
     17 CAL         1.3540    5.8800   -6.0840 c3        1 WZB     -0.044100
     18 CAU         2.4070    5.2710   -6.9440 ca        1 WZB     -0.052300
     19 CAI         2.9790    6.0790   -7.9280 ca        1 WZB     -0.123000
     20 CAW         2.8550    3.9410   -6.7840 ca        1 WZB     -0.017300
     21 CAJ         3.8770    3.4610   -7.6090 ca        1 WZB     -0.125000
     22 CAT         4.4700    4.2490   -8.6020 ca        1 WZB     -0.030300
     23 CAK         5.5710    3.6950   -9.4350 c3        1 WZB     -0.049100
     24 CAA         5.0610    2.7790  -10.5230 c3        1 WZB     -0.103100
     25 CAV         3.9940    5.5630   -8.7480 ca        1 WZB      0.040100
     26 OAR         4.6130    6.4230   -9.6410 os        1 WZB     -0.432800
     27 SBC         3.8790    6.7200  -11.0980 s6        1 WZB      1.560400
     28 OAF         4.0200    5.6730  -11.9590 o         1 WZB     -0.551800
     29 OAE         2.7800    7.5080  -10.9240 o         1 WZB     -0.551800
     30 NAC         5.1790    7.9240  -11.6750 nz        1 WZB     -0.796500
     31 HAD1        2.9100   -1.1790    1.4560 hn        1 WZB      0.475800
     32 HAD2        2.4730   -2.2660    0.2930 hn        1 WZB      0.475800
     33 HAX         0.4140    0.3180   -2.5920 h1        1 WZB      0.080700
     34 HAM1        0.1980    2.5750   -0.5460 hc        1 WZB      0.071700
     35 HAM2       -1.1030    1.8380   -1.5790 hc        1 WZB      0.071700
     36 HAO1       -0.9720    3.7720   -2.8850 hc        1 WZB      0.071200
     37 HAO2        0.5520    4.3000   -2.0680 hc        1 WZB      0.071200
     38 HBA         0.1530    2.2760   -4.3560 hc        1 WZB      0.059700
     39 HAB1        2.5240    3.2740   -1.4920 hc        1 WZB      0.047033
     40 HAB2        3.6180    1.8580   -1.7850 hc        1 WZB      0.047033
     41 HAB3        3.6100    3.2450   -2.9440 hc        1 WZB      0.047033
     42 HAQ1        1.6640    0.4450   -4.6450 hc        1 WZB      0.049200
     43 HAQ2        3.2440    0.3830   -3.7610 hc        1 WZB      0.049200
     44 HAZ         2.3640    4.4130   -4.0950 hc        1 WZB      0.069700
     45 HAP1        3.4140    1.2680   -6.0900 hc        1 WZB      0.055200
     46 HAP2        4.0450    2.4170   -4.8410 hc        1 WZB      0.055200
     47 HAY         1.3490    2.5240   -6.3460 hc        1 WZB      0.075700
     48 HAN1       -0.1730    4.3500   -5.8700 hc        1 WZB      0.060200
     49 HAN2        0.0540    5.4090   -4.4220 hc        1 WZB      0.060200
     50 HAL1        0.6250    6.4460   -6.7260 hc        1 WZB      0.070700
     51 HAL2        1.8490    6.6320   -5.4080 hc        1 WZB      0.070700
     52 HAI         2.6360    7.1180   -8.0590 ha        1 WZB      0.162000
     53 HAJ         4.2440    2.4270   -7.4950 ha        1 WZB      0.158000
     54 HAK1        6.2770    3.1250   -8.7700 hc        1 WZB      0.060200
     55 HAK2        6.1610    4.5330   -9.8930 hc        1 WZB      0.060200
     56 HAA1        4.4340    1.9620  -10.0900 hc        1 WZB      0.052700
     57 HAA2        4.4450    3.3440  -11.2660 hc        1 WZB      0.052700
     58 HAA3        5.9230    2.3160  -11.0620 hc        1 WZB      0.052700
     59 HAC1        5.9170    8.0380  -10.9760 hn        1 WZB      0.476467
     60 HAC2        4.7810    8.8490  -11.8500 hn        1 WZB      0.476467
     61 HAD3        3.3840   -0.9520   -0.1030 hn        1 WZB      0.475800
     62 HAC3        5.6250    7.6090  -12.5390 hn        1 WZB      0.476467
@<TRIPOS>BOND
     1    1    2 2   
     2    2    3 2   
     3    2    4 1   
     4    2    5 1   
     5    4   31 1   
     6    4   32 1   
     7    4   61 1   
     8    5    6 1   
     9    6    7 1   
    10    6    9 1   
    11    6   33 1   
    12    7    8 1   
    13    7   34 1   
    14    7   35 1   
    15    8   10 1   
    16    8   36 1   
    17    8   37 1   
    18    9   10 1   
    19    9   11 1   
    20    9   12 1   
    21   10   15 1   
    22   10   38 1   
    23   11   39 1   
    24   11   40 1   
    25   11   41 1   
    26   12   13 1   
    27   12   42 1   
    28   12   43 1   
    29   13   14 1   
    30   13   45 1   
    31   13   46 1   
    32   14   15 1   
    33   14   20 1   
    34   14   47 1   
    35   15   16 1   
    36   15   44 1   
    37   16   17 1   
    38   16   48 1   
    39   16   49 1   
    40   17   18 1   
    41   17   50 1   
    42   17   51 1   
    43   18   19 ar  
    44   18   20 ar  
    45   19   25 ar  
    46   19   52 1   
    47   20   21 ar  
    48   21   22 ar  
    49   21   53 1   
    50   22   23 1   
    51   22   25 ar  
    52   23   24 1   
    53   23   54 1   
    54   23   55 1   
    55   24   56 1   
    56   24   57 1   
    57   24   58 1   
    58   25   26 1   
    59   26   27 1   
    60   27   28 2   
    61   27   29 2   
    62   27   30 1   
    63   30   59 1   
    64   30   60 1   
    65   30   62 1   
@<TRIPOS>SUBSTRUCTURE
     1 WZB         1 TEMP              0 ****  ****    0 ROOT
