@<TRIPOS>MOLECULE
WZB
   60    63     1     0     0
SMALL
bcc


@<TRIPOS>ATOM
      1 OAH         6.3060   -1.1110    1.7570 o         1 WZB     -0.654300
      2 SBD         6.4340   -1.2040    0.3730 s6        1 WZB      1.716400
      3 OAG         7.6440   -0.9490   -0.2580 o         1 WZB     -0.654300
      4 NAD         5.7620   -2.5330   -0.1740 n3        1 WZB     -1.035700
      5 OAS         5.4550    0.0280   -0.2190 os        1 WZB     -0.573500
      6 CAX         4.4210    0.6300    0.5190 c3        1 WZB      0.197100
      7 CAM         4.4950    2.1600    0.3070 c3        1 WZB     -0.086400
      8 CAO         3.0620    2.6510    0.0960 c3        1 WZB     -0.072400
      9 CBB         3.0090    0.2280    0.0120 c3        1 WZB     -0.080000
     10 CBA         2.1890    1.4600    0.4650 c3        1 WZB     -0.060700
     11 CAB         3.0590    0.0500   -1.4950 c3        1 WZB     -0.072100
     12 CAQ         2.3890   -0.9910    0.6720 c3        1 WZB     -0.065400
     13 CAP         0.9150   -1.1220    0.3180 c3        1 WZB     -0.070400
     14 CAY         0.1040    0.1440    0.5740 c3        1 WZB     -0.012400
     15 CAZ         0.7700    1.3830   -0.0520 c3        1 WZB     -0.048700
     16 CAN        -0.0400    2.6140    0.3110 c3        1 WZB     -0.073400
     17 CAL        -1.4130    2.5410   -0.3200 c3        1 WZB     -0.035100
     18 CAU        -2.0360    1.1890   -0.2520 ca        1 WZB     -0.058300
     19 CAI        -3.3820    1.0830   -0.6110 ca        1 WZB     -0.175000
     20 CAW        -1.3200    0.0360    0.1220 ca        1 WZB     -0.071300
     21 CAJ        -1.9740   -1.2000    0.1120 ca        1 WZB     -0.115000
     22 CAT        -3.3180   -1.3290   -0.2480 ca        1 WZB     -0.076300
     23 CAK        -3.9560   -2.6740   -0.2750 c3        1 WZB     -0.036100
     24 CAA        -4.2880   -3.1740    1.1110 c3        1 WZB     -0.099100
     25 CAV        -4.0240   -0.1630   -0.5980 ca        1 WZB      0.143100
     26 OAR        -5.3220   -0.2450   -1.0240 os        1 WZB     -0.476800
     27 SBC        -6.6680    0.1080   -0.0410 s6        1 WZB      1.710400
     28 OAF        -7.6980    0.0040   -0.9630 o         1 WZB     -0.640300
     29 OAE        -6.5660   -0.7700    1.0290 o         1 WZB     -0.640300
     30 NAC        -6.4370    1.6060    0.4200 n3        1 WZB     -1.040700
     31 HAD1        5.9630   -2.9250   -1.0620 hn        1 WZB      0.455300
     32 HAD2        5.0650   -3.0420    0.3110 hn        1 WZB      0.455300
     33 HAX         4.5290    0.3720    1.6090 h1        1 WZB      0.062700
     34 HAM1        4.9590    2.6420    1.2010 hc        1 WZB      0.060200
     35 HAM2        5.1330    2.3860   -0.5830 hc        1 WZB      0.060200
     36 HAO1        2.8350    3.5340    0.7410 hc        1 WZB      0.046700
     37 HAO2        2.8970    2.9530   -0.9680 hc        1 WZB      0.046700
     38 HBA         2.1340    1.4340    1.5940 hc        1 WZB      0.047700
     39 HAB1        3.7310   -0.8070   -1.7470 hc        1 WZB      0.039033
     40 HAB2        2.0490   -0.1580   -1.9200 hc        1 WZB      0.039033
     41 HAB3        3.4740    0.9690   -1.9760 hc        1 WZB      0.039033
     42 HAQ1        2.9240   -1.9190    0.3410 hc        1 WZB      0.036700
     43 HAQ2        2.5020   -0.9130    1.7860 hc        1 WZB      0.036700
     44 HAZ         0.7750    1.2780   -1.1710 hc        1 WZB      0.064700
     45 HAP1        0.8110   -1.4150   -0.7600 hc        1 WZB      0.045700
     46 HAP2        0.4940   -1.9580    0.9370 hc        1 WZB      0.045700
     47 HAY         0.0770    0.3040    1.6940 hc        1 WZB      0.057700
     48 HAN1       -0.1310    2.6930    1.4260 hc        1 WZB      0.046200
     49 HAN2        0.4910    3.5340   -0.0480 hc        1 WZB      0.046200
     50 HAL1       -2.0880    3.2890    0.1750 hc        1 WZB      0.050700
     51 HAL2       -1.3380    2.8330   -1.4050 hc        1 WZB      0.050700
     52 HAI        -3.9370    1.9790   -0.9240 ha        1 WZB      0.134000
     53 HAJ        -1.4310   -2.1160    0.3950 ha        1 WZB      0.138000
     54 HAK1       -4.8950   -2.6310   -0.8910 hc        1 WZB      0.053700
     55 HAK2       -3.2590   -3.3960   -0.7790 hc        1 WZB      0.053700
     56 HAA1       -4.6980   -4.2100    1.0520 hc        1 WZB      0.043033
     57 HAA2       -3.3750   -3.1880    1.7540 hc        1 WZB      0.043033
     58 HAA3       -5.0540   -2.5150    1.5910 hc        1 WZB      0.043033
     59 HAC1       -6.7310    2.3950   -0.1020 hn        1 WZB      0.458300
     60 HAC2       -5.9690    1.8640    1.2550 hn        1 WZB      0.458300
@<TRIPOS>BOND
     1    1    2 2   
     2    2    3 2   
     3    2    4 1   
     4    2    5 1   
     5    4   31 1   
     6    4   32 1   
     7    5    6 1   
     8    6    7 1   
     9    6    9 1   
    10    6   33 1   
    11    7    8 1   
    12    7   34 1   
    13    7   35 1   
    14    8   10 1   
    15    8   36 1   
    16    8   37 1   
    17    9   10 1   
    18    9   11 1   
    19    9   12 1   
    20   10   15 1   
    21   10   38 1   
    22   11   39 1   
    23   11   40 1   
    24   11   41 1   
    25   12   13 1   
    26   12   42 1   
    27   12   43 1   
    28   13   14 1   
    29   13   45 1   
    30   13   46 1   
    31   14   15 1   
    32   14   20 1   
    33   14   47 1   
    34   15   16 1   
    35   15   44 1   
    36   16   17 1   
    37   16   48 1   
    38   16   49 1   
    39   17   18 1   
    40   17   50 1   
    41   17   51 1   
    42   18   19 ar  
    43   18   20 ar  
    44   19   25 ar  
    45   19   52 1   
    46   20   21 ar  
    47   21   22 ar  
    48   21   53 1   
    49   22   23 1   
    50   22   25 ar  
    51   23   24 1   
    52   23   54 1   
    53   23   55 1   
    54   24   56 1   
    55   24   57 1   
    56   24   58 1   
    57   25   26 1   
    58   26   27 1   
    59   27   28 2   
    60   27   29 2   
    61   27   30 1   
    62   30   59 1   
    63   30   60 1   
@<TRIPOS>SUBSTRUCTURE
     1 WZB         1 TEMP              0 ****  ****    0 ROOT
