@<TRIPOS>MOLECULE
WZB
   62    65     1     0     0
SMALL
bcc


@<TRIPOS>ATOM
      1 OAH         0.2070   -1.2050   -0.3990 o         1 WZB     -0.558300
      2 SBD         1.0500   -0.2910    0.1530 s6        1 WZB      1.636400
      3 OAG         0.9020    0.4110    1.3070 o         1 WZB     -0.558300
      4 NAD         2.6020   -1.2790    0.4760 n4        1 WZB     -0.801500
      5 OAS         1.6890    0.6420   -0.9950 os        1 WZB     -0.583500
      6 CAX         0.9250    1.1840   -2.0880 c3        1 WZB      0.189100
      7 CAM        -0.0610    2.2560   -1.5820 c3        1 WZB     -0.132400
      8 CAO         0.0460    3.4390   -2.5490 c3        1 WZB     -0.067400
      9 CBB         1.8710    1.9230   -3.0690 c3        1 WZB     -0.046000
     10 CBA         0.8580    2.9000   -3.7190 c3        1 WZB     -0.064700
     11 CAB         2.9700    2.6140   -2.2810 c3        1 WZB     -0.079100
     12 CAQ         2.4600    1.0740   -4.1820 c3        1 WZB     -0.068400
     13 CAP         3.1060    1.9450   -5.2510 c3        1 WZB     -0.073400
     14 CAY         2.1890    3.0410   -5.7880 c3        1 WZB     -0.027400
     15 CAZ         1.5620    3.8630   -4.6490 c3        1 WZB     -0.048700
     16 CAN         0.6050    4.8820   -5.2390 c3        1 WZB     -0.078400
     17 CAL         1.3630    5.8860   -6.0780 c3        1 WZB     -0.044100
     18 CAU         2.4130    5.2740   -6.9410 ca        1 WZB     -0.052300
     19 CAI         2.9860    6.0810   -7.9250 ca        1 WZB     -0.123000
     20 CAW         2.8560    3.9420   -6.7830 ca        1 WZB     -0.017300
     21 CAJ         3.8740    3.4580   -7.6100 ca        1 WZB     -0.125000
     22 CAT         4.4690    4.2460   -8.6040 ca        1 WZB     -0.030300
     23 CAK         5.5660    3.6880   -9.4400 c3        1 WZB     -0.049100
     24 CAA         5.0500    2.7760  -10.5280 c3        1 WZB     -0.103100
     25 CAV         3.9980    5.5620   -8.7470 ca        1 WZB      0.040100
     26 OAR         4.6180    6.4200   -9.6400 os        1 WZB     -0.432800
     27 SBC         3.8830    6.7230  -11.0950 s6        1 WZB      1.560400
     28 OAF         4.0190    5.6760  -11.9580 o         1 WZB     -0.551800
     29 OAE         2.7880    7.5150  -10.9180 o         1 WZB     -0.551800
     30 NAC         5.1870    7.9210  -11.6730 n4        1 WZB     -0.796500
     31 HAD1        3.3760   -0.9610   -0.1100 hn        1 WZB      0.475800
     32 HAD2        2.4620   -2.2730    0.2840 hn        1 WZB      0.475800
     33 HAX         0.4070    0.3230   -2.5920 h1        1 WZB      0.080700
     34 HAM1       -1.1030    1.8480   -1.5750 hc        1 WZB      0.072200
     35 HAM2        0.2030    2.5780   -0.5430 hc        1 WZB      0.072200
     36 HAO1        0.5620    4.3040   -2.0630 hc        1 WZB      0.071200
     37 HAO2       -0.9650    3.7830   -2.8780 hc        1 WZB      0.071200
     38 HBA         0.1500    2.2850   -4.3530 hc        1 WZB      0.059700
     39 HAB1        3.6140    3.2370   -2.9460 hc        1 WZB      0.047033
     40 HAB2        2.5300    3.2690   -1.4910 hc        1 WZB      0.047033
     41 HAB3        3.6180    1.8480   -1.7880 hc        1 WZB      0.047033
     42 HAQ1        1.6540    0.4480   -4.6470 hc        1 WZB      0.049200
     43 HAQ2        3.2350    0.3780   -3.7660 hc        1 WZB      0.049200
     44 HAZ         2.3710    4.4130   -4.0920 hc        1 WZB      0.069700
     45 HAP1        4.0420    2.4100   -4.8440 hc        1 WZB      0.055200
     46 HAP2        3.4050    1.2660   -6.0940 hc        1 WZB      0.055200
     47 HAY         1.3440    2.5310   -6.3450 hc        1 WZB      0.075700
     48 HAN1        0.0650    5.4180   -4.4140 hc        1 WZB      0.060200
     49 HAN2       -0.1690    4.3620   -5.8630 hc        1 WZB      0.060200
     50 HAL1        1.8630    6.6350   -5.4020 hc        1 WZB      0.070700
     51 HAL2        0.6360    6.4560   -6.7180 hc        1 WZB      0.070700
     52 HAI         2.6470    7.1220   -8.0540 ha        1 WZB      0.162000
     53 HAJ         4.2370    2.4230   -7.4990 ha        1 WZB      0.158000
     54 HAK1        6.2710    3.1150   -8.7760 hc        1 WZB      0.060200
     55 HAK2        6.1590    4.5240   -9.8970 hc        1 WZB      0.060200
     56 HAA1        5.9090    2.3090  -11.0690 hc        1 WZB      0.052700
     57 HAA2        4.4350    3.3440  -11.2680 hc        1 WZB      0.052700
     58 HAA3        4.4210    1.9610  -10.0950 hc        1 WZB      0.052700
     59 HAC1        5.9270    8.0320  -10.9750 hn        1 WZB      0.476467
     60 HAC2        4.7930    8.8490  -11.8460 hn        1 WZB      0.476467
     61 HAD3        2.9030   -1.1900    1.4500 hn        1 WZB      0.475800
     62 HAC3        5.6310    7.6060  -12.5380 hn        1 WZB      0.476467
@<TRIPOS>BOND
     1    1    2 2   
     2    2    3 2   
     3    2    4 1   
     4    2    5 1   
     5    4   31 1   
     6    4   32 1   
     7    4   61 1   
     8    5    6 1   
     9    6    7 1   
    10    6    9 1   
    11    6   33 1   
    12    7    8 1   
    13    7   34 1   
    14    7   35 1   
    15    8   10 1   
    16    8   36 1   
    17    8   37 1   
    18    9   10 1   
    19    9   11 1   
    20    9   12 1   
    21   10   15 1   
    22   10   38 1   
    23   11   39 1   
    24   11   40 1   
    25   11   41 1   
    26   12   13 1   
    27   12   42 1   
    28   12   43 1   
    29   13   14 1   
    30   13   45 1   
    31   13   46 1   
    32   14   15 1   
    33   14   20 1   
    34   14   47 1   
    35   15   16 1   
    36   15   44 1   
    37   16   17 1   
    38   16   48 1   
    39   16   49 1   
    40   17   18 1   
    41   17   50 1   
    42   17   51 1   
    43   18   19 ar  
    44   18   20 ar  
    45   19   25 ar  
    46   19   52 1   
    47   20   21 ar  
    48   21   22 ar  
    49   21   53 1   
    50   22   23 1   
    51   22   25 ar  
    52   23   24 1   
    53   23   54 1   
    54   23   55 1   
    55   24   56 1   
    56   24   57 1   
    57   24   58 1   
    58   25   26 1   
    59   26   27 1   
    60   27   28 2   
    61   27   29 2   
    62   27   30 1   
    63   30   59 1   
    64   30   60 1   
    65   30   62 1   
@<TRIPOS>SUBSTRUCTURE
     1 WZB         1 TEMP              0 ****  ****    0 ROOT
