@<TRIPOS>MOLECULE
WZC
   53    56     1     0     0
SMALL
bcc


@<TRIPOS>ATOM
      1 OAD         4.9590   -1.1250    1.6870 o         1 WZC     -0.654800
      2 SAZ         5.0750   -1.1920    0.3010 s6        1 WZC      1.716400
      3 OAE         6.2850   -0.9450   -0.3340 o         1 WZC     -0.654800
      4 NAC         4.3780   -2.5000   -0.2680 n3        1 WZC     -1.035700
      5 OAP         4.1120    0.0660   -0.2610 os        1 WZC     -0.573500
      6 CAV         3.0990    0.6780    0.4990 c3        1 WZC      0.197100
      7 CAK         3.1870    2.2070    0.2870 c3        1 WZC     -0.086400
      8 CAM         1.7560    2.7150    0.1040 c3        1 WZC     -0.072400
      9 CAX         0.8760    1.5340    0.4930 c3        1 WZC     -0.060700
     10 CAW        -0.5540    1.4730    0.0080 c3        1 WZC     -0.048700
     11 CAJ        -1.3410    2.7140    0.3840 c3        1 WZC     -0.073400
     12 CAI        -2.7270    2.6560   -0.2200 c3        1 WZC     -0.034100
     13 CAR        -3.3630    1.3100   -0.1400 ca        1 WZC     -0.063300
     14 CAG        -4.7190    1.2300   -0.4810 ca        1 WZC     -0.143000
     15 CAQ        -5.3830    0.0020   -0.4510 ca        1 WZC      0.114100
     16 OAF        -6.7110   -0.0110   -0.8030 oh        1 WZC     -0.496100
     17 CAS        -4.6730   -1.1610   -0.0760 ca        1 WZC      0.036100
     18 OAO        -5.4120   -2.3340   -0.1100 os        1 WZC     -0.348900
     19 CAA        -4.8540   -3.4370    0.5940 c3        1 WZC      0.121700
     20 CAH        -3.3250   -1.0780    0.2640 ca        1 WZC     -0.156000
     21 CAT        -2.6570    0.1540    0.2320 ca        1 WZC     -0.072300
     22 CAU        -1.2210    0.2440    0.6520 c3        1 WZC     -0.009400
     23 CAL        -0.4310   -1.0320    0.3770 c3        1 WZC     -0.069400
     24 CAN         1.0520   -0.9190    0.6980 c3        1 WZC     -0.065400
     25 CAY         1.6720    0.2920    0.0240 c3        1 WZC     -0.080000
     26 CAB         1.6880    0.1120   -1.4840 c3        1 WZC     -0.072100
     27 HAC1        3.6750   -3.0050    0.2110 hn        1 WZC      0.455300
     28 HAC2        4.5680   -2.8770   -1.1640 hn        1 WZC      0.455300
     29 HAV         3.2290    0.4170    1.5870 h1        1 WZC      0.062700
     30 HAK1        3.6750    2.6830    1.1710 hc        1 WZC      0.060200
     31 HAK2        3.8090    2.4260   -0.6160 hc        1 WZC      0.060200
     32 HAM1        1.5520    3.6010    0.7540 hc        1 WZC      0.047200
     33 HAM2        1.5710    3.0180   -0.9560 hc        1 WZC      0.047200
     34 HAX         0.8460    1.5090    1.6230 hc        1 WZC      0.047700
     35 HAW        -0.5750    1.3650   -1.1110 hc        1 WZC      0.063700
     36 HAJ1       -1.4100    2.7960    1.5010 hc        1 WZC      0.045700
     37 HAJ2       -0.8060    3.6270    0.0130 hc        1 WZC      0.045700
     38 HAU        -1.2200    0.4050    1.7720 hc        1 WZC      0.056700
     39 HAI1       -3.3860    3.4090    0.2900 hc        1 WZC      0.052700
     40 HAI2       -2.6700    2.9490   -1.3050 hc        1 WZC      0.052700
     41 HAG        -5.2760    2.1320   -0.7740 ha        1 WZC      0.152000
     42 HAF        -7.0390   -0.9170   -0.6980 ho        1 WZC      0.435000
     43 HAH        -2.7880   -1.9910    0.5580 ha        1 WZC      0.138000
     44 HAA1       -5.6740   -4.1990    0.5810 h1        1 WZC      0.044033
     45 HAA2       -3.9540   -3.8220    0.0560 h1        1 WZC      0.044033
     46 HAA3       -4.5910   -3.1530    1.6420 h1        1 WZC      0.044033
     47 HAL1       -0.8460   -1.8640    1.0060 hc        1 WZC      0.042700
     48 HAL2       -0.5640   -1.3230   -0.6970 hc        1 WZC      0.042700
     49 HAN1        1.1910   -0.8420    1.8090 hc        1 WZC      0.035700
     50 HAN2        1.5680   -1.8540    0.3560 hc        1 WZC      0.035700
     51 HAB1        2.3430   -0.7530   -1.7500 hc        1 WZC      0.038367
     52 HAB2        0.6660   -0.0830   -1.8870 hc        1 WZC      0.038367
     53 HAB3        2.1030    1.0260   -1.9740 hc        1 WZC      0.038367
@<TRIPOS>BOND
     1    1    2 2   
     2    2    3 2   
     3    2    4 1   
     4    2    5 1   
     5    4   27 1   
     6    4   28 1   
     7    5    6 1   
     8    6    7 1   
     9    6   25 1   
    10    6   29 1   
    11    7    8 1   
    12    7   30 1   
    13    7   31 1   
    14    8    9 1   
    15    8   32 1   
    16    8   33 1   
    17    9   10 1   
    18    9   25 1   
    19    9   34 1   
    20   10   11 1   
    21   10   22 1   
    22   10   35 1   
    23   11   12 1   
    24   11   36 1   
    25   11   37 1   
    26   12   13 1   
    27   12   39 1   
    28   12   40 1   
    29   13   14 ar  
    30   13   21 ar  
    31   14   15 ar  
    32   14   41 1   
    33   15   16 1   
    34   15   17 ar  
    35   16   42 1   
    36   17   18 1   
    37   17   20 ar  
    38   18   19 1   
    39   19   44 1   
    40   19   45 1   
    41   19   46 1   
    42   20   21 ar  
    43   20   43 1   
    44   21   22 1   
    45   22   23 1   
    46   22   38 1   
    47   23   24 1   
    48   23   47 1   
    49   23   48 1   
    50   24   25 1   
    51   24   49 1   
    52   24   50 1   
    53   25   26 1   
    54   26   51 1   
    55   26   52 1   
    56   26   53 1   
@<TRIPOS>SUBSTRUCTURE
     1 WZC         1 TEMP              0 ****  ****    0 ROOT
