@<TRIPOS>MOLECULE
WZC
   54    57     1     0     0
SMALL
bcc


@<TRIPOS>ATOM
      1 OAD         0.4570   -1.2310   -1.1880 o         1 WZC     -0.561300
      2 SAZ         1.2110   -0.4750   -0.3420 s6        1 WZC      1.637400
      3 OAE         1.3120   -0.5680    1.0110 o         1 WZC     -0.561300
      4 NAC         2.9650   -0.8700   -0.8940 n4        1 WZC     -0.809500
      5 OAP         1.2000    1.0570   -0.7700 os        1 WZC     -0.573500
      6 CAV         0.5910    1.6120   -1.9540 c3        1 WZC      0.189100
      7 CAK        -0.2370    2.8360   -1.5180 c3        1 WZC     -0.088400
      8 CAM         0.0440    3.9320   -2.5510 c3        1 WZC     -0.076400
      9 CAX         0.8030    3.2280   -3.6690 c3        1 WZC     -0.052700
     10 CAW         1.6610    4.0360   -4.6160 c3        1 WZC     -0.052700
     11 CAJ         0.8730    5.1380   -5.3000 c3        1 WZC     -0.072400
     12 CAI         1.8020    5.9930   -6.1350 c3        1 WZC     -0.037100
     13 CAR         2.8320    5.2150   -6.8790 ca        1 WZC     -0.056300
     14 CAG         3.5970    5.9190   -7.8170 ca        1 WZC     -0.143000
     15 CAQ         4.5900    5.2660   -8.5520 ca        1 WZC      0.133100
     16 OAF         5.3150    6.0130   -9.4420 oh        1 WZC     -0.485100
     17 CAS         4.8130    3.8850   -8.3410 ca        1 WZC      0.034100
     18 OAO         5.8490    3.3330   -9.0770 os        1 WZC     -0.342900
     19 CAA         5.7170    1.9470   -9.3760 c3        1 WZC      0.119700
     20 CAH         4.0510    3.1880   -7.4070 ca        1 WZC     -0.150000
     21 CAT         3.0620    3.8450   -6.6630 ca        1 WZC     -0.096300
     22 CAU         2.2170    3.0820   -5.6890 c3        1 WZC     -0.004400
     23 CAL         2.9480    1.8970   -5.0670 c3        1 WZC     -0.073400
     24 CAN         2.1510    1.1790   -3.9870 c3        1 WZC     -0.062400
     25 CAY         1.6530    2.1560   -2.9370 c3        1 WZC     -0.090000
     26 CAB         2.8130    2.7470   -2.1550 c3        1 WZC     -0.070100
     27 HAC1        3.5470   -1.1460   -0.1020 hn        1 WZC      0.470467
     28 HAC2        2.9820   -1.6300   -1.5750 hn        1 WZC      0.470467
     29 HAV        -0.0440    0.8150   -2.4280 h1        1 WZC      0.078700
     30 HAK1       -1.3230    2.5700   -1.4920 hc        1 WZC      0.075700
     31 HAK2        0.0680    3.1650   -0.4930 hc        1 WZC      0.075700
     32 HAM1       -0.9070    4.3810   -2.9290 hc        1 WZC      0.070200
     33 HAM2        0.6570    4.7530   -2.1030 hc        1 WZC      0.070200
     34 HAX         0.0370    2.6830   -4.2970 hc        1 WZC      0.058700
     35 HAW         2.5140    4.5100   -4.0570 hc        1 WZC      0.066700
     36 HAJ1        0.0740    4.6900   -5.9470 hc        1 WZC      0.049700
     37 HAJ2        0.3640    5.7760   -4.5310 hc        1 WZC      0.049700
     38 HAU         1.3360    2.6700   -6.2680 hc        1 WZC      0.061700
     39 HAI1        1.1930    6.5940   -6.8640 hc        1 WZC      0.062200
     40 HAI2        2.3330    6.7260   -5.4670 hc        1 WZC      0.062200
     41 HAG         3.4240    6.9920   -7.9890 ha        1 WZC      0.160000
     42 HAF         5.9250    5.4190   -9.9100 ho        1 WZC      0.442000
     43 HAH         4.2350    2.1130   -7.2700 ha        1 WZC      0.132000
     44 HAA1        5.9370    1.3390   -8.4650 h1        1 WZC      0.046033
     45 HAA2        6.4970    1.7720  -10.1610 h1        1 WZC      0.046033
     46 HAA3        4.6980    1.7120   -9.7660 h1        1 WZC      0.046033
     47 HAL1        3.9280    2.2450   -4.6480 hc        1 WZC      0.053700
     48 HAL2        3.1740    1.1440   -5.8700 hc        1 WZC      0.053700
     49 HAN1        1.2780    0.6510   -4.4570 hc        1 WZC      0.023700
     50 HAN2        2.8030    0.4000   -3.5110 hc        1 WZC      0.023700
     51 HAB1        2.4390    3.4830   -1.4020 hc        1 WZC      0.041700
     52 HAB2        3.5390    3.2600   -2.8300 hc        1 WZC      0.041700
     53 HAB3        3.3630    1.9410   -1.6100 hc        1 WZC      0.041700
     54 HAC3        3.4090   -0.0580   -1.3310 hn        1 WZC      0.470467
@<TRIPOS>BOND
     1    1    2 2   
     2    2    3 2   
     3    2    4 1   
     4    2    5 1   
     5    4   27 1   
     6    4   28 1   
     7    4   54 1   
     8    5    6 1   
     9    6    7 1   
    10    6   25 1   
    11    6   29 1   
    12    7    8 1   
    13    7   30 1   
    14    7   31 1   
    15    8    9 1   
    16    8   32 1   
    17    8   33 1   
    18    9   10 1   
    19    9   25 1   
    20    9   34 1   
    21   10   11 1   
    22   10   22 1   
    23   10   35 1   
    24   11   12 1   
    25   11   36 1   
    26   11   37 1   
    27   12   13 1   
    28   12   39 1   
    29   12   40 1   
    30   13   14 ar  
    31   13   21 ar  
    32   14   15 ar  
    33   14   41 1   
    34   15   16 1   
    35   15   17 ar  
    36   16   42 1   
    37   17   18 1   
    38   17   20 ar  
    39   18   19 1   
    40   19   44 1   
    41   19   45 1   
    42   19   46 1   
    43   20   21 ar  
    44   20   43 1   
    45   21   22 1   
    46   22   23 1   
    47   22   38 1   
    48   23   24 1   
    49   23   47 1   
    50   23   48 1   
    51   24   25 1   
    52   24   49 1   
    53   24   50 1   
    54   25   26 1   
    55   26   51 1   
    56   26   52 1   
    57   26   53 1   
@<TRIPOS>SUBSTRUCTURE
     1 WZC         1 TEMP              0 ****  ****    0 ROOT
