@<TRIPOS>MOLECULE
WZC
   54    57     1     0     0
SMALL
bcc


@<TRIPOS>ATOM
      1 OAD         0.4370   -1.2350   -1.2040 o         1 WZC     -0.561300
      2 SAZ         1.1940   -0.4850   -0.3550 s6        1 WZC      1.637400
      3 OAE         1.2920   -0.5820    0.9990 o         1 WZC     -0.561300
      4 NAC         2.9460   -0.8840   -0.9060 nz        1 WZC     -0.809500
      5 OAP         1.1880    1.0490   -0.7780 os        1 WZC     -0.573500
      6 CAV         0.5830    1.6100   -1.9600 c3        1 WZC      0.189100
      7 CAK        -0.2410    2.8360   -1.5210 c3        1 WZC     -0.088400
      8 CAM         0.0460    3.9340   -2.5500 c3        1 WZC     -0.076400
      9 CAX         0.8030    3.2310   -3.6700 c3        1 WZC     -0.052700
     10 CAW         1.6650    4.0380   -4.6130 c3        1 WZC     -0.052700
     11 CAJ         0.8820    5.1460   -5.2950 c3        1 WZC     -0.072400
     12 CAI         1.8150    6.0000   -6.1250 c3        1 WZC     -0.037100
     13 CAR         2.8440    5.2200   -6.8710 ca        1 WZC     -0.056300
     14 CAG         3.6130    5.9250   -7.8050 ca        1 WZC     -0.143000
     15 CAQ         4.6050    5.2700   -8.5400 ca        1 WZC      0.133100
     16 OAF         5.3340    6.0180   -9.4280 oh        1 WZC     -0.485100
     17 CAS         4.8220    3.8890   -8.3340 ca        1 WZC      0.034100
     18 OAO         5.8560    3.3350   -9.0710 os        1 WZC     -0.342900
     19 CAA         5.7180    1.9510   -9.3770 c3        1 WZC      0.119700
     20 CAH         4.0550    3.1900   -7.4040 ca        1 WZC     -0.150000
     21 CAT         3.0680    3.8490   -6.6590 ca        1 WZC     -0.096300
     22 CAU         2.2190    3.0870   -5.6890 c3        1 WZC     -0.004400
     23 CAL         2.9450    1.8960   -5.0700 c3        1 WZC     -0.073400
     24 CAN         2.1430    1.1780   -3.9930 c3        1 WZC     -0.062400
     25 CAY         1.6490    2.1530   -2.9400 c3        1 WZC     -0.090000
     26 CAB         2.8100    2.7370   -2.1550 c3        1 WZC     -0.070100
     27 HAC1        2.9620   -1.6420   -1.5890 hn        1 WZC      0.470467
     28 HAC2        3.3940   -0.0730   -1.3390 hn        1 WZC      0.470467
     29 HAV        -0.0550    0.8170   -2.4380 h1        1 WZC      0.078700
     30 HAK1        0.0650    3.1600   -0.4940 hc        1 WZC      0.075700
     31 HAK2       -1.3270    2.5740   -1.4970 hc        1 WZC      0.075700
     32 HAM1       -0.9030    4.3880   -2.9280 hc        1 WZC      0.070200
     33 HAM2        0.6610    4.7520   -2.0990 hc        1 WZC      0.070200
     34 HAX         0.0360    2.6910   -4.3010 hc        1 WZC      0.058700
     35 HAW         2.5190    4.5070   -4.0520 hc        1 WZC      0.066700
     36 HAJ1        0.0820    4.7030   -5.9440 hc        1 WZC      0.049700
     37 HAJ2        0.3750    5.7830   -4.5230 hc        1 WZC      0.049700
     38 HAU         1.3370    2.6790   -6.2700 hc        1 WZC      0.061700
     39 HAI1        1.2100    6.6060   -6.8530 hc        1 WZC      0.062200
     40 HAI2        2.3480    6.7290   -5.4540 hc        1 WZC      0.062200
     41 HAG         3.4440    6.9990   -7.9740 ha        1 WZC      0.160000
     42 HAF         5.9420    5.4230   -9.8960 ho        1 WZC      0.442000
     43 HAH         4.2350    2.1150   -7.2700 ha        1 WZC      0.132000
     44 HAA1        6.4980    1.7760  -10.1610 h1        1 WZC      0.046033
     45 HAA2        4.6990    1.7240   -9.7710 h1        1 WZC      0.046033
     46 HAA3        5.9320    1.3360   -8.4690 h1        1 WZC      0.046033
     47 HAL1        3.1680    1.1450   -5.8750 hc        1 WZC      0.053700
     48 HAL2        3.9250    2.2390   -4.6490 hc        1 WZC      0.053700
     49 HAN1        1.2700    0.6550   -4.4650 hc        1 WZC      0.023700
     50 HAN2        2.7920    0.3940   -3.5190 hc        1 WZC      0.023700
     51 HAB1        3.3560    1.9270   -1.6120 hc        1 WZC      0.041700
     52 HAB2        3.5380    3.2500   -2.8280 hc        1 WZC      0.041700
     53 HAB3        2.4380    3.4720   -1.4000 hc        1 WZC      0.041700
     54 HAC3        3.5260   -1.1650   -0.1140 hn        1 WZC      0.470467
@<TRIPOS>BOND
     1    1    2 2   
     2    2    3 2   
     3    2    4 1   
     4    2    5 1   
     5    4   27 1   
     6    4   28 1   
     7    4   54 1   
     8    5    6 1   
     9    6    7 1   
    10    6   25 1   
    11    6   29 1   
    12    7    8 1   
    13    7   30 1   
    14    7   31 1   
    15    8    9 1   
    16    8   32 1   
    17    8   33 1   
    18    9   10 1   
    19    9   25 1   
    20    9   34 1   
    21   10   11 1   
    22   10   22 1   
    23   10   35 1   
    24   11   12 1   
    25   11   36 1   
    26   11   37 1   
    27   12   13 1   
    28   12   39 1   
    29   12   40 1   
    30   13   14 ar  
    31   13   21 ar  
    32   14   15 ar  
    33   14   41 1   
    34   15   16 1   
    35   15   17 ar  
    36   16   42 1   
    37   17   18 1   
    38   17   20 ar  
    39   18   19 1   
    40   19   44 1   
    41   19   45 1   
    42   19   46 1   
    43   20   21 ar  
    44   20   43 1   
    45   21   22 1   
    46   22   23 1   
    47   22   38 1   
    48   23   24 1   
    49   23   47 1   
    50   23   48 1   
    51   24   25 1   
    52   24   49 1   
    53   24   50 1   
    54   25   26 1   
    55   26   51 1   
    56   26   52 1   
    57   26   53 1   
@<TRIPOS>SUBSTRUCTURE
     1 WZC         1 TEMP              0 ****  ****    0 ROOT
