@<TRIPOS>MOLECULE
WZC
   54    57     1     0     0
SMALL
bcc


@<TRIPOS>ATOM
      1 OAD         0.4270   -1.2550   -1.2360 o         1 WZC     -0.561300
      2 SAZ         1.1550   -0.4970   -0.3680 s6        1 WZC      1.637400
      3 OAE         1.2230   -0.5960    0.9880 o         1 WZC     -0.561300
      4 NAC         2.9250   -0.8760   -0.8780 n4        1 WZC     -0.809500
      5 OAP         1.1420    1.0370   -0.7890 os        1 WZC     -0.573500
      6 CAV         0.5570    1.5930   -1.9840 c3        1 WZC      0.189100
      7 CAK        -0.2900    2.8080   -1.5620 c3        1 WZC     -0.088400
      8 CAM         0.0080    3.9110   -2.5830 c3        1 WZC     -0.076400
      9 CAX         0.7990    3.2190   -3.6860 c3        1 WZC     -0.052700
     10 CAW         1.6730    4.0380   -4.6080 c3        1 WZC     -0.052700
     11 CAJ         0.8930    5.1370   -5.3060 c3        1 WZC     -0.072400
     12 CAI         1.8360    6.0030   -6.1140 c3        1 WZC     -0.037100
     13 CAR         2.8900    5.2370   -6.8360 ca        1 WZC     -0.056300
     14 CAG         3.6730    5.9520   -7.7510 ca        1 WZC     -0.143000
     15 CAQ         4.6890    5.3100   -8.4640 ca        1 WZC      0.133100
     16 OAF         5.4300    6.0670   -9.3320 oh        1 WZC     -0.485100
     17 CAS         4.9170    3.9300   -8.2550 ca        1 WZC      0.034100
     18 OAO         5.9750    3.3900   -8.9670 os        1 WZC     -0.342900
     19 CAA         5.8590    2.0050   -9.2800 c3        1 WZC      0.119700
     20 CAH         4.1370    3.2220   -7.3430 ca        1 WZC     -0.149000
     21 CAT         3.1250    3.8680   -6.6210 ca        1 WZC     -0.096300
     22 CAU         2.2630    3.0940   -5.6720 c3        1 WZC     -0.004400
     23 CAL         2.9880    1.9110   -5.0380 c3        1 WZC     -0.073400
     24 CAN         2.1700    1.1820   -3.9810 c3        1 WZC     -0.062400
     25 CAY         1.6400    2.1490   -2.9380 c3        1 WZC     -0.090000
     26 CAB         2.7750    2.7460   -2.1250 c3        1 WZC     -0.070100
     27 HAC1        3.4890   -1.1520   -0.0740 hn        1 WZC      0.470467
     28 HAC2        3.3730   -0.0590   -1.3000 hn        1 WZC      0.470467
     29 HAV        -0.0600    0.7930   -2.4780 h1        1 WZC      0.078700
     30 HAK1       -1.3740    2.5340   -1.5640 hc        1 WZC      0.075700
     31 HAK2       -0.0120    3.1350   -0.5290 hc        1 WZC      0.075700
     32 HAM1        0.6030    4.7350   -2.1170 hc        1 WZC      0.070200
     33 HAM2       -0.9380    4.3550   -2.9820 hc        1 WZC      0.070200
     34 HAX         0.0530    2.6710   -4.3350 hc        1 WZC      0.058700
     35 HAW         2.5090    4.5150   -4.0260 hc        1 WZC      0.066700
     36 HAJ1        0.3610    5.7670   -4.5460 hc        1 WZC      0.049700
     37 HAJ2        0.1140    4.6860   -5.9750 hc        1 WZC      0.049700
     38 HAU         1.4000    2.6780   -6.2740 hc        1 WZC      0.061700
     39 HAI1        1.2400    6.6030   -6.8540 hc        1 WZC      0.062200
     40 HAI2        2.3440    6.7380   -5.4290 hc        1 WZC      0.062200
     41 HAG         3.4960    7.0240   -7.9220 ha        1 WZC      0.160000
     42 HAF         6.0560    5.4810   -9.7880 ho        1 WZC      0.442000
     43 HAH         4.3270    2.1480   -7.2070 ha        1 WZC      0.132000
     44 HAA1        6.6600    1.8400  -10.0450 h1        1 WZC      0.046033
     45 HAA2        4.8520    1.7680   -9.6980 h1        1 WZC      0.046033
     46 HAA3        6.0590    1.3910   -8.3680 h1        1 WZC      0.046033
     47 HAL1        3.9540    2.2640   -4.5930 hc        1 WZC      0.053700
     48 HAL2        3.2380    1.1640   -5.8380 hc        1 WZC      0.053700
     49 HAN1        1.3130    0.6490   -4.4740 hc        1 WZC      0.023700
     50 HAN2        2.8160    0.4050   -3.4930 hc        1 WZC      0.023700
     51 HAB1        2.3770    3.4750   -1.3790 hc        1 WZC      0.041700
     52 HAB2        3.5130    3.2680   -2.7810 hc        1 WZC      0.041700
     53 HAB3        3.3180    1.9410   -1.5710 hc        1 WZC      0.041700
     54 HAC3        2.9650   -1.6330   -1.5620 hn        1 WZC      0.470467
@<TRIPOS>BOND
     1    1    2 2   
     2    2    3 2   
     3    2    4 1   
     4    2    5 1   
     5    4   27 1   
     6    4   28 1   
     7    4   54 1   
     8    5    6 1   
     9    6    7 1   
    10    6   25 1   
    11    6   29 1   
    12    7    8 1   
    13    7   30 1   
    14    7   31 1   
    15    8    9 1   
    16    8   32 1   
    17    8   33 1   
    18    9   10 1   
    19    9   25 1   
    20    9   34 1   
    21   10   11 1   
    22   10   22 1   
    23   10   35 1   
    24   11   12 1   
    25   11   36 1   
    26   11   37 1   
    27   12   13 1   
    28   12   39 1   
    29   12   40 1   
    30   13   14 ar  
    31   13   21 ar  
    32   14   15 ar  
    33   14   41 1   
    34   15   16 1   
    35   15   17 ar  
    36   16   42 1   
    37   17   18 1   
    38   17   20 ar  
    39   18   19 1   
    40   19   44 1   
    41   19   45 1   
    42   19   46 1   
    43   20   21 ar  
    44   20   43 1   
    45   21   22 1   
    46   22   23 1   
    47   22   38 1   
    48   23   24 1   
    49   23   47 1   
    50   23   48 1   
    51   24   25 1   
    52   24   49 1   
    53   24   50 1   
    54   25   26 1   
    55   26   51 1   
    56   26   52 1   
    57   26   53 1   
@<TRIPOS>SUBSTRUCTURE
     1 WZC         1 TEMP              0 ****  ****    0 ROOT
