@<TRIPOS>MOLECULE
WZV
   53    55     1     0     0
SMALL
bcc


@<TRIPOS>ATOM
      1 F30        -0.4400    3.8680    2.4180 f         1 WZV     -0.209967
      2 C28        -0.5250    2.8840    1.4740 c3        1 WZV      0.647900
      3 F31        -0.0260    1.7530    2.0560 f         1 WZV     -0.209967
      4 F29        -1.8610    2.6550    1.2850 f         1 WZV     -0.209967
      5 C27         0.1810    3.2540    0.1230 c3        1 WZV      0.061400
      6 O26         1.5530    3.4600    0.4790 os        1 WZV     -0.268900
      7 C18         2.4060    3.8080   -0.5210 ca        1 WZV      0.111800
      8 C23         2.0340    4.0090   -1.8870 ca        1 WZV      0.341200
      9 N22         2.9100    4.3540   -2.8250 nb        1 WZV     -0.636000
     10 C19         3.7540    3.9790   -0.1480 ca        1 WZV     -0.133000
     11 C20         4.6720    4.3370   -1.1300 ca        1 WZV     -0.091300
     12 C21         4.2150    4.5170   -2.4580 ca        1 WZV      0.239800
     13 C24         5.2190    4.8850   -3.4640 c         1 WZV      0.491600
     14 O25         6.4180    5.0670   -3.3010 o         1 WZV     -0.447100
     15 N13         4.7480    5.0450   -4.9080 n4        1 WZV     -0.539200
     16 C7          4.5320    6.4540   -5.2510 ca        1 WZV     -0.043400
     17 C12         5.6390    7.3050   -5.4230 ca        1 WZV     -0.080000
     18 C8          3.2210    6.9370   -5.4040 ca        1 WZV     -0.078000
     19 C9          3.0360    8.2770   -5.7340 ca        1 WZV     -0.098000
     20 C10         4.1280    9.1290   -5.9050 ca        1 WZV     -0.075000
     21 C11         5.4350    8.6510   -5.7520 ca        1 WZV     -0.066300
     22 C1          6.6460    9.5690   -5.8590 c3        1 WZV      0.206500
     23 C2          6.2290   10.9860   -6.3120 c3        1 WZV     -0.182400
     24 C3          7.4030   11.8480   -6.7130 c         1 WZV      0.709500
     25 O16         7.4420   13.0660   -6.5610 o         1 WZV     -0.492500
     26 C14         7.2480    9.6880   -4.4400 c3        1 WZV     -0.109100
     27 N6          7.6210    8.9810   -6.7920 n2        1 WZV     -0.614900
     28 C5          8.4460    9.7850   -7.4080 c2        1 WZV      0.572800
     29 N15         9.4500    9.1220   -8.3220 n4        1 WZV     -0.810600
     30 N4          8.5010   11.1900   -7.3520 n         1 WZV     -0.439300
     31 C17         9.6510   11.9290   -7.8030 c3        1 WZV      0.036300
     32 H271       -0.2690    4.1970   -0.2800 h1        1 WZV      0.093700
     33 H272        0.0830    2.3990   -0.5920 h1        1 WZV      0.093700
     34 H23         0.9870    3.8800   -2.2220 h4        1 WZV      0.057100
     35 H19         4.0610    3.8260    0.9010 ha        1 WZV      0.203000
     36 H20         5.7380    4.4770   -0.8820 ha        1 WZV      0.186000
     37 H13         5.4740    4.6650   -5.5290 hn        1 WZV      0.471800
     38 H12         6.6640    6.9200   -5.2790 ha        1 WZV      0.167000
     39 H8          2.3430    6.2820   -5.2620 ha        1 WZV      0.176000
     40 H9          2.0110    8.6690   -5.8560 ha        1 WZV      0.183000
     41 H10         3.9220   10.1850   -6.1480 ha        1 WZV      0.167000
     42 H21C        5.6890   11.5070   -5.4750 hc        1 WZV      0.118200
     43 H22C        5.5430   10.9400   -7.2020 hc        1 WZV      0.118200
     44 H141        7.6210    8.7000   -4.0780 hc        1 WZV      0.071033
     45 H142        8.0890   10.4220   -4.4310 hc        1 WZV      0.071033
     46 H143        6.4540   10.0480   -3.7410 hc        1 WZV      0.071033
     47 H151       10.4000    9.3670   -8.0150 hn        1 WZV      0.484133
     48 H152        9.3030    9.4560   -9.2830 hn        1 WZV      0.484133
     49 H171        9.5080   13.0200   -7.5500 h1        1 WZV      0.081367
     50 H172        9.7620   11.8460   -8.9180 h1        1 WZV      0.081367
     51 H173       10.5850   11.5730   -7.2910 h1        1 WZV      0.081367
     52 H132        3.8750    4.5210   -5.0590 hn        1 WZV      0.471800
     53 H153        9.3350    8.0990   -8.2940 hn        1 WZV      0.484133
@<TRIPOS>BOND
     1    1    2 1   
     2    2    3 1   
     3    2    4 1   
     4    2    5 1   
     5    5    6 1   
     6    5   32 1   
     7    5   33 1   
     8    6    7 1   
     9    7    8 ar  
    10    7   10 ar  
    11    8    9 ar  
    12    8   34 1   
    13    9   12 ar  
    14   10   11 ar  
    15   10   35 1   
    16   11   12 ar  
    17   11   36 1   
    18   12   13 1   
    19   13   14 2   
    20   13   15 1   
    21   15   16 1   
    22   15   37 1   
    23   15   52 1   
    24   16   17 ar  
    25   16   18 ar  
    26   17   21 ar  
    27   17   38 1   
    28   18   19 ar  
    29   18   39 1   
    30   19   20 ar  
    31   19   40 1   
    32   20   21 ar  
    33   20   41 1   
    34   21   22 1   
    35   22   23 1   
    36   22   26 1   
    37   22   27 1   
    38   23   24 1   
    39   23   42 1   
    40   23   43 1   
    41   24   25 2   
    42   24   30 1   
    43   26   44 1   
    44   26   45 1   
    45   26   46 1   
    46   27   28 2   
    47   28   29 1   
    48   28   30 1   
    49   29   47 1   
    50   29   48 1   
    51   29   53 1   
    52   30   31 1   
    53   31   49 1   
    54   31   50 1   
    55   31   51 1   
@<TRIPOS>SUBSTRUCTURE
     1 WZV         1 TEMP              0 ****  ****    0 ROOT
