@<TRIPOS>MOLECULE
WZV
   51    53     1     0     0
SMALL
bcc


@<TRIPOS>ATOM
      1 F30        -8.5920   -1.2610   -0.6400 f         1 WZV     -0.226633
      2 C28        -7.8770   -1.6420    0.4620 c3        1 WZV      0.635900
      3 F31        -8.4660   -1.0070    1.5210 f         1 WZV     -0.226633
      4 F29        -8.1660   -2.9720    0.6350 f         1 WZV     -0.226633
      5 C27        -6.3380   -1.3980    0.3430 c3        1 WZV      0.084400
      6 O26        -6.1970    0.0090    0.1710 os        1 WZV     -0.301900
      7 C18        -4.9020    0.4590    0.0130 ca        1 WZV      0.024800
      8 C23        -3.7490   -0.3570    0.0490 ca        1 WZV      0.328200
      9 N22        -2.5100    0.1330   -0.1030 nb        1 WZV     -0.627000
     10 C19        -4.7600    1.8430   -0.1940 ca        1 WZV     -0.121000
     11 C20        -3.4740    2.3490   -0.3550 ca        1 WZV     -0.154300
     12 C21        -2.3720    1.4640   -0.3020 ca        1 WZV      0.322800
     13 C24        -1.0050    2.0820   -0.5060 c         1 WZV      0.581600
     14 O25        -0.9350    3.2160   -1.0180 o         1 WZV     -0.595100
     15 N13         0.0920    1.3620   -0.0770 n         1 WZV     -0.447100
     16 C7          1.4450    1.7340   -0.1980 ca        1 WZV      0.058600
     17 C12         2.4270    0.7720    0.1430 ca        1 WZV     -0.150000
     18 C8          1.8640    3.0130   -0.6180 ca        1 WZV     -0.151000
     19 C9          3.2230    3.3010   -0.6860 ca        1 WZV     -0.109000
     20 C10         4.1840    2.3500   -0.3530 ca        1 WZV     -0.158000
     21 C11         3.7880    1.0730    0.0580 ca        1 WZV     -0.039300
     22 C1          4.8040    0.0130    0.4690 c3        1 WZV      0.209500
     23 C2          6.2200    0.4260    0.0070 c3        1 WZV     -0.174400
     24 C3          7.2100   -0.7130    0.0830 c         1 WZV      0.705500
     25 O16         8.4180   -0.5150    0.2970 o         1 WZV     -0.616500
     26 C14         4.8090   -0.0120    2.0140 c3        1 WZV     -0.097100
     27 N6          4.4100   -1.2790   -0.0830 n2        1 WZV     -0.696900
     28 C5          5.3190   -2.2030   -0.3110 c2        1 WZV      0.649800
     29 N15         4.8960   -3.5100   -0.6990 nh        1 WZV     -0.878800
     30 N4          6.7350   -2.0110   -0.1490 n         1 WZV     -0.438300
     31 C17         7.6260   -3.1370   -0.0940 c3        1 WZV      0.075300
     32 H271       -5.8430   -1.7350    1.2880 h1        1 WZV      0.082700
     33 H272       -5.9500   -1.9520   -0.5490 h1        1 WZV      0.082700
     34 H23        -3.8110   -1.4480    0.2050 h4        1 WZV      0.030100
     35 H19        -5.6470    2.4930   -0.2270 ha        1 WZV      0.168000
     36 H20        -3.3000    3.4230   -0.5340 ha        1 WZV      0.180000
     37 H13        -0.0600    0.4380    0.2660 hn        1 WZV      0.336500
     38 H12         2.1180   -0.2310    0.4800 ha        1 WZV      0.148000
     39 H8          1.1320    3.7890   -0.8940 ha        1 WZV      0.172000
     40 H9          3.5410    4.3040   -1.0110 ha        1 WZV      0.135000
     41 H10         5.2450    2.6310   -0.4130 ha        1 WZV      0.132000
     42 H21C        6.1960    0.7730   -1.0610 hc        1 WZV      0.089700
     43 H22C        6.6060    1.2640    0.6440 hc        1 WZV      0.089700
     44 H141        3.8100   -0.3270    2.4000 hc        1 WZV      0.047033
     45 H142        5.5850   -0.7190    2.3900 hc        1 WZV      0.047033
     46 H143        5.0330    1.0120    2.3970 hc        1 WZV      0.047033
     47 H151        3.9190   -3.5590   -0.9030 hn        1 WZV      0.403800
     48 H152        5.4570   -3.9100   -1.4210 hn        1 WZV      0.403800
     49 H171        7.2440   -3.9100    0.6250 h1        1 WZV      0.054033
     50 H172        7.7260   -3.6010   -1.1130 h1        1 WZV      0.054033
     51 H173        8.6430   -2.7960    0.2430 h1        1 WZV      0.054033
@<TRIPOS>BOND
     1    1    2 1   
     2    2    3 1   
     3    2    4 1   
     4    2    5 1   
     5    5    6 1   
     6    5   32 1   
     7    5   33 1   
     8    6    7 1   
     9    7    8 ar  
    10    7   10 ar  
    11    8    9 ar  
    12    8   34 1   
    13    9   12 ar  
    14   10   11 ar  
    15   10   35 1   
    16   11   12 ar  
    17   11   36 1   
    18   12   13 1   
    19   13   14 2   
    20   13   15 1   
    21   15   16 1   
    22   15   37 1   
    23   16   17 ar  
    24   16   18 ar  
    25   17   21 ar  
    26   17   38 1   
    27   18   19 ar  
    28   18   39 1   
    29   19   20 ar  
    30   19   40 1   
    31   20   21 ar  
    32   20   41 1   
    33   21   22 1   
    34   22   23 1   
    35   22   26 1   
    36   22   27 1   
    37   23   24 1   
    38   23   42 1   
    39   23   43 1   
    40   24   25 2   
    41   24   30 1   
    42   26   44 1   
    43   26   45 1   
    44   26   46 1   
    45   27   28 2   
    46   28   29 1   
    47   28   30 1   
    48   29   47 1   
    49   29   48 1   
    50   30   31 1   
    51   31   49 1   
    52   31   50 1   
    53   31   51 1   
@<TRIPOS>SUBSTRUCTURE
     1 WZV         1 TEMP              0 ****  ****    0 ROOT
