@<TRIPOS>MOLECULE
WZV
   52    54     1     0     0
SMALL
bcc


@<TRIPOS>ATOM
      1 F30         0.6440   -0.3850    0.1540 f         1 WZV     -0.222633
      2 C28         1.8210    0.1120    0.6410 c3        1 WZV      0.638900
      3 F31         1.5850    0.4160    1.9520 f         1 WZV     -0.222633
      4 F29         2.6840   -0.9550    0.6640 f         1 WZV     -0.222633
      5 C27         2.4040    1.3000   -0.1940 c3        1 WZV      0.079400
      6 O26         1.4110    2.3200   -0.1290 os        1 WZV     -0.293900
      7 C18         1.7110    3.4870   -0.7950 ca        1 WZV      0.040800
      8 C23         2.8960    3.7220   -1.5320 ca        1 WZV      0.325200
      9 N22         3.1380    4.8790   -2.1630 nb        1 WZV     -0.636000
     10 C19         0.7370    4.5000   -0.7160 ca        1 WZV     -0.118000
     11 C20         0.9890    5.7000   -1.3740 ca        1 WZV     -0.145300
     12 C21         2.2010    5.8550   -2.0860 ca        1 WZV      0.310800
     13 C24         2.4020    7.1760   -2.7840 c         1 WZV      0.587600
     14 O25         1.4290    7.9300   -2.9640 o         1 WZV     -0.579100
     15 N13         3.6910    7.5070   -3.1850 n         1 WZV     -0.461100
     16 C7          4.0740    8.6870   -3.8380 ca        1 WZV      0.084600
     17 C12         5.3270    8.7160   -4.4980 ca        1 WZV     -0.165000
     18 C8          3.2810    9.8570   -3.8440 ca        1 WZV     -0.129000
     19 C9          3.7440   11.0020   -4.4810 ca        1 WZV     -0.094000
     20 C10         4.9780   11.0240   -5.1300 ca        1 WZV     -0.154000
     21 C11         5.7690    9.8730   -5.1460 ca        1 WZV     -0.077300
     22 C1          7.1330    9.8490   -5.8180 c3        1 WZV      0.212500
     23 C2          7.3910   11.1550   -6.6030 c3        1 WZV     -0.179400
     24 C3          8.5410   11.0600   -7.5760 c         1 WZV      0.712500
     25 O16         9.2860   11.9990   -7.8600 o         1 WZV     -0.525500
     26 C14         8.1990    9.7410   -4.7070 c3        1 WZV     -0.102100
     27 N6          7.1960    8.6780   -6.7100 n2        1 WZV     -0.572900
     28 C5          7.9430    8.7330   -7.7710 c2        1 WZV      0.539800
     29 N15         7.9340    7.4940   -8.6370 n4        1 WZV     -0.809600
     30 N4          8.7250    9.8100   -8.2450 n         1 WZV     -0.445300
     31 C17         9.8000    9.6110   -9.1770 c3        1 WZV      0.044300
     32 H271        2.5590    0.9610   -1.2490 h1        1 WZV      0.082200
     33 H272        3.3600    1.6420    0.2780 h1        1 WZV      0.082200
     34 H23         3.6850    2.9560   -1.6230 h4        1 WZV      0.031100
     35 H19        -0.1910    4.3340   -0.1490 ha        1 WZV      0.177000
     36 H20         0.2570    6.5250   -1.3550 ha        1 WZV      0.182000
     37 H13         4.4070    6.8230   -3.0720 hn        1 WZV      0.337500
     38 H12         5.9640    7.8180   -4.4950 ha        1 WZV      0.133000
     39 H8          2.2960    9.8730   -3.3460 ha        1 WZV      0.186000
     40 H9          3.1220   11.9120   -4.4690 ha        1 WZV      0.152000
     41 H10         5.3020   11.9640   -5.5990 ha        1 WZV      0.134000
     42 H21C        7.6110   11.9880   -5.8810 hc        1 WZV      0.118700
     43 H22C        6.4830   11.4410   -7.2040 hc        1 WZV      0.118700
     44 H141        9.2270    9.7960   -5.1360 hc        1 WZV      0.065033
     45 H142        8.0560   10.5930   -3.9970 hc        1 WZV      0.065033
     46 H143        8.0840    8.7880   -4.1370 hc        1 WZV      0.065033
     47 H151        7.5620    7.7350   -9.5620 hn        1 WZV      0.477467
     48 H152        7.3390    6.7720   -8.2050 hn        1 WZV      0.477467
     49 H171       10.5170    8.8280   -8.8090 h1        1 WZV      0.071033
     50 H172       10.3650   10.5790   -9.2970 h1        1 WZV      0.071033
     51 H173        9.3970    9.3170  -10.1840 h1        1 WZV      0.071033
     52 H153        8.8920    7.1380   -8.7310 hn        1 WZV      0.477467
@<TRIPOS>BOND
     1    1    2 1   
     2    2    3 1   
     3    2    4 1   
     4    2    5 1   
     5    5    6 1   
     6    5   32 1   
     7    5   33 1   
     8    6    7 1   
     9    7    8 ar  
    10    7   10 ar  
    11    8    9 ar  
    12    8   34 1   
    13    9   12 ar  
    14   10   11 ar  
    15   10   35 1   
    16   11   12 ar  
    17   11   36 1   
    18   12   13 1   
    19   13   14 2   
    20   13   15 1   
    21   15   16 1   
    22   15   37 1   
    23   16   17 ar  
    24   16   18 ar  
    25   17   21 ar  
    26   17   38 1   
    27   18   19 ar  
    28   18   39 1   
    29   19   20 ar  
    30   19   40 1   
    31   20   21 ar  
    32   20   41 1   
    33   21   22 1   
    34   22   23 1   
    35   22   26 1   
    36   22   27 1   
    37   23   24 1   
    38   23   42 1   
    39   23   43 1   
    40   24   25 2   
    41   24   30 1   
    42   26   44 1   
    43   26   45 1   
    44   26   46 1   
    45   27   28 2   
    46   28   29 1   
    47   28   30 1   
    48   29   47 1   
    49   29   48 1   
    50   29   52 1   
    51   30   31 1   
    52   31   49 1   
    53   31   50 1   
    54   31   51 1   
@<TRIPOS>SUBSTRUCTURE
     1 WZV         1 TEMP              0 ****  ****    0 ROOT
