@<TRIPOS>MOLECULE
WZV
   52    54     1     0     0
SMALL
bcc


@<TRIPOS>ATOM
      1 F30         0.6620   -0.4000    0.1470 f         1 WZV     -0.222633
      2 C28         1.8320    0.1070    0.6420 c3        1 WZV      0.638900
      3 F31         1.5820    0.4150    1.9500 f         1 WZV     -0.222633
      4 F29         2.7020   -0.9530    0.6770 f         1 WZV     -0.222633
      5 C27         2.4130    1.2960   -0.1930 c3        1 WZV      0.079400
      6 O26         1.4120    2.3090   -0.1410 os        1 WZV     -0.293900
      7 C18         1.7100    3.4770   -0.8070 ca        1 WZV      0.040800
      8 C23         2.8990    3.7170   -1.5360 ca        1 WZV      0.325200
      9 N22         3.1390    4.8740   -2.1670 nb        1 WZV     -0.636000
     10 C19         0.7300    4.4840   -0.7380 ca        1 WZV     -0.118000
     11 C20         0.9800    5.6840   -1.3960 ca        1 WZV     -0.145300
     12 C21         2.1970    5.8440   -2.0990 ca        1 WZV      0.310800
     13 C24         2.3950    7.1650   -2.7990 c         1 WZV      0.587600
     14 O25         1.4190    7.9140   -2.9860 o         1 WZV     -0.579100
     15 N13         3.6840    7.5020   -3.1920 ns        1 WZV     -0.461100
     16 C7          4.0660    8.6820   -3.8460 ca        1 WZV      0.084600
     17 C12         5.3210    8.7170   -4.4990 ca        1 WZV     -0.165000
     18 C8          3.2680    9.8490   -3.8570 ca        1 WZV     -0.129000
     19 C9          3.7280   10.9950   -4.4940 ca        1 WZV     -0.095000
     20 C10         4.9650   11.0220   -5.1370 ca        1 WZV     -0.154000
     21 C11         5.7610    9.8750   -5.1460 ca        1 WZV     -0.077300
     22 C1          7.1290    9.8560   -5.8120 c3        1 WZV      0.212500
     23 C2          7.3850   11.1620   -6.5980 c3        1 WZV     -0.179400
     24 C3          8.5400   11.0710   -7.5650 c         1 WZV      0.712500
     25 O16         9.2810   12.0130   -7.8460 o         1 WZV     -0.525500
     26 C14         8.1900    9.7550   -4.6950 c3        1 WZV     -0.102100
     27 N6          7.2020    8.6840   -6.7020 n2        1 WZV     -0.572900
     28 C5          7.9540    8.7410   -7.7600 c2        1 WZV      0.539800
     29 N15         7.9540    7.5000   -8.6240 nz        1 WZV     -0.809600
     30 N4          8.7330    9.8210   -8.2320 n         1 WZV     -0.445300
     31 C17         9.8120    9.6250   -9.1580 c3        1 WZV      0.044300
     32 H271        2.5800    0.9540   -1.2450 h1        1 WZV      0.082200
     33 H272        3.3620    1.6470    0.2860 h1        1 WZV      0.082200
     34 H23         3.6940    2.9550   -1.6190 h4        1 WZV      0.031100
     35 H19        -0.2010    4.3140   -0.1770 ha        1 WZV      0.177000
     36 H20         0.2430    6.5050   -1.3850 ha        1 WZV      0.182000
     37 H13         4.4040    6.8220   -3.0740 hn        1 WZV      0.337500
     38 H12         5.9630    7.8220   -4.4910 ha        1 WZV      0.133000
     39 H8          2.2800    9.8610   -3.3650 ha        1 WZV      0.186000
     40 H9          3.1010   11.9020   -4.4870 ha        1 WZV      0.152000
     41 H10         5.2870   11.9620   -5.6050 ha        1 WZV      0.134000
     42 H21C        6.4790   11.4430   -7.2040 hc        1 WZV      0.118700
     43 H22C        7.5970   11.9960   -5.8770 hc        1 WZV      0.118700
     44 H141        8.0770    8.8020   -4.1250 hc        1 WZV      0.065033
     45 H142        8.0400   10.6070   -3.9880 hc        1 WZV      0.065033
     46 H143        9.2200    9.8130   -5.1210 hc        1 WZV      0.065033
     47 H151        7.5860    7.7390   -9.5510 hn        1 WZV      0.477467
     48 H152        7.3600    6.7770   -8.1940 hn        1 WZV      0.477467
     49 H171        9.4150    9.3280  -10.1660 h1        1 WZV      0.071033
     50 H172       10.5320    8.8460   -8.7860 h1        1 WZV      0.071033
     51 H173       10.3740   10.5960   -9.2770 h1        1 WZV      0.071033
     52 H153        8.9140    7.1490   -8.7130 hn        1 WZV      0.477467
@<TRIPOS>BOND
     1    1    2 1   
     2    2    3 1   
     3    2    4 1   
     4    2    5 1   
     5    5    6 1   
     6    5   32 1   
     7    5   33 1   
     8    6    7 1   
     9    7    8 ar  
    10    7   10 ar  
    11    8    9 ar  
    12    8   34 1   
    13    9   12 ar  
    14   10   11 ar  
    15   10   35 1   
    16   11   12 ar  
    17   11   36 1   
    18   12   13 1   
    19   13   14 2   
    20   13   15 1   
    21   15   16 1   
    22   15   37 1   
    23   16   17 ar  
    24   16   18 ar  
    25   17   21 ar  
    26   17   38 1   
    27   18   19 ar  
    28   18   39 1   
    29   19   20 ar  
    30   19   40 1   
    31   20   21 ar  
    32   20   41 1   
    33   21   22 1   
    34   22   23 1   
    35   22   26 1   
    36   22   27 1   
    37   23   24 1   
    38   23   42 1   
    39   23   43 1   
    40   24   25 2   
    41   24   30 1   
    42   26   44 1   
    43   26   45 1   
    44   26   46 1   
    45   27   28 2   
    46   28   29 1   
    47   28   30 1   
    48   29   47 1   
    49   29   48 1   
    50   29   52 1   
    51   30   31 1   
    52   31   49 1   
    53   31   50 1   
    54   31   51 1   
@<TRIPOS>SUBSTRUCTURE
     1 WZV         1 TEMP              0 ****  ****    0 ROOT
