@<TRIPOS>MOLECULE
C
   33    34     1     0     0
SMALL
bcc


@<TRIPOS>ATOM
      1 OP3         2.1020   -0.6840   -3.4540 o         1 C       -0.925167
      2 P           1.0350   -0.1770   -2.5410 p5        1 C        1.339900
      3 OP1         1.4360    0.2230   -1.1330 o         1 C       -0.925167
      4 OP2        -0.0440    0.7390   -3.0700 o         1 C       -0.925167
      5 O5'         0.0170   -1.5440   -2.2160 os        1 C       -0.569200
      6 C5'        -0.2990   -1.8200   -0.9160 c3        1 C        0.225400
      7 C4'        -1.6310   -1.1720   -0.4630 c3        1 C        0.062100
      8 O4'        -1.8060   -1.4140    0.9530 os        1 C       -0.437600
      9 C3'        -1.7000    0.3520   -0.6870 c3        1 C        0.075100
     10 O3'        -2.5940    0.6770   -1.7260 oh        1 C       -0.664800
     11 C2'        -2.1810    0.9460    0.6470 c3        1 C        0.107100
     12 O2'        -3.5630    1.2390    0.7040 oh        1 C       -0.616800
     13 C1'        -1.8690   -0.1870    1.6800 c3        1 C        0.260500
     14 N1         -0.6350    0.0490    2.4380 n         1 C       -0.367000
     15 C2         -0.6790    0.0300    3.8770 c         1 C        0.822900
     16 O2         -1.7830   -0.1510    4.4490 o         1 C       -0.683500
     17 N3          0.4830    0.2420    4.6330 nc        1 C       -0.764100
     18 C4          1.6490    0.4120    3.9790 cd        1 C        0.707500
     19 N4          2.8400    0.5340    4.7150 nh        1 C       -0.897800
     20 C5          1.7280    0.4330    2.5400 cd        1 C       -0.459600
     21 C6          0.5690    0.2400    1.8120 cc        1 C        0.085600
     22 H5'         0.5210   -1.5010   -0.2150 h1        1 C       -0.001300
     23 H5''       -0.4430   -2.9370   -0.8060 h1        1 C       -0.001300
     24 H4'        -2.4990   -1.6790   -0.9620 h1        1 C        0.045700
     25 H3'        -0.6570    0.7370   -0.9470 h1        1 C        0.161700
     26 HO3'       -2.0230    0.7770   -2.5230 ho        1 C        0.494000
     27 H2'        -1.6560    1.9050    0.8900 h1        1 C        0.072700
     28 HO2'       -3.9820    0.7940   -0.0430 ho        1 C        0.420000
     29 H1'        -2.7130   -0.3110    2.4210 h2        1 C        0.109700
     30 H41         2.7400    0.7890    5.6710 hn        1 C        0.390300
     31 H42         3.5500    1.0360    4.2320 hn        1 C        0.390300
     32 H5          2.6750    0.5680    2.0050 ha        1 C        0.170000
     33 H6          0.6220    0.2510    0.6730 h4        1 C        0.299000
@<TRIPOS>BOND
     1    1    2 1   
     2    2    3 1   
     3    2    4 1   
     4    2    5 1   
     5    5    6 1   
     6    6    7 1   
     7    6   22 1   
     8    6   23 1   
     9    7    8 1   
    10    7    9 1   
    11    7   24 1   
    12    8   13 1   
    13    9   10 1   
    14    9   11 1   
    15    9   25 1   
    16   10   26 1   
    17   11   12 1   
    18   11   13 1   
    19   11   27 1   
    20   12   28 1   
    21   13   14 1   
    22   13   29 1   
    23   14   15 1   
    24   14   21 1   
    25   15   16 2   
    26   15   17 1   
    27   17   18 2   
    28   18   19 1   
    29   18   20 1   
    30   19   30 1   
    31   19   31 1   
    32   20   21 2   
    33   20   32 1   
    34   21   33 1   
@<TRIPOS>SUBSTRUCTURE
     1 C           1 TEMP              0 ****  ****    0 ROOT
