@<TRIPOS>MOLECULE
C00
   40    40     1     0     0
SMALL
bcc


@<TRIPOS>ATOM
      1 C1          0.3780    0.4110   -0.0150 c2        1 C00     -0.444000
      2 C2          1.4110    1.2200   -0.1810 c1        1 C00      0.236000
      3 C6          1.7670    1.0940    2.6120 c3        1 C00     -0.162000
      4 C8          0.6430    0.1250    2.4070 c2        1 C00     -0.312000
      5 C15         0.2230   -0.4060    3.7230 c2        1 C00      0.366000
      6 C26         0.7600    0.0950    6.1130 c2        1 C00     -0.060000
      7 C28         0.7530   -1.2420    6.6590 c2        1 C00      0.058000
      8 C30         0.5930   -1.4680    8.0050 c2        1 C00     -0.208000
      9 C32         0.4800   -0.4150    8.9350 c1        1 C00     -0.108000
     10 C34         0.4560    0.9550    8.4470 c3        1 C00     -0.213000
     11 C36         0.5510    1.1600    6.9750 c2        1 C00      0.092000
     12 C41         2.4210   -3.9230    9.7780 c1        1 C00     -0.588000
     13 C21         1.8670    1.2020    4.1540 c2        1 C00      0.351000
     14 C4          3.0630    0.7980    2.0230 c1        1 C00      0.018000
     15 N19         0.9640    0.2630    4.7270 n         1 C00     -0.283000
     16 O17        -0.6300   -1.2860    3.9140 o         1 C00     -0.344000
     17 C10         0.0300   -0.2330    1.2400 c2        1 C00      0.046000
     18 O39         0.4210    2.4190    6.4680 oh        1 C00     -0.224000
     19 C45         0.5450   -2.8770    8.5300 c3        1 C00     -0.035000
     20 C46         1.4820   -2.9970    9.6950 c2        1 C00      0.214000
     21 C44        -0.8410   -3.2030    8.9950 c2        1 C00     -0.160000
     22 C43        -1.5250   -4.2620    8.5720 c2        1 C00     -0.204000
     23 C42         3.3300   -4.8090    9.8770 c1        1 C00      0.174000
     24 H1         -0.2740    0.1920   -0.8880 ha        1 C00      0.206000
     25 H2          3.0570    0.2590    1.0600 ha        1 C00      0.065000
     26 H13        -2.0390   -1.1240   -0.6800 ha        1 C00      0.014500
     27 H13A       -1.6620   -1.6720   -0.8310 ha        1 C00      0.014500
     28 H13B       -1.8020   -1.4550    1.6600 ha        1 C00      0.155000
     29 H28         0.8700   -2.0840    5.9500 ha        1 C00      0.158000
     30 H32        -0.4970    1.4310    8.8290 hc        1 C00      0.170500
     31 H34         1.3130    1.4940    8.9540 hc        1 C00      0.170500
     32 H41         1.3300   -2.2370   10.4890 ha        1 C00      0.155000
     33 H4          1.5030    2.1300    2.2150 hc        1 C00      0.191000
     34 HO39        0.5110    3.0530    7.1970 ho        1 C00      0.233000
     35 H46         0.8540   -3.5950    7.7170 hc        1 C00      0.112000
     36 H44        -1.2580   -2.4820    9.7180 ha        1 C00      0.139000
     37 H43        -1.1220   -4.9870    7.8510 ha        1 C00      0.116500
     38 H42        -2.5420   -4.4760    8.9250 ha        1 C00      0.116500
     39 C13        -0.8150   -1.3560    1.2100 c1        1 C00      0.033000
     40 O23         2.5810    1.9720    4.7900 o         1 C00     -0.262000
@<TRIPOS>BOND
     1    1    2 1   
     2    1   17 1   
     3    1   24 1   
     4    3    4 1   
     5    3   13 1   
     6    3   14 1   
     7    3   33 1   
     8    4    5 1   
     9    4   17 1   
    10    5   15 1   
    11    5   16 1   
    12    6    7 1   
    13    6   11 1   
    14    6   15 1   
    15    7    8 1   
    16    7   29 1   
    17    8    9 1   
    18    8   19 1   
    19    9   10 1   
    20   10   11 1   
    21   10   30 1   
    22   10   31 1   
    23   11   18 1   
    24   12   20 1   
    25   12   23 1   
    26   13   15 1   
    27   13   40 1   
    28   14   25 1   
    29   17   39 1   
    30   18   34 1   
    31   19   20 1   
    32   19   21 1   
    33   19   35 1   
    34   20   32 1   
    35   21   22 1   
    36   21   36 1   
    37   22   37 1   
    38   22   38 1   
    39   26   27 1   
    40   28   39 1   
@<TRIPOS>SUBSTRUCTURE
     1 C00         1 TEMP              0 ****  ****    0 ROOT
