@<TRIPOS>MOLECULE
C00
   40    43     1     0     0
SMALL
bcc


@<TRIPOS>ATOM
      1 C1         -5.3500    1.3540    0.0820 ca        1 C00     -0.123000
      2 C2         -4.9470    1.6740    1.3690 ca        1 C00     -0.110000
      3 C6         -2.8170    0.6900    0.9590 ca        1 C00     -0.134600
      4 C8         -3.2280    0.3570   -0.3640 ca        1 C00     -0.146600
      5 C15        -2.0860   -0.3460   -1.0310 c         1 C00      0.732100
      6 C26         0.2780   -0.8960   -0.3400 ca        1 C00     -0.008400
      7 C28         1.3860   -0.0790   -0.0310 ca        1 C00     -0.092000
      8 C30         2.6930   -0.5200   -0.2450 cp        1 C00     -0.050000
      9 C32         2.9130   -1.7960   -0.7850 ca        1 C00     -0.095000
     10 C34         1.8410   -2.6140   -1.1090 ca        1 C00     -0.146000
     11 C36         0.5230   -2.1800   -0.8870 ca        1 C00      0.134100
     12 C41         6.0440    0.6320    1.0230 ca        1 C00     -0.130000
     13 C21        -1.4080    0.2170    1.1450 c         1 C00      0.727100
     14 C4         -3.6570    1.3410    1.8320 ca        1 C00     -0.067000
     15 N19        -1.0290   -0.4250   -0.0780 n         1 C00     -0.433600
     16 O17        -2.0350   -0.8100   -2.1750 o         1 C00     -0.591500
     17 C10        -4.4910    0.6810   -0.8220 ca        1 C00      0.004700
     18 O39        -0.4610   -3.1020   -1.1620 oh        1 C00     -0.512100
     19 C45         3.8250    0.3430    0.0900 cp        1 C00     -0.034000
     20 C46         4.9660   -0.1910    0.7040 ca        1 C00     -0.118500
     21 C44         3.7820    1.7150   -0.1980 ca        1 C00     -0.118500
     22 C43         4.8640    2.5340    0.1200 ca        1 C00     -0.130000
     23 C42         5.9960    1.9950    0.7310 ca        1 C00     -0.127000
     24 H1         -6.3620    1.6240   -0.2600 ha        1 C00      0.145000
     25 H2         -5.6390    2.1960    2.0480 ha        1 C00      0.145000
     26 H13        -5.3150    1.2870   -2.7010 hc        1 C00      0.064367
     27 H13A       -4.1600   -0.1140   -2.7970 hc        1 C00      0.064367
     28 H13B       -5.8320   -0.3530   -2.1260 hc        1 C00      0.064367
     29 H28         1.2220    0.9130    0.4240 ha        1 C00      0.150000
     30 H32         3.9420   -2.1460   -0.9600 ha        1 C00      0.141000
     31 H34         1.9990   -3.6170   -1.5330 ha        1 C00      0.154000
     32 H41         6.9340    0.2050    1.5080 ha        1 C00      0.132000
     33 H4         -3.3390    1.5950    2.8540 ha        1 C00      0.161000
     34 HO39       -1.1790   -2.6540   -1.6370 ho        1 C00      0.438000
     35 H46         5.0050   -1.2650    0.9440 ha        1 C00      0.134500
     36 H44         2.8930    2.1430   -0.6850 ha        1 C00      0.134500
     37 H43         4.8230    3.6080   -0.1130 ha        1 C00      0.132000
     38 H42         6.8480    2.6430    0.9830 ha        1 C00      0.131000
     39 C13        -4.9690    0.3570   -2.1830 c3        1 C00     -0.076800
     40 O23        -0.6920    0.3440    2.1380 o         1 C00     -0.547500
@<TRIPOS>BOND
     1    1    2 ar  
     2    1   17 ar  
     3    1   24 1   
     4    2   14 ar  
     5    2   25 1   
     6    3    4 ar  
     7    3   13 1   
     8    3   14 ar  
     9    4    5 1   
    10    4   17 ar  
    11    5   15 1   
    12    5   16 2   
    13    6    7 ar  
    14    6   11 ar  
    15    6   15 1   
    16    7    8 ar  
    17    7   29 1   
    18    8    9 ar  
    19    8   19 1   
    20    9   10 ar  
    21    9   30 1   
    22   10   11 ar  
    23   10   31 1   
    24   11   18 1   
    25   12   20 ar  
    26   12   23 ar  
    27   12   32 1   
    28   13   15 1   
    29   13   40 2   
    30   14   33 1   
    31   17   39 1   
    32   18   34 1   
    33   19   20 ar  
    34   19   21 ar  
    35   20   35 1   
    36   21   22 ar  
    37   21   36 1   
    38   22   23 ar  
    39   22   37 1   
    40   23   38 1   
    41   26   39 1   
    42   27   39 1   
    43   28   39 1   
@<TRIPOS>SUBSTRUCTURE
     1 C00         1 TEMP              0 ****  ****    0 ROOT
