@<TRIPOS>MOLECULE
C00
   40    40     1     0     0
SMALL
bcc


@<TRIPOS>ATOM
      1 C1          0.5340    0.2130   -0.0180 c2        1 C00     -0.440000
      2 C2          1.6990    0.7780   -0.3030 c1        1 C00      0.183000
      3 C6          1.6370    1.2760    2.6610 c3        1 C00     -0.165000
      4 C8          0.6070    0.2140    2.4440 c2        1 C00     -0.345000
      5 C15         0.1740   -0.3110    3.7520 c2        1 C00      0.369000
      6 C26         0.7120    0.1600    6.1490 c2        1 C00     -0.058000
      7 C28         0.6940   -1.1910    6.6600 c2        1 C00      0.057000
      8 C30         0.5490   -1.4500    8.0020 c2        1 C00     -0.208000
      9 C32         0.4620   -0.4210    8.9610 c1        1 C00     -0.108000
     10 C34         0.4500    0.9620    8.5100 c3        1 C00     -0.213000
     11 C36         0.5300    1.2050    7.0430 c2        1 C00      0.090000
     12 C41         2.3700   -3.9720    9.6830 c1        1 C00     -0.588000
     13 C21         1.7880    1.3170    4.2030 c2        1 C00      0.349000
     14 C4          2.9070    1.1420    1.9700 c1        1 C00      0.061000
     15 N19         0.8960    0.3630    4.7660 n         1 C00     -0.280000
     16 O17        -0.6710   -1.2080    3.9170 o         1 C00     -0.350000
     17 C10         0.0980   -0.2830    1.2760 c2        1 C00      0.064000
     18 O39         0.4120    2.4790    6.5710 oh        1 C00     -0.224000
     19 C45         0.4890   -2.8710    8.4910 c3        1 C00     -0.035000
     20 C46         1.4410   -3.0350    9.6380 c2        1 C00      0.214000
     21 C44        -0.8940   -3.1920    8.9670 c2        1 C00     -0.160000
     22 C43        -1.5990   -4.2290    8.5250 c2        1 C00     -0.204000
     23 C42         3.2720   -4.8700    9.7440 c1        1 C00      0.174000
     24 H1         -0.1830    0.0960   -0.8590 ha        1 C00      0.198000
     25 H2          2.8610    0.7500    0.9130 ha        1 C00      0.089000
     26 H13        -1.4770   -1.7150   -0.8030 ha        1 C00      0.013500
     27 H13A       -0.9920   -2.1940   -0.7730 ha        1 C00      0.013500
     28 H13B       -1.7720   -1.5350    1.5390 ha        1 C00      0.168000
     29 H28         0.7880   -2.0150    5.9280 ha        1 C00      0.160000
     30 H32        -0.4920    1.4390    8.9160 hc        1 C00      0.170500
     31 H34         1.3200    1.4780    9.0190 hc        1 C00      0.170500
     32 H41         1.3080   -2.2950   10.4560 ha        1 C00      0.155000
     33 H4          1.2460    2.3020    2.3520 hc        1 C00      0.188000
     34 HO39        0.5210    3.0920    7.3160 ho        1 C00      0.233000
     35 H46         0.7770   -3.5720    7.6540 hc        1 C00      0.112000
     36 H44        -1.2920   -2.4850    9.7150 ha        1 C00      0.139000
     37 H43        -1.2170   -4.9390    7.7790 ha        1 C00      0.116500
     38 H42        -2.6140   -4.4390    8.8870 ha        1 C00      0.116500
     39 C13        -0.7150   -1.4190    1.3230 c1        1 C00      0.038000
     40 O23         2.5250    2.0610    4.8440 o         1 C00     -0.266000
@<TRIPOS>BOND
     1    1    2 1   
     2    1   17 1   
     3    1   24 1   
     4    3    4 1   
     5    3   13 1   
     6    3   14 1   
     7    3   33 1   
     8    4    5 1   
     9    4   17 1   
    10    5   15 1   
    11    5   16 1   
    12    6    7 1   
    13    6   11 1   
    14    6   15 1   
    15    7    8 1   
    16    7   29 1   
    17    8    9 1   
    18    8   19 1   
    19    9   10 1   
    20   10   11 1   
    21   10   30 1   
    22   10   31 1   
    23   11   18 1   
    24   12   20 1   
    25   12   23 1   
    26   13   15 1   
    27   13   40 1   
    28   14   25 1   
    29   17   39 1   
    30   18   34 1   
    31   19   20 1   
    32   19   21 1   
    33   19   35 1   
    34   20   32 1   
    35   21   22 1   
    36   21   36 1   
    37   22   37 1   
    38   22   38 1   
    39   26   27 1   
    40   28   39 1   
@<TRIPOS>SUBSTRUCTURE
     1 C00         1 TEMP              0 ****  ****    0 ROOT
