@<TRIPOS>MOLECULE
C00
   40    42     1     0     0
SMALL
bcc


@<TRIPOS>ATOM
      1 C1          0.8670   -0.7640    0.3030 c2        1 C00     -0.104000
      2 C2          1.6740    0.2910    0.4050 c1        1 C00     -0.124000
      3 C6          1.0060    1.1460    2.4800 c3        1 C00     -0.064000
      4 C8         -0.0200    0.0370    2.3750 c2        1 C00     -0.214000
      5 C15        -0.4340   -0.2810    3.7690 c2        1 C00      0.367000
      6 C26         0.6700   -0.0490    6.0020 c2        1 C00     -0.017000
      7 C28        -0.1260   -0.8760    6.7240 c2        1 C00     -0.179000
      8 C30         0.2410   -0.8830    8.1820 c3        1 C00      0.019000
      9 C32         1.4190    0.0620    8.2730 c2        1 C00     -0.447000
     10 C34         2.0390    0.4130    9.3810 c1        1 C00      0.233000
     11 C36         1.7450    0.6010    6.8900 c3        1 C00      0.160000
     12 C41         0.5740   -3.3310   10.9450 c1        1 C00     -0.568000
     13 C21         1.5550    0.9660    3.8950 c2        1 C00      0.333000
     14 C4          1.8340    1.3040    1.2350 c2        1 C00     -0.091000
     15 N19         0.5950    0.2200    4.6350 n         1 C00     -0.281000
     16 O17        -1.4320   -0.8950    4.1520 o         1 C00     -0.288000
     17 C10        -0.2430   -0.7270    1.2660 c2        1 C00      0.055000
     18 O39         1.6440    2.0070    6.9120 oh        1 C00     -0.315000
     19 C45         0.5660   -2.2980    8.6770 c3        1 C00     -0.095000
     20 C46         0.8190   -2.3100   10.1480 c2        1 C00      0.179000
     21 C44        -0.5330   -3.2350    8.2980 c2        1 C00     -0.159000
     22 C43        -0.3390   -4.3650    7.6230 c2        1 C00     -0.194000
     23 C42         0.3470   -4.3080   11.7370 c1        1 C00      0.201000
     24 H1          1.0500   -1.6820   -0.2650 ha        1 C00      0.174000
     25 H2          2.3160    2.2670    1.0410 ha        1 C00      0.173000
     26 H13        -1.0220   -2.6150    0.6030 hc        1 C00      0.110667
     27 H13A       -2.1590   -1.2040    0.4950 hc        1 C00      0.110667
     28 H13B       -1.8000   -1.9500    2.1110 hc        1 C00      0.110667
     29 H28        -0.9600   -1.4850    6.3630 ha        1 C00      0.179000
     30 H32        -0.6200   -0.4720    8.7810 hc        1 C00      0.120000
     31 H34         2.7680    0.2680    6.5600 h1        1 C00      0.113000
     32 H41         1.2730   -1.3820   10.5610 ha        1 C00      0.130000
     33 H4          0.4470    2.1390    2.5040 hc        1 C00      0.164000
     34 HO39        2.2520    2.3500    6.2410 ho        1 C00      0.226000
     35 H46         1.5330   -2.6310    8.1890 hc        1 C00      0.135000
     36 H44        -1.5380   -2.9260    8.6300 ha        1 C00      0.132000
     37 H43         0.6520   -4.7000    7.2860 ha        1 C00      0.117500
     38 H42        -1.1680   -5.0380    7.3670 ha        1 C00      0.117500
     39 C13        -1.3570   -1.6800    1.1170 c3        1 C00     -0.208000
     40 O23         2.6070    1.4190    4.3530 o         1 C00     -0.315000
@<TRIPOS>BOND
     1    1    2 1   
     2    1   17 1   
     3    1   24 1   
     4    2   14 1   
     5    3    4 1   
     6    3   13 1   
     7    3   14 1   
     8    3   33 1   
     9    4    5 1   
    10    4   17 1   
    11    5   15 1   
    12    5   16 1   
    13    6    7 1   
    14    6   11 1   
    15    6   15 1   
    16    7    8 1   
    17    7   29 1   
    18    8    9 1   
    19    8   19 1   
    20    8   30 1   
    21    9   10 1   
    22    9   11 1   
    23   11   18 1   
    24   11   31 1   
    25   12   20 1   
    26   12   23 1   
    27   13   15 1   
    28   13   40 1   
    29   14   25 1   
    30   17   39 1   
    31   18   34 1   
    32   19   20 1   
    33   19   21 1   
    34   19   35 1   
    35   20   32 1   
    36   21   22 1   
    37   21   36 1   
    38   22   37 1   
    39   22   38 1   
    40   26   39 1   
    41   27   39 1   
    42   28   39 1   
@<TRIPOS>SUBSTRUCTURE
     1 C00         1 TEMP              0 ****  ****    0 ROOT
