@<TRIPOS>MOLECULE
C01
   61    63     1     0     0
SMALL
bcc


@<TRIPOS>ATOM
      1 C1          0.0590    0.0980    0.0020 ca        1 C01     -0.107300
      2 C2          1.4710    0.1920    0.0810 ca        1 C01      0.207100
      3 C3          2.1600    0.1600    1.3230 ca        1 C01     -0.126300
      4 C4          1.3500    0.0690    2.4470 ca        1 C01      0.115100
      5 C5         -0.0650   -0.0050    2.3930 ca        1 C01     -0.257600
      6 C6         -0.7100    0.0020    1.1680 ca        1 C01     -0.020000
      7 O8          1.7920    0.0320    3.7880 os        1 C01     -0.168200
      8 N9          0.6970    0.0270    4.6190 n         1 C01     -0.236300
      9 C10        -0.5200   -0.0960    3.7890 c         1 C01      0.665100
     10 C11         0.8410   -1.0020    5.6370 c3        1 C01      0.016300
     11 O15        -1.6510   -0.1950    4.2710 o         1 C01     -0.584500
     12 C16         3.6400    0.2050    1.4270 c3        1 C01     -0.031100
     13 C17         4.2050   -1.0260    2.1120 c3        1 C01     -0.077400
     14 C20         5.7070   -0.9480    2.2180 c3        1 C01     -0.091100
     15 C26        -0.6290    0.1160   -1.3190 c3        1 C01     -0.063100
     16 C27        -1.1060   -1.2670   -1.7200 c3        1 C01     -0.066400
     17 C30        -1.8200   -1.2250   -3.0470 c3        1 C01     -0.092100
     18 O36         2.1760    0.1850   -1.1010 os        1 C01     -0.337900
     19 C37         2.8270    1.4450   -1.4420 c3        1 C01      0.046400
     20 C38         4.1160    1.0780   -2.1060 ca        1 C01     -0.055300
     21 C39         1.9030    2.2640   -2.4060 c         1 C01      0.914600
     22 C40         5.3430    1.4760   -1.5660 ca        1 C01     -0.106500
     23 C41         6.5350    1.1440   -2.2070 ca        1 C01     -0.143500
     24 C42         6.5220    0.4040   -3.3930 ca        1 C01     -0.094300
     25 C43         5.2910    0.0140   -3.9370 ca        1 C01     -0.143500
     26 C44         4.0990    0.3510   -3.3040 ca        1 C01     -0.106500
     27 C49         7.8090    0.0490   -4.0700 c3        1 C01     -0.016400
     28 C50         7.9840   -1.4550   -4.1560 c3        1 C01     -0.085100
     29 C54         7.8880    0.6710   -5.4510 c3        1 C01     -0.085100
     30 O60         1.3880    1.6740   -3.3930 o         1 C01     -0.811800
     31 O61         1.7480    3.4760   -2.1090 o         1 C01     -0.811800
     32 H6         -1.8070   -0.0570    1.1080 ha        1 C01      0.146000
     33 H111        1.6980   -0.7150    6.2990 h1        1 C01      0.053700
     34 H112        1.0420   -2.0210    5.2130 h1        1 C01      0.053700
     35 H113       -0.1120   -1.0180    6.2270 h1        1 C01      0.053700
     36 H161        4.0950    0.2890    0.4010 hc        1 C01      0.063200
     37 H162        3.9370    1.1220    2.0050 hc        1 C01      0.063200
     38 H171        3.7570   -1.1230    3.1370 hc        1 C01      0.042200
     39 H172        3.9150   -1.9410    1.5320 hc        1 C01      0.042200
     40 H201        6.1070   -1.8600    2.7220 hc        1 C01      0.029033
     41 H202        6.1690   -0.8710    1.2050 hc        1 C01      0.029033
     42 H203        6.0140   -0.0530    2.8120 hc        1 C01      0.029033
     43 H261       -1.5080    0.8140   -1.2660 hc        1 C01      0.091700
     44 H262        0.0700    0.5190   -2.1120 hc        1 C01      0.091700
     45 H271       -0.2240   -1.9560   -1.7900 hc        1 C01      0.028200
     46 H272       -1.7900   -1.6780   -0.9320 hc        1 C01      0.028200
     47 H301       -2.1290   -2.2520   -3.3560 hc        1 C01      0.031033
     48 H302       -2.7340   -0.5860   -2.9830 hc        1 C01      0.031033
     49 H303       -1.1510   -0.7980   -3.8340 hc        1 C01      0.031033
     50 H37         3.0070    2.0430   -0.5090 h1        1 C01      0.053700
     51 H40         5.3670    2.0650   -0.6370 ha        1 C01      0.153000
     52 H41         7.4920    1.4690   -1.7740 ha        1 C01      0.115000
     53 H43         5.2670   -0.5560   -4.8770 ha        1 C01      0.115000
     54 H44         3.1160    0.0880   -3.7370 ha        1 C01      0.153000
     55 H49         8.6620    0.4610   -3.4570 hc        1 C01      0.038700
     56 H501        7.1640   -1.9110   -4.7610 hc        1 C01      0.031033
     57 H502        8.9610   -1.7020   -4.6360 hc        1 C01      0.031033
     58 H503        7.9610   -1.9070   -3.1350 hc        1 C01      0.031033
     59 H541        7.0660    0.2860   -6.1020 hc        1 C01      0.031033
     60 H542        7.7900    1.7810   -5.3820 hc        1 C01      0.031033
     61 H543        8.8660    0.4260   -5.9290 hc        1 C01      0.031033
@<TRIPOS>BOND
     1    1    2 ar  
     2    1    6 ar  
     3    1   15 1   
     4    2    3 ar  
     5    2   18 1   
     6    3    4 ar  
     7    3   12 1   
     8    4    5 ar  
     9    4    7 1   
    10    5    6 ar  
    11    5    9 1   
    12    6   32 1   
    13    7    8 1   
    14    8    9 1   
    15    8   10 1   
    16    9   11 2   
    17   10   33 1   
    18   10   34 1   
    19   10   35 1   
    20   12   13 1   
    21   12   36 1   
    22   12   37 1   
    23   13   14 1   
    24   13   38 1   
    25   13   39 1   
    26   14   40 1   
    27   14   41 1   
    28   14   42 1   
    29   15   16 1   
    30   15   43 1   
    31   15   44 1   
    32   16   17 1   
    33   16   45 1   
    34   16   46 1   
    35   17   47 1   
    36   17   48 1   
    37   17   49 1   
    38   18   19 1   
    39   19   20 1   
    40   19   21 1   
    41   19   50 1   
    42   20   22 ar  
    43   20   26 ar  
    44   21   30 1   
    45   21   31 1   
    46   22   23 ar  
    47   22   51 1   
    48   23   24 ar  
    49   23   52 1   
    50   24   25 ar  
    51   24   27 1   
    52   25   26 ar  
    53   25   53 1   
    54   26   54 1   
    55   27   28 1   
    56   27   29 1   
    57   27   55 1   
    58   28   56 1   
    59   28   57 1   
    60   28   58 1   
    61   29   59 1   
    62   29   60 1   
    63   29   61 1   
@<TRIPOS>SUBSTRUCTURE
     1 C01         1 TEMP              0 ****  ****    0 ROOT
