@<TRIPOS>MOLECULE
C01
   61    63     1     0     0
SMALL
bcc


@<TRIPOS>ATOM
      1 C1          0.0860   -0.1150    0.0220 ca        1 C01     -0.107300
      2 C2          1.4970   -0.0360    0.1310 ca        1 C01      0.208100
      3 C3          2.1690   -0.1940    1.3730 ca        1 C01     -0.127300
      4 C4          1.3410   -0.3590    2.4740 ca        1 C01      0.116100
      5 C5         -0.0720   -0.4280    2.3920 ca        1 C01     -0.258600
      6 C6         -0.7000   -0.3140    1.1630 ca        1 C01     -0.019000
      7 O8          1.7600   -0.4890    3.8170 os        1 C01     -0.169200
      8 N9          0.6600   -0.7130    4.6120 n         1 C01     -0.237300
      9 C10        -0.5520   -0.6020    3.7730 c         1 C01      0.665100
     10 C11         0.6790    0.1820    5.7590 c3        1 C01      0.015300
     11 O15        -1.6920   -0.7130    4.2280 o         1 C01     -0.584500
     12 C16         3.6490   -0.1880    1.4910 c3        1 C01     -0.030100
     13 C17         4.1800   -1.4500    2.1470 c3        1 C01     -0.081400
     14 C20         5.6820   -1.4100    2.2640 c3        1 C01     -0.090100
     15 C26        -0.5770    0.0230   -1.3040 c3        1 C01     -0.061100
     16 C27        -0.8930   -1.3300   -1.9130 c3        1 C01     -0.067400
     17 C30        -1.5770   -1.1720   -3.2470 c3        1 C01     -0.091100
     18 O36         2.2160    0.0830   -1.0380 os        1 C01     -0.337900
     19 C37         2.9020    1.3600   -1.2100 c3        1 C01      0.047400
     20 C38         4.1480    1.0520   -1.9780 ca        1 C01     -0.054300
     21 C39         1.9760    2.3570   -1.9830 c         1 C01      0.912600
     22 C40         5.4100    1.2620   -1.4130 ca        1 C01     -0.106000
     23 C41         6.5640    0.9880   -2.1450 ca        1 C01     -0.143500
     24 C42         6.4760    0.4930   -3.4500 ca        1 C01     -0.093300
     25 C43         5.2120    0.2890   -4.0160 ca        1 C01     -0.143500
     26 C44         4.0570    0.5690   -3.2910 ca        1 C01     -0.106000
     27 C49         7.7220    0.1980   -4.2240 c3        1 C01     -0.016400
     28 C50         7.7960   -1.2700   -4.5990 c3        1 C01     -0.085100
     29 C54         7.8110    1.0660   -5.4650 c3        1 C01     -0.085100
     30 O60         1.4170    1.9670   -3.0420 o         1 C01     -0.812300
     31 O61         1.8630    3.5000   -1.4700 o         1 C01     -0.812300
     32 H6         -1.7960   -0.3690    1.0820 ha        1 C01      0.146000
     33 H111       -0.2810    0.0240    6.3170 h1        1 C01      0.055033
     34 H112        1.5490   -0.1050    6.4050 h1        1 C01      0.055033
     35 H113        0.7810    1.2630    5.4780 h1        1 C01      0.055033
     36 H161        3.9640    0.7070    2.0940 hc        1 C01      0.060700
     37 H162        4.1140   -0.0890    0.4710 hc        1 C01      0.060700
     38 H171        3.7230   -1.5650    3.1660 hc        1 C01      0.047200
     39 H172        3.8720   -2.3410    1.5400 hc        1 C01      0.047200
     40 H201        6.0580   -2.3450    2.7440 hc        1 C01      0.028033
     41 H202        6.0070   -0.5400    2.8850 hc        1 C01      0.028033
     42 H203        6.1530   -1.3150    1.2550 hc        1 C01      0.028033
     43 H261        0.0960    0.6040   -2.0060 hc        1 C01      0.088700
     44 H262       -1.5260    0.6110   -1.1860 hc        1 C01      0.088700
     45 H271       -1.5470   -1.9180   -1.2170 hc        1 C01      0.031200
     46 H272        0.0610   -1.9050   -2.0440 hc        1 C01      0.031200
     47 H301       -2.5540   -0.6440   -3.1300 hc        1 C01      0.030033
     48 H302       -1.7680   -2.1720   -3.7070 hc        1 C01      0.030033
     49 H303       -0.9370   -0.5740   -3.9420 hc        1 C01      0.030033
     50 H37         3.1460    1.7960   -0.2040 h1        1 C01      0.051700
     51 H40         5.4930    1.6570   -0.3900 ha        1 C01      0.153500
     52 H41         7.5500    1.1650   -1.6900 ha        1 C01      0.115500
     53 H43         5.1300   -0.0890   -5.0450 ha        1 C01      0.115500
     54 H44         3.0500    0.4510   -3.7320 ha        1 C01      0.153500
     55 H49         8.6140    0.4330   -3.5740 hc        1 C01      0.038700
     56 H501        8.7450   -1.4800   -5.1500 hc        1 C01      0.031200
     57 H502        7.7660   -1.9070   -3.6830 hc        1 C01      0.031200
     58 H503        6.9360   -1.5520   -5.2530 hc        1 C01      0.031200
     59 H541        8.7610    0.8580   -6.0140 hc        1 C01      0.031200
     60 H542        6.9520    0.8620   -6.1490 hc        1 C01      0.031200
     61 H543        7.7890    2.1460   -5.1840 hc        1 C01      0.031200
@<TRIPOS>BOND
     1    1    2 ar  
     2    1    6 ar  
     3    1   15 1   
     4    2    3 ar  
     5    2   18 1   
     6    3    4 ar  
     7    3   12 1   
     8    4    5 ar  
     9    4    7 1   
    10    5    6 ar  
    11    5    9 1   
    12    6   32 1   
    13    7    8 1   
    14    8    9 1   
    15    8   10 1   
    16    9   11 2   
    17   10   33 1   
    18   10   34 1   
    19   10   35 1   
    20   12   13 1   
    21   12   36 1   
    22   12   37 1   
    23   13   14 1   
    24   13   38 1   
    25   13   39 1   
    26   14   40 1   
    27   14   41 1   
    28   14   42 1   
    29   15   16 1   
    30   15   43 1   
    31   15   44 1   
    32   16   17 1   
    33   16   45 1   
    34   16   46 1   
    35   17   47 1   
    36   17   48 1   
    37   17   49 1   
    38   18   19 1   
    39   19   20 1   
    40   19   21 1   
    41   19   50 1   
    42   20   22 ar  
    43   20   26 ar  
    44   21   30 1   
    45   21   31 1   
    46   22   23 ar  
    47   22   51 1   
    48   23   24 ar  
    49   23   52 1   
    50   24   25 ar  
    51   24   27 1   
    52   25   26 ar  
    53   25   53 1   
    54   26   54 1   
    55   27   28 1   
    56   27   29 1   
    57   27   55 1   
    58   28   56 1   
    59   28   57 1   
    60   28   58 1   
    61   29   59 1   
    62   29   60 1   
    63   29   61 1   
@<TRIPOS>SUBSTRUCTURE
     1 C01         1 TEMP              0 ****  ****    0 ROOT
