@<TRIPOS>MOLECULE
C01
   61    63     1     0     0
SMALL
bcc


@<TRIPOS>ATOM
      1 C1         -2.0740    1.5320   -0.1500 ca        1 C01     -0.107300
      2 C2         -1.1050    0.5060   -0.0180 ca        1 C01      0.207100
      3 C3         -1.4670   -0.8620    0.1050 ca        1 C01     -0.126300
      4 C4         -2.8310   -1.1130    0.1260 ca        1 C01      0.115100
      5 C5         -3.8190   -0.1020    0.0170 ca        1 C01     -0.257600
      6 C6         -3.4400    1.2210   -0.1290 ca        1 C01     -0.020000
      7 O8         -3.4400   -2.3820    0.2500 os        1 C01     -0.168200
      8 N9         -4.8040   -2.2180    0.3170 n         1 C01     -0.236300
      9 C10        -5.1170   -0.7950    0.0750 c         1 C01      0.665100
     10 C11        -5.4670   -3.1450   -0.5870 c3        1 C01      0.016300
     11 O15        -6.2710   -0.3650    0.0080 o         1 C01     -0.584500
     12 C16        -0.4680   -1.9570    0.1930 c3        1 C01     -0.031100
     13 C17        -0.6110   -2.9570   -0.9400 c3        1 C01     -0.077400
     14 C20         0.4030   -4.0640   -0.8190 c3        1 C01     -0.091100
     15 C26        -1.6590    2.9540   -0.2970 c3        1 C01     -0.063100
     16 C27        -1.8130    3.4380   -1.7260 c3        1 C01     -0.066400
     17 C30        -1.4100    4.8850   -1.8500 c3        1 C01     -0.092100
     18 O36         0.2190    0.8630   -0.1450 os        1 C01     -0.337900
     19 C37         1.0040    0.7770    1.0820 c3        1 C01      0.046400
     20 C38         2.3690    0.3240    0.6690 ca        1 C01     -0.055300
     21 C39         1.0550    2.1860    1.7660 c         1 C01      0.914600
     22 C40         2.9050   -0.8730    1.1510 ca        1 C01     -0.106500
     23 C41         4.1870   -1.2730    0.7730 ca        1 C01     -0.143500
     24 C42         4.9480   -0.4860   -0.0970 ca        1 C01     -0.094300
     25 C43         4.4110    0.7170   -0.5720 ca        1 C01     -0.143500
     26 C44         3.1360    1.1230   -0.1900 ca        1 C01     -0.106500
     27 C49         6.3200   -0.9280   -0.4990 c3        1 C01     -0.016400
     28 C50         6.4090   -1.1330   -2.0000 c3        1 C01     -0.085100
     29 C54         7.3700    0.0650   -0.0370 c3        1 C01     -0.085100
     30 O60         1.3260    3.1910    1.0570 o         1 C01     -0.811800
     31 O61         0.8160    2.1970    3.0010 o         1 C01     -0.811800
     32 H6         -4.1930    2.0180   -0.2170 ha        1 C01      0.146000
     33 H111       -5.0950   -3.0790   -1.6430 h1        1 C01      0.053700
     34 H112       -5.2880   -4.1840   -0.2080 h1        1 C01      0.053700
     35 H113       -6.5620   -2.9090   -0.5560 h1        1 C01      0.053700
     36 H161        0.5730   -1.5290    0.1690 hc        1 C01      0.063200
     37 H162       -0.5940   -2.4870    1.1750 hc        1 C01      0.063200
     38 H171       -1.6470   -3.3880   -0.9290 hc        1 C01      0.042200
     39 H172       -0.4790   -2.4290   -1.9210 hc        1 C01      0.042200
     40 H201        0.2870   -4.7900   -1.6600 hc        1 C01      0.029033
     41 H202        1.4410   -3.6520   -0.8490 hc        1 C01      0.029033
     42 H203        0.2730   -4.6150    0.1440 hc        1 C01      0.029033
     43 H261       -0.5810    3.0760    0.0280 hc        1 C01      0.091700
     44 H262       -2.2840    3.5920    0.3840 hc        1 C01      0.091700
     45 H271       -2.8760    3.3080   -2.0600 hc        1 C01      0.028200
     46 H272       -1.1720    2.8110   -2.4000 hc        1 C01      0.028200
     47 H301       -0.3570    5.0260   -1.5010 hc        1 C01      0.031033
     48 H302       -1.4840    5.2210   -2.9120 hc        1 C01      0.031033
     49 H303       -2.0730    5.5340   -1.2270 hc        1 C01      0.031033
     50 H37         0.5280    0.0430    1.7860 h1        1 C01      0.053700
     51 H40         2.3200   -1.4980    1.8420 ha        1 C01      0.153000
     52 H41         4.5990   -2.2140    1.1650 ha        1 C01      0.115000
     53 H43         5.0060    1.3510   -1.2460 ha        1 C01      0.115000
     54 H44         2.7090    2.0870   -0.5210 ha        1 C01      0.153000
     55 H49         6.5390   -1.9180   -0.0030 hc        1 C01      0.038700
     56 H501        5.6600   -1.8910   -2.3330 hc        1 C01      0.031033
     57 H502        6.2070   -0.1760   -2.5390 hc        1 C01      0.031033
     58 H503        7.4300   -1.4900   -2.2800 hc        1 C01      0.031033
     59 H541        7.3220    0.1900    1.0710 hc        1 C01      0.031033
     60 H542        8.3890   -0.2950   -0.3150 hc        1 C01      0.031033
     61 H543        7.2020    1.0620   -0.5120 hc        1 C01      0.031033
@<TRIPOS>BOND
     1    1    2 ar  
     2    1    6 ar  
     3    1   15 1   
     4    2    3 ar  
     5    2   18 1   
     6    3    4 ar  
     7    3   12 1   
     8    4    5 ar  
     9    4    7 1   
    10    5    6 ar  
    11    5    9 1   
    12    6   32 1   
    13    7    8 1   
    14    8    9 1   
    15    8   10 1   
    16    9   11 2   
    17   10   33 1   
    18   10   34 1   
    19   10   35 1   
    20   12   13 1   
    21   12   36 1   
    22   12   37 1   
    23   13   14 1   
    24   13   38 1   
    25   13   39 1   
    26   14   40 1   
    27   14   41 1   
    28   14   42 1   
    29   15   16 1   
    30   15   43 1   
    31   15   44 1   
    32   16   17 1   
    33   16   45 1   
    34   16   46 1   
    35   17   47 1   
    36   17   48 1   
    37   17   49 1   
    38   18   19 1   
    39   19   20 1   
    40   19   21 1   
    41   19   50 1   
    42   20   22 ar  
    43   20   26 ar  
    44   21   30 1   
    45   21   31 1   
    46   22   23 ar  
    47   22   51 1   
    48   23   24 ar  
    49   23   52 1   
    50   24   25 ar  
    51   24   27 1   
    52   25   26 ar  
    53   25   53 1   
    54   26   54 1   
    55   27   28 1   
    56   27   29 1   
    57   27   55 1   
    58   28   56 1   
    59   28   57 1   
    60   28   58 1   
    61   29   59 1   
    62   29   60 1   
    63   29   61 1   
@<TRIPOS>SUBSTRUCTURE
     1 C01         1 TEMP              0 ****  ****    0 ROOT
