@<TRIPOS>MOLECULE
C01
   61    55     1     0     0
SMALL
bcc


@<TRIPOS>ATOM
      1 C1         -1.9880   -0.4270    1.1230 c1        1 C01     -0.099000
      2 C2         -0.5690   -0.4130    1.1220 c1        1 C01      0.159000
      3 C3          0.1280   -0.4110    2.3330 c1        1 C01     -0.118000
      4 C4         -0.5890   -0.4220    3.5640 c1        1 C01     -0.083500
      5 C5         -1.9570   -0.4340    3.5580 c1        1 C01     -0.083500
      6 C6         -2.6740   -0.4370    2.3180 c1        1 C01     -0.022000
      7 O8         -0.1640   -0.4230    4.9020 o         1 C01     -0.074700
      8 N9         -1.2910   -0.4360    5.7090 n2        1 C01     -0.180300
      9 C10        -2.3980   -0.4430    4.8960 c1        1 C01      0.302000
     10 C11        -1.3030   -0.4800    7.1700 c2        1 C01     -0.139000
     11 O15        -3.5450   -0.4570    5.2630 o         1 C01     -0.309000
     12 C16         1.7080   -0.5600    2.6120 c3        1 C01     -0.117000
     13 C17         1.9890   -1.9360    3.2800 c3        1 C01     -0.156000
     14 C20         3.1080   -1.7880    4.3070 c3        1 C01     -0.209000
     15 C26        -3.0270   -0.4550   -0.0750 c3        1 C01     -0.138000
     16 C27        -3.8740   -1.7790   -0.0030 c3        1 C01     -0.141000
     17 C30        -5.2190   -1.5710   -0.7670 c3        1 C01     -0.218000
     18 O36        -0.1530   -0.2740   -0.2230 os        1 C01     -0.221000
     19 C37         0.2440    1.0240   -0.5620 c3        1 C01     -0.020000
     20 C38         0.9820    1.0010   -1.8850 c2        1 C01     -0.049000
     21 C39        -0.9920    1.9220   -0.6820 c2        1 C01      0.333000
     22 C40         1.7450    2.1530   -2.0810 c2        1 C01     -0.130000
     23 C41         2.3590    2.3860   -3.3140 c1        1 C01     -0.146000
     24 C42         2.2080    1.4530   -4.3670 c1        1 C01     -0.087000
     25 C43         1.4490    0.3060   -4.1740 c1        1 C01     -0.141000
     26 C44         0.8310    0.0720   -2.9340 c1        1 C01     -0.082000
     27 C49         2.9620    1.6520   -5.6650 c3        1 C01     -0.063000
     28 C50         3.5210    0.2890   -6.1560 c3        1 C01     -0.203500
     29 C54         2.0180    2.2150   -6.7240 c3        1 C01     -0.203500
     30 O60        -1.6890    1.8850   -1.7130 o         1 C01     -0.547500
     31 O61        -1.2370    2.7640    0.2040 o         1 C01     -0.547500
     32 H6         -3.6600   -0.4460    2.3210 ha        1 C01      0.146000
     33 H111       -0.3580   -0.5860    7.5120 ha        1 C01      0.093000
     34 H112       -1.6860    0.3530    7.5190 ha        1 C01      0.093000
     35 H113       -1.8350   -1.2240    7.4640 ha        1 C01      0.093000
     36 H161        2.0060    0.1640    3.2100 hc        1 C01      0.102500
     37 H162        2.1820   -0.5060    1.7870 hc        1 C01      0.102500
     38 H171        1.2200   -2.2360    3.7030 hc        1 C01      0.082000
     39 H172        2.2480   -2.5570    2.6220 hc        1 C01      0.082000
     40 H201        2.7830   -2.1320    5.2220 hc        1 C01      0.068333
     41 H202        3.9130   -2.3280    4.0080 hc        1 C01      0.068333
     42 H203        3.3580   -0.8420    4.3840 hc        1 C01      0.068333
     43 H261       -2.5400   -0.4210   -0.9340 hc        1 C01      0.118000
     44 H262       -3.6290    0.3230   -0.0100 hc        1 C01      0.118000
     45 H271       -4.0590   -1.9940    0.9200 hc        1 C01      0.070500
     46 H272       -3.3520   -2.5390   -0.4290 hc        1 C01      0.070500
     47 H301       -5.0410   -1.5070   -1.7430 hc        1 C01      0.076667
     48 H302       -5.6320   -0.7620   -0.4650 hc        1 C01      0.076667
     49 H303       -5.8160   -2.3280   -0.5920 hc        1 C01      0.076667
     50 H37         0.8720    1.3970    0.1750 h1        1 C01      0.093000
     51 H40         1.8490    2.7960   -1.3600 ha        1 C01      0.125000
     52 H41         2.9060    3.2140   -3.4510 ha        1 C01      0.112000
     53 H43         1.3400   -0.3590   -4.9240 ha        1 C01      0.119000
     54 H44         0.2870   -0.7480   -2.7970 ha        1 C01      0.181000
     55 H49         3.7150    2.2870   -5.5160 hc        1 C01      0.078000
     56 H501        4.0140   -0.1450   -5.4300 hc        1 C01      0.070333
     57 H502        2.7520   -0.3070   -6.4470 hc        1 C01      0.070333
     58 H503        4.1180    0.4380   -6.9110 hc        1 C01      0.070333
     59 H541        1.4510    2.9060   -6.3240 hc        1 C01      0.070333
     60 H542        1.4530    1.4930   -7.0750 hc        1 C01      0.070333
     61 H543        2.5590    2.6170   -7.4790 hc        1 C01      0.070333
@<TRIPOS>BOND
     1    1    6 1   
     2    1   15 1   
     3    2    3 1   
     4    2   18 1   
     5    3   12 1   
     6    4    5 1   
     7    6   32 1   
     8    7    8 2   
     9    8    9 1   
    10    9   11 1   
    11   10   33 1   
    12   10   34 1   
    13   10   35 1   
    14   12   13 1   
    15   12   36 1   
    16   12   37 1   
    17   13   14 1   
    18   13   38 1   
    19   13   39 1   
    20   14   40 1   
    21   14   41 1   
    22   14   42 1   
    23   15   16 1   
    24   15   43 1   
    25   15   44 1   
    26   16   17 1   
    27   16   45 1   
    28   16   46 1   
    29   17   47 1   
    30   17   48 1   
    31   17   49 1   
    32   18   19 1   
    33   19   20 1   
    34   19   21 1   
    35   19   50 1   
    36   20   22 1   
    37   20   26 1   
    38   21   30 1   
    39   21   31 1   
    40   22   23 1   
    41   22   51 1   
    42   23   52 1   
    43   24   25 1   
    44   24   27 1   
    45   25   53 1   
    46   26   54 1   
    47   27   28 1   
    48   27   29 1   
    49   27   55 1   
    50   28   56 1   
    51   28   57 1   
    52   28   58 1   
    53   29   59 1   
    54   29   60 1   
    55   29   61 1   
@<TRIPOS>SUBSTRUCTURE
     1 C01         1 TEMP              0 ****  ****    0 ROOT
