@<TRIPOS>MOLECULE
C02
   51    42     1     0     0
SMALL
bcc


@<TRIPOS>ATOM
      1 N1         -4.0160   -2.4190    4.6890 n1        1 C02     -0.296000
      2 C2         -3.5790   -3.5320    4.2120 c1        1 C02      0.129000
      3 N3         -4.3030   -4.7460    4.4490 n2        1 C02     -0.399000
      4 C4         -2.2940   -3.5600    3.3970 c2        1 C02     -0.055000
      5 C5         -2.3390   -3.3550    2.0190 c2        1 C02     -0.106000
      6 C6         -1.1820   -3.4080    1.2780 c1        1 C02     -0.120000
      7 C7          0.0240   -3.6640    1.9000 c1        1 C02     -0.075000
      8 C8          0.0670   -3.8670    3.2690 c1        1 C02     -0.142000
      9 C9         -1.0970   -3.8130    4.0140 c1        1 C02     -0.090000
     10 C10         1.3150   -3.7280    1.0770 c3        1 C02     -0.064000
     11 C11         1.7840   -2.3180    0.7590 c2        1 C02      0.024000
     12 N12         0.9600   -1.7160   -0.1840 n2        1 C02     -0.149000
     13 C13         1.4330   -0.4700   -0.4220 c1        1 C02     -0.052000
     14 C14         2.5540   -0.2770    0.3660 c1        1 C02     -0.042000
     15 N15         2.7610   -1.4320    1.0940 n1        1 C02     -0.183000
     16 C16         3.9890   -1.7410    1.7460 c2        1 C02     -0.072000
     17 C17         3.1860    0.9710    0.3810 c1        1 C02     -0.101000
     18 C18         2.6880    2.0030   -0.3890 c1        1 C02     -0.155000
     19 C19         1.5470    1.7980   -1.1870 c1        1 C02      0.055000
     20 C20         0.9320    0.5780   -1.2010 c1        1 C02     -0.109000
     21 N21         0.7440    2.4340   -2.2260 n3        1 C02     -0.835000
     22 S22         0.0830    3.9060   -1.9510 s4        1 C02      2.085800
     23 C23        -0.4520    4.6340   -3.4680 c1        1 C02     -0.833000
     24 C24        -0.2290    5.9720   -3.7020 c2        1 C02     -0.012000
     25 C25        -0.6760    6.5470   -4.8560 c1        1 C02     -0.158000
     26 C26        -1.3620    5.7760   -5.8040 c1        1 C02     -0.110500
     27 C27        -1.5830    4.4610   -5.5760 c1        1 C02     -0.110500
     28 C28        -1.1270    3.8740   -4.4000 c1        1 C02     -0.017000
     29 O29        -0.9910    3.8250   -1.0100 o         1 C02     -0.543400
     30 O30         1.0270    4.7880   -1.2370 o         1 C02     -0.543400
     31 HN1        -4.7780   -2.4030    5.1720 DU        1 C02      0.139000
     32 HN31       -5.0440   -4.7410    5.0080 hn        1 C02      0.196000
     33 HN32       -3.9840   -5.5480    4.1110 hn        1 C02      0.196000
     34 H5         -3.2100   -3.1700    1.5710 ha        1 C02      0.148000
     35 H6         -1.2160   -3.2590    0.2690 ha        1 C02      0.154000
     36 H8          0.9240   -4.0490    3.7100 ha        1 C02      0.133000
     37 H9         -1.0650   -3.9620    5.0160 ha        1 C02      0.150000
     38 H101        1.1420   -4.2220    0.2250 hc        1 C02      0.117500
     39 H102        2.0300   -4.2100    1.6080 hc        1 C02      0.117500
     40 H161        3.9960   -2.6520    1.9860 ha        1 C02      0.095000
     41 H162        4.0780   -1.1990    2.5380 ha        1 C02      0.095000
     42 H163        4.7570   -1.5530    1.1220 ha        1 C02      0.095000
     43 H17         4.0080    1.1180    0.9570 ha        1 C02      0.141000
     44 H18         3.1300    2.8810   -0.3800 ha        1 C02      0.168000
     45 H20         0.1240    0.4350   -1.7670 ha        1 C02      0.148000
     46 H21N        0.5450    1.9740   -3.0100 hn        1 C02      0.246000
     47 H24         0.2530    6.5140   -3.0380 ha        1 C02      0.156000
     48 H25        -0.5220    7.4720   -5.0160 ha        1 C02      0.143000
     49 H26        -1.6850    6.1940   -6.6410 ha        1 C02      0.140500
     50 H27        -2.0640    3.9210   -6.2420 ha        1 C02      0.140500
     51 H28        -1.2840    2.9370   -4.2360 ha        1 C02      0.159000
@<TRIPOS>BOND
     1    1    2 1   
     2    2    4 1   
     3    3   32 1   
     4    3   33 1   
     5    4    5 1   
     6    4    9 1   
     7    5    6 1   
     8    5   34 1   
     9    6   35 1   
    10    7    8 1   
    11    7   10 1   
    12    8   36 1   
    13    9   37 1   
    14   10   11 1   
    15   10   38 1   
    16   10   39 1   
    17   11   12 1   
    18   11   15 1   
    19   12   13 1   
    20   13   20 1   
    21   14   17 1   
    22   16   40 1   
    23   16   41 1   
    24   16   42 1   
    25   17   43 1   
    26   18   19 1   
    27   18   44 1   
    28   19   21 1   
    29   20   45 1   
    30   21   22 1   
    31   21   46 1   
    32   22   29 1   
    33   22   30 1   
    34   23   24 1   
    35   23   28 1   
    36   24   25 1   
    37   24   47 1   
    38   25   48 1   
    39   26   27 1   
    40   26   49 1   
    41   27   50 1   
    42   28   51 1   
@<TRIPOS>SUBSTRUCTURE
     1 C02         1 TEMP              0 ****  ****    0 ROOT
