@<TRIPOS>MOLECULE
C02
   52    55     1     0     0
SMALL
bcc


@<TRIPOS>ATOM
      1 N1         -0.7990   -0.9890   -1.2910 n2        1 C02     -0.673100
      2 C2          0.0080   -0.0190   -1.3230 ce        1 C02      0.638800
      3 N3         -0.2670    1.3870   -0.7590 n4        1 C02     -0.895600
      4 C4          1.3620   -0.0380   -1.9190 ca        1 C02     -0.225900
      5 C5          1.5020   -0.1900   -3.3030 ca        1 C02     -0.087000
      6 C6          2.7760   -0.1830   -3.8650 ca        1 C02     -0.100000
      7 C7          3.9080   -0.0320   -3.0540 ca        1 C02     -0.000300
      8 C8          3.7570    0.0840   -1.6650 ca        1 C02     -0.100000
      9 C9          2.4880    0.0820   -1.0940 ca        1 C02     -0.087000
     10 C10         5.2660    0.0150   -3.6680 c3        1 C02     -0.060400
     11 C11         5.5350    1.3450   -4.3020 cc        1 C02      0.401800
     12 N12         4.6030    2.2740   -4.6120 nd        1 C02     -0.590100
     13 C13         5.3120    3.3410   -5.1940 ca        1 C02      0.092400
     14 C14         6.7250    3.0200   -5.2250 ca        1 C02     -0.092200
     15 N15         6.8460    1.7410   -4.6600 na        1 C02     -0.154300
     16 C16         8.0450    1.0050   -4.4460 c3        1 C02      0.027600
     17 C17         7.6540    3.9270   -5.7460 ca        1 C02     -0.093000
     18 C18         7.1890    5.1350   -6.2310 ca        1 C02     -0.159000
     19 C19         5.8010    5.4680   -6.2260 ca        1 C02      0.175600
     20 C20         4.8610    4.5630   -5.7050 ca        1 C02     -0.135000
     21 N21         5.3580    6.7030   -6.7230 nh        1 C02     -0.770500
     22 S22         6.1030    7.7690   -7.7260 sy        1 C02      1.519200
     23 C23         5.9070    7.0770   -9.2410 ca        1 C02     -0.400500
     24 C24         4.7790    7.3740  -10.0190 ca        1 C02     -0.011500
     25 C25         4.6280    6.8360  -11.2940 ca        1 C02     -0.155500
     26 C26         5.6100    5.9900  -11.8120 ca        1 C02     -0.057000
     27 C27         6.7420    5.6890  -11.0530 ca        1 C02     -0.155500
     28 C28         6.8860    6.2310   -9.7790 ca        1 C02     -0.011500
     29 O29         5.3450    8.9560   -7.6550 o         1 C02     -0.644800
     30 O30         7.4760    7.8550   -7.4360 o         1 C02     -0.644800
     31 HN1        -1.7160   -0.9500   -0.9010 hn        1 C02      0.462400
     32 HN31        0.5200    1.6520   -0.1570 hn        1 C02      0.456467
     33 HN32       -0.3080    2.0470   -1.5430 hn        1 C02      0.456467
     34 H5          0.6170   -0.3180   -3.9460 ha        1 C02      0.145000
     35 H6          2.8940   -0.2770   -4.9580 ha        1 C02      0.165500
     36 H8          4.6450    0.1830   -1.0200 ha        1 C02      0.165500
     37 H9          2.3830    0.1510   -0.0010 ha        1 C02      0.145000
     38 H101        6.0520   -0.1930   -2.8910 hc        1 C02      0.081200
     39 H102        5.3530   -0.7810   -4.4610 hc        1 C02      0.081200
     40 H161        7.9110   -0.0530   -4.7990 h1        1 C02      0.057367
     41 H162        8.3060    0.9910   -3.3520 h1        1 C02      0.057367
     42 H163        8.8870    1.4810   -5.0160 h1        1 C02      0.057367
     43 H17         8.7290    3.6960   -5.7630 ha        1 C02      0.147000
     44 H18         7.9300    5.8620   -6.6140 ha        1 C02      0.178000
     45 H20         3.7860    4.7950   -5.6860 ha        1 C02      0.144000
     46 H21N        4.4330    6.9250   -6.4230 hn        1 C02      0.449800
     47 H24         4.0140    8.0630   -9.6190 ha        1 C02      0.152000
     48 H25         3.7400    7.0840  -11.8950 ha        1 C02      0.146000
     49 H26         5.4950    5.5660  -12.8220 ha        1 C02      0.143000
     50 H27         7.5220    5.0310  -11.4630 ha        1 C02      0.146000
     51 H28         7.7900    6.0080   -9.1850 ha        1 C02      0.152000
     52 H33        -1.1350    1.4450   -0.2250 hn        1 C02      0.456467
@<TRIPOS>BOND
     1    1    2 2   
     2    1   31 1   
     3    2    3 1   
     4    2    4 1   
     5    3   32 1   
     6    3   33 1   
     7    3   52 1   
     8    4    5 ar  
     9    4    9 ar  
    10    5    6 ar  
    11    5   34 1   
    12    6    7 ar  
    13    6   35 1   
    14    7    8 ar  
    15    7   10 1   
    16    8    9 ar  
    17    8   36 1   
    18    9   37 1   
    19   10   11 1   
    20   10   38 1   
    21   10   39 1   
    22   11   12 2   
    23   11   15 1   
    24   12   13 1   
    25   13   14 ar  
    26   13   20 ar  
    27   14   15 1   
    28   14   17 ar  
    29   15   16 1   
    30   16   40 1   
    31   16   41 1   
    32   16   42 1   
    33   17   18 ar  
    34   17   43 1   
    35   18   19 ar  
    36   18   44 1   
    37   19   20 ar  
    38   19   21 1   
    39   20   45 1   
    40   21   22 1   
    41   21   46 1   
    42   22   23 1   
    43   22   29 2   
    44   22   30 2   
    45   23   24 ar  
    46   23   28 ar  
    47   24   25 ar  
    48   24   47 1   
    49   25   26 ar  
    50   25   48 1   
    51   26   27 ar  
    52   26   49 1   
    53   27   28 ar  
    54   27   50 1   
    55   28   51 1   
@<TRIPOS>SUBSTRUCTURE
     1 C02         1 TEMP              0 ****  ****    0 ROOT
