@<TRIPOS>MOLECULE
C02
   53    55     1     0     0
SMALL
bcc


@<TRIPOS>ATOM
      1 N1         -0.3190    0.3830   -0.5310 n2        1 C02     -0.667100
      2 C2          0.6320   -0.4360   -0.6760 ce        1 C02      0.628800
      3 N3          0.7090   -1.8300   -0.0390 n4        1 C02     -0.890600
      4 C4          1.8370   -0.1910   -1.5040 ca        1 C02     -0.212900
      5 C5          1.6900    0.0250   -2.8790 ca        1 C02     -0.084000
      6 C6          2.8160    0.2910   -3.6570 ca        1 C02     -0.109000
      7 C7          4.0860    0.3550   -3.0690 ca        1 C02     -0.031300
      8 C8          4.2180    0.1530   -1.6880 ca        1 C02     -0.109000
      9 C9          3.1000   -0.1170   -0.9030 ca        1 C02     -0.084000
     10 C10         5.2950    0.5950   -3.9090 c3        1 C02     -0.064400
     11 C11         5.3160    1.9760   -4.4900 cc        1 C02      0.429800
     12 N12         4.5730    2.3790   -5.5450 nd        1 C02     -0.561100
     13 C13         4.9310    3.7200   -5.7710 ca        1 C02      0.073400
     14 C14         5.9330    4.1230   -4.7960 ca        1 C02     -0.051200
     15 N15         6.1550    3.0060   -3.9870 na        1 C02     -0.147300
     16 C16         7.1020    2.8950   -2.9250 c3        1 C02      0.019600
     17 C17         6.4590    5.4210   -4.8010 ca        1 C02     -0.096000
     18 C18         6.0000    6.3060   -5.7600 ca        1 C02     -0.105000
     19 C19         5.0270    5.9230   -6.7230 ca        1 C02     -0.032400
     20 C20         4.4800    4.6340   -6.7290 ca        1 C02     -0.065000
     21 N21         4.5980    6.8970   -7.6960 nh        1 C02     -0.876200
     22 S22         6.2150    7.7950   -8.9880 s4        1 C02      1.656300
     23 C23         6.1520    6.7320  -10.1450 ca        1 C02     -0.587500
     24 C24         5.2960    6.9150  -11.2610 ca        1 C02      0.023500
     25 C25         5.2840    6.0150  -12.3140 ca        1 C02     -0.150000
     26 C26         6.1280    4.8970  -12.2900 ca        1 C02      0.021000
     27 C27         6.9790    4.6890  -11.1990 ca        1 C02     -0.150000
     28 C28         6.9910    5.5900  -10.1460 ca        1 C02      0.023500
     29 O29         5.5120    8.9490   -9.1740 o         1 C02     -0.437400
     30 O30         7.2380    7.7030   -8.0960 o         1 C02     -0.437400
     31 HN1        -1.1370    0.2140    0.0140 hn        1 C02      0.469400
     32 HN31       -0.0140   -1.9850    0.6680 hn        1 C02      0.460133
     33 HN32        1.6310   -1.9430    0.3950 hn        1 C02      0.460133
     34 H5          0.6940   -0.0030   -3.3480 ha        1 C02      0.151000
     35 H6          2.7030    0.4620   -4.7420 ha        1 C02      0.169000
     36 H8          5.2120    0.2130   -1.2140 ha        1 C02      0.169000
     37 H9          3.2200   -0.2400    0.1840 ha        1 C02      0.151000
     38 H101        5.3030   -0.1450   -4.7600 hc        1 C02      0.093200
     39 H102        6.2290    0.4190   -3.3070 hc        1 C02      0.093200
     40 H161        6.6080    2.4460   -2.0220 h1        1 C02      0.066367
     41 H162        7.4920    3.9140   -2.6610 h1        1 C02      0.066367
     42 H163        7.9630    2.2420   -3.2360 h1        1 C02      0.066367
     43 H17         7.2160    5.7360   -4.0670 ha        1 C02      0.165000
     44 H18         6.4190    7.3280   -5.7750 ha        1 C02      0.162000
     45 H20         3.7120    4.3240   -7.4550 ha        1 C02      0.159000
     46 H21N        3.8950    6.4930   -8.2980 hn        1 C02      0.415300
     47 H24         4.6390    7.8060  -11.2950 ha        1 C02      0.172000
     48 H25         4.6170    6.1830  -13.1770 ha        1 C02      0.180500
     49 H26         6.1240    4.1840  -13.1340 ha        1 C02      0.178000
     50 H27         7.6480    3.8120  -11.1820 ha        1 C02      0.180500
     51 H28         7.6770    5.4270   -9.2920 ha        1 C02      0.172000
     52 H33         0.6090   -2.5340   -0.7770 hn        1 C02      0.460133
     53 H212        4.1840    7.6860   -7.2140 hn        1 C02      0.415300
@<TRIPOS>BOND
     1    1    2 2   
     2    1   31 1   
     3    2    3 1   
     4    2    4 1   
     5    3   32 1   
     6    3   33 1   
     7    3   52 1   
     8    4    5 ar  
     9    4    9 ar  
    10    5    6 ar  
    11    5   34 1   
    12    6    7 ar  
    13    6   35 1   
    14    7    8 ar  
    15    7   10 1   
    16    8    9 ar  
    17    8   36 1   
    18    9   37 1   
    19   10   11 1   
    20   10   38 1   
    21   10   39 1   
    22   11   12 2   
    23   11   15 1   
    24   12   13 1   
    25   13   14 ar  
    26   13   20 ar  
    27   14   15 1   
    28   14   17 ar  
    29   15   16 1   
    30   16   40 1   
    31   16   41 1   
    32   16   42 1   
    33   17   18 ar  
    34   17   43 1   
    35   18   19 ar  
    36   18   44 1   
    37   19   20 ar  
    38   19   21 1   
    39   20   45 1   
    40   21   46 1   
    41   21   53 1   
    42   22   23 1   
    43   22   29 1   
    44   22   30 1   
    45   23   24 ar  
    46   23   28 ar  
    47   24   25 ar  
    48   24   47 1   
    49   25   26 ar  
    50   25   48 1   
    51   26   27 ar  
    52   26   49 1   
    53   27   28 ar  
    54   27   50 1   
    55   28   51 1   
@<TRIPOS>SUBSTRUCTURE
     1 C02         1 TEMP              0 ****  ****    0 ROOT
