@<TRIPOS>MOLECULE
C02
   52    55     1     0     0
SMALL
bcc


@<TRIPOS>ATOM
      1 N1         -0.7690   -0.9560   -1.2250 n2        1 C02     -0.673100
      2 C2          0.0460    0.0080   -1.2690 ce        1 C02      0.638800
      3 N3         -0.2100    1.4160   -0.7020 nz        1 C02     -0.895600
      4 C4          1.3910   -0.0220   -1.8840 ca        1 C02     -0.225900
      5 C5          1.5100   -0.1750   -3.2700 ca        1 C02     -0.087000
      6 C6          2.7760   -0.1770   -3.8510 ca        1 C02     -0.100500
      7 C7          3.9210   -0.0350   -3.0560 ca        1 C02     -0.000300
      8 C8          3.7900    0.0810   -1.6650 ca        1 C02     -0.100500
      9 C9          2.5300    0.0890   -1.0760 ca        1 C02     -0.087000
     10 C10         5.2690    0.0020   -3.6900 c3        1 C02     -0.060400
     11 C11         5.5420    1.3320   -4.3220 cc        1 C02      0.401800
     12 N12         4.6140    2.2730   -4.6080 nd        1 C02     -0.590100
     13 C13         5.3250    3.3350   -5.2000 ca        1 C02      0.092400
     14 C14         6.7330    2.9970   -5.2610 ca        1 C02     -0.092200
     15 N15         6.8500    1.7140   -4.7050 na        1 C02     -0.154300
     16 C16         8.0440    0.9630   -4.5180 c3        1 C02      0.027600
     17 C17         7.6620    3.8950   -5.7960 ca        1 C02     -0.093000
     18 C18         7.2020    5.1120   -6.2650 ca        1 C02     -0.158000
     19 C19         5.8180    5.4620   -6.2300 ca        1 C02      0.174600
     20 C20         4.8780    4.5650   -5.6940 ca        1 C02     -0.134000
     21 N21         5.3810    6.7050   -6.7110 nu        1 C02     -0.770500
     22 S22         6.1170    7.7650   -7.7270 sy        1 C02      1.519200
     23 C23         5.8760    7.0810   -9.2400 ca        1 C02     -0.400500
     24 C24         4.7360    7.3970   -9.9910 ca        1 C02     -0.011500
     25 C25         4.5480    6.8670  -11.2640 ca        1 C02     -0.155500
     26 C26         5.5060    6.0090  -11.8080 ca        1 C02     -0.057000
     27 C27         6.6510    5.6890  -11.0760 ca        1 C02     -0.155500
     28 C28         6.8310    6.2240   -9.8030 ca        1 C02     -0.011500
     29 O29         5.3760    8.9610   -7.6350 o         1 C02     -0.644800
     30 O30         7.4970    7.8320   -7.4680 o         1 C02     -0.644800
     31 HN1        -1.6790   -0.9100   -0.8220 hn        1 C02      0.462400
     32 HN31        0.5870    1.6750   -0.1110 hn        1 C02      0.456467
     33 HN32       -0.2560    2.0760   -1.4850 hn        1 C02      0.456467
     34 H5          0.6150   -0.2950   -3.9010 ha        1 C02      0.145000
     35 H6          2.8770   -0.2710   -4.9450 ha        1 C02      0.165500
     36 H8          4.6880    0.1730   -1.0320 ha        1 C02      0.165500
     37 H9          2.4410    0.1580    0.0190 ha        1 C02      0.145000
     38 H101        5.3380   -0.7920   -4.4860 hc        1 C02      0.081200
     39 H102        6.0650   -0.2160   -2.9240 hc        1 C02      0.081200
     40 H161        7.8900   -0.0930   -4.8720 h1        1 C02      0.057367
     41 H162        8.3270    0.9420   -3.4290 h1        1 C02      0.057367
     42 H163        8.8800    1.4310   -5.1030 h1        1 C02      0.057367
     43 H17         8.7340    3.6510   -5.8370 ha        1 C02      0.147000
     44 H18         7.9440    5.8320   -6.6600 ha        1 C02      0.178000
     45 H20         3.8070    4.8110   -5.6520 ha        1 C02      0.144000
     46 H21N        4.4660    6.9370   -6.3890 hn        1 C02      0.449800
     47 H24         3.9900    8.0950   -9.5710 ha        1 C02      0.152000
     48 H25         3.6510    7.1300  -11.8440 ha        1 C02      0.146000
     49 H26         5.3620    5.5910  -12.8160 ha        1 C02      0.143000
     50 H27         7.4130    5.0220  -11.5060 ha        1 C02      0.146000
     51 H28         7.7450    5.9870   -9.2300 ha        1 C02      0.152000
     52 H33        -1.0700    1.4810   -0.1560 hn        1 C02      0.456467
@<TRIPOS>BOND
     1    1    2 2   
     2    1   31 1   
     3    2    3 1   
     4    2    4 1   
     5    3   32 1   
     6    3   33 1   
     7    3   52 1   
     8    4    5 ar  
     9    4    9 ar  
    10    5    6 ar  
    11    5   34 1   
    12    6    7 ar  
    13    6   35 1   
    14    7    8 ar  
    15    7   10 1   
    16    8    9 ar  
    17    8   36 1   
    18    9   37 1   
    19   10   11 1   
    20   10   38 1   
    21   10   39 1   
    22   11   12 2   
    23   11   15 1   
    24   12   13 1   
    25   13   14 ar  
    26   13   20 ar  
    27   14   15 1   
    28   14   17 ar  
    29   15   16 1   
    30   16   40 1   
    31   16   41 1   
    32   16   42 1   
    33   17   18 ar  
    34   17   43 1   
    35   18   19 ar  
    36   18   44 1   
    37   19   20 ar  
    38   19   21 1   
    39   20   45 1   
    40   21   22 1   
    41   21   46 1   
    42   22   23 1   
    43   22   29 2   
    44   22   30 2   
    45   23   24 ar  
    46   23   28 ar  
    47   24   25 ar  
    48   24   47 1   
    49   25   26 ar  
    50   25   48 1   
    51   26   27 ar  
    52   26   49 1   
    53   27   28 ar  
    54   27   50 1   
    55   28   51 1   
@<TRIPOS>SUBSTRUCTURE
     1 C02         1 TEMP              0 ****  ****    0 ROOT
