@<TRIPOS>MOLECULE
C02
   51    54     1     0     0
SMALL
bcc


@<TRIPOS>ATOM
      1 N1         -1.4750   -1.1070    8.4350 n2        1 C02     -0.822100
      2 C2         -1.1320   -0.0550    7.7570 ce        1 C02      0.647800
      3 N3         -1.3980    1.2960    8.0760 nh        1 C02     -0.956800
      4 C4         -0.2920   -0.2410    6.5300 ca        1 C02     -0.136900
      5 C5         -0.6920   -1.1510    5.5460 ca        1 C02     -0.098000
      6 C6          0.0880   -1.3260    4.4050 ca        1 C02     -0.129000
      7 C7          1.2740   -0.6000    4.2400 ca        1 C02     -0.081300
      8 C8          1.6740    0.3010    5.2340 ca        1 C02     -0.129000
      9 C9          0.8960    0.4810    6.3760 ca        1 C02     -0.098000
     10 C10         2.1210   -0.8160    3.0330 c3        1 C02     -0.053400
     11 C11         1.4040   -0.4330    1.7750 cc        1 C02      0.428800
     12 N12         0.8160   -1.2980    0.9200 nd        1 C02     -0.571100
     13 C13         0.2760   -0.5060   -0.1110 ca        1 C02      0.085400
     14 C14         0.5610    0.8920    0.1540 ca        1 C02     -0.084200
     15 N15         1.2730    0.9180    1.3610 na        1 C02     -0.162300
     16 C16         1.7990    2.0680    2.0120 c3        1 C02      0.029600
     17 C17         0.1250    1.8910   -0.7220 ca        1 C02     -0.110000
     18 C18        -0.5870    1.5120   -1.8450 ca        1 C02     -0.149000
     19 C19        -0.8690    0.1450   -2.1300 ca        1 C02      0.132600
     20 C20        -0.4360   -0.8680   -1.2590 ca        1 C02     -0.104000
     21 N21        -1.6050   -0.2010   -3.2800 nh        1 C02     -0.779500
     22 S22        -1.5100    0.4550   -4.7670 sy        1 C02      1.516200
     23 C23        -0.0480   -0.1270   -5.3650 ca        1 C02     -0.388500
     24 C24         0.0050   -1.3520   -6.0430 ca        1 C02     -0.012000
     25 C25         1.2050   -1.8300   -6.5620 ca        1 C02     -0.157000
     26 C26         2.3750   -1.0840   -6.4100 ca        1 C02     -0.063000
     27 C27         2.3370    0.1420   -5.7440 ca        1 C02     -0.157000
     28 C28         1.1330    0.6140   -5.2280 ca        1 C02     -0.012000
     29 O29        -2.5670   -0.0990   -5.5250 o         1 C02     -0.652800
     30 O30        -1.4440    1.8610   -4.7040 o         1 C02     -0.652800
     31 HN1        -2.0340   -0.9520    9.2470 hn        1 C02      0.384400
     32 HN31       -2.1790    1.4690    8.6650 hn        1 C02      0.398300
     33 HN32       -1.3080    1.9360    7.3210 hn        1 C02      0.398300
     34 H5         -1.6140   -1.7370    5.6770 ha        1 C02      0.148500
     35 H6         -0.2250   -2.0390    3.6260 ha        1 C02      0.142000
     36 H8          2.6130    0.8630    5.1230 ha        1 C02      0.142000
     37 H9          1.2260    1.1800    7.1590 ha        1 C02      0.148500
     38 H101        2.4040   -1.9040    2.9720 hc        1 C02      0.078200
     39 H102        3.0740   -0.2230    3.1080 hc        1 C02      0.078200
     40 H161        2.8660    2.2420    1.7040 h1        1 C02      0.053700
     41 H162        1.1900    2.9700    1.7360 h1        1 C02      0.053700
     42 H163        1.7610    1.9190    3.1260 h1        1 C02      0.053700
     43 H17         0.3340    2.9520   -0.5230 ha        1 C02      0.140000
     44 H18        -0.9440    2.2990   -2.5350 ha        1 C02      0.171000
     45 H20        -0.6510   -1.9290   -1.4540 ha        1 C02      0.151000
     46 H21N       -2.1950   -0.9920   -3.1340 hn        1 C02      0.455800
     47 H24        -0.9240   -1.9330   -6.1810 ha        1 C02      0.152500
     48 H25         1.2300   -2.7930   -7.0930 ha        1 C02      0.141500
     49 H26         3.3250   -1.4600   -6.8170 ha        1 C02      0.137000
     50 H27         3.2550    0.7360   -5.6280 ha        1 C02      0.141500
     51 H28         1.0990    1.5910   -4.7130 ha        1 C02      0.152500
@<TRIPOS>BOND
     1    1    2 2   
     2    1   31 1   
     3    2    3 1   
     4    2    4 1   
     5    3   32 1   
     6    3   33 1   
     7    4    5 ar  
     8    4    9 ar  
     9    5    6 ar  
    10    5   34 1   
    11    6    7 ar  
    12    6   35 1   
    13    7    8 ar  
    14    7   10 1   
    15    8    9 ar  
    16    8   36 1   
    17    9   37 1   
    18   10   11 1   
    19   10   38 1   
    20   10   39 1   
    21   11   12 2   
    22   11   15 1   
    23   12   13 1   
    24   13   14 ar  
    25   13   20 ar  
    26   14   15 1   
    27   14   17 ar  
    28   15   16 1   
    29   16   40 1   
    30   16   41 1   
    31   16   42 1   
    32   17   18 ar  
    33   17   43 1   
    34   18   19 ar  
    35   18   44 1   
    36   19   20 ar  
    37   19   21 1   
    38   20   45 1   
    39   21   22 1   
    40   21   46 1   
    41   22   23 1   
    42   22   29 2   
    43   22   30 2   
    44   23   24 ar  
    45   23   28 ar  
    46   24   25 ar  
    47   24   47 1   
    48   25   26 ar  
    49   25   48 1   
    50   26   27 ar  
    51   26   49 1   
    52   27   28 ar  
    53   27   50 1   
    54   28   51 1   
@<TRIPOS>SUBSTRUCTURE
     1 C02         1 TEMP              0 ****  ****    0 ROOT
