@<TRIPOS>MOLECULE
C03
   61    65     1     0     0
SMALL
bcc


@<TRIPOS>ATOM
      1 C1         -5.1300  -12.7480   -0.0760 ca        1 C03     -0.153000
      2 C2         -6.3270  -13.1750   -0.6210 ca        1 C03     -0.100000
      3 C3         -7.0090  -12.3430   -1.5120 ca        1 C03     -0.081800
      4 C4         -6.4740  -11.0380   -1.8280 ca        1 C03     -0.026200
      5 C5         -5.2680  -10.5880   -1.2640 ca        1 C03     -0.156000
      6 C6         -4.6120  -11.4750   -0.4150 ca        1 C03      0.126100
      7 C10        -8.2440  -12.4730   -2.2550 cc        1 C03     -0.227800
      8 C11        -8.4220  -11.2810   -2.9830 cd        1 C03      0.023700
      9 N12        -7.3480  -10.4160   -2.7370 na        1 C03     -0.051400
     10 C13        -9.1090  -13.6150   -2.2380 cc        1 C03      0.501200
     11 C14        -9.5320  -10.9540   -3.8990 c3        1 C03     -0.054900
     12 C18        -7.1160   -9.1510   -3.3850 c3        1 C03      0.082600
     13 O19        -3.3440  -11.2370    0.1030 os        1 C03     -0.402900
     14 C20        -2.9780   -9.9370    0.5140 c3        1 C03      0.836700
     15 F21        -2.6550   -9.1770   -0.5520 f         1 C03     -0.201967
     16 F22        -1.8490  -10.1530    1.2470 f         1 C03     -0.201967
     17 F23        -3.9070   -9.3780    1.3170 f         1 C03     -0.201967
     18 C24        -7.7860   -7.9620   -2.7520 ca        1 C03     -0.076300
     19 C27        -7.2970   -7.5290   -1.5190 ca        1 C03     -0.176000
     20 C28        -7.7920   -6.3550   -0.9310 ca        1 C03      0.178100
     21 C29        -8.8230   -5.6320   -1.5690 ca        1 C03     -0.168000
     22 C30        -9.3210   -6.0780   -2.7840 ca        1 C03     -0.105000
     23 C31        -8.8040   -7.2340   -3.3810 ca        1 C03     -0.026600
     24 CL1        -9.4380   -7.6910   -4.9040 cl        1 C03     -0.144400
     25 O36        -7.3590   -5.8290    0.2520 os        1 C03     -0.322900
     26 C37        -6.2460   -6.4860    0.9070 c3        1 C03      0.010100
     27 C38        -6.0470   -5.7030    2.1880 c3        1 C03     -0.081100
     28 C42        -4.9440   -6.4770    0.0540 c         1 C03      0.905600
     29 O44        -4.5180   -7.6100   -0.3240 o         1 C03     -0.828300
     30 O45        -4.3780   -5.3830   -0.1850 o         1 C03     -0.828300
     31 N46       -10.4540  -13.5990   -2.1620 nd        1 C03     -0.424200
     32 O47       -10.9460  -14.8390   -2.1770 os        1 C03     -0.025600
     33 C48        -9.8850  -15.7570   -2.2610 ca        1 C03      0.079100
     34 C49        -8.6640  -15.0210   -2.3050 ca        1 C03     -0.246900
     35 C50        -9.9550  -17.1420   -2.3080 ca        1 C03     -0.212000
     36 C51        -8.7200  -17.7980   -2.4120 ca        1 C03      0.151100
     37 C52        -7.4910  -17.0970   -2.4690 ca        1 C03     -0.189000
     38 C53        -7.4600  -15.7080   -2.4160 ca        1 C03     -0.024000
     39 O57        -8.5890  -19.1720   -2.4730 os        1 C03     -0.326900
     40 C58        -9.7960  -19.9210   -2.4010 c3        1 C03      0.112700
     41 H1         -4.5640  -13.3820    0.6200 ha        1 C03      0.141000
     42 H2         -6.7480  -14.1550   -0.3540 ha        1 C03      0.134000
     43 H5         -4.8730   -9.5660   -1.4320 ha        1 C03      0.213000
     44 H141       -9.1530  -10.5300   -4.8640 hc        1 C03      0.062367
     45 H142      -10.1270  -11.8710   -4.1280 hc        1 C03      0.062367
     46 H143      -10.2080  -10.1960   -3.4270 hc        1 C03      0.062367
     47 H181       -7.4390   -9.2490   -4.4610 h1        1 C03      0.078200
     48 H182       -6.0000   -8.9600   -3.3650 h1        1 C03      0.078200
     49 H27        -6.4750   -8.0900   -1.0320 ha        1 C03      0.204000
     50 H29        -9.2070   -4.7150   -1.1010 ha        1 C03      0.143000
     51 H30       -10.1200   -5.5120   -3.2860 ha        1 C03      0.131000
     52 H37        -6.5490   -7.5460    1.1250 h1        1 C03      0.037700
     53 H381       -5.3050   -6.2420    2.8220 hc        1 C03      0.037700
     54 H382       -7.0070   -5.5980    2.7460 hc        1 C03      0.037700
     55 H383       -5.6490   -4.6880    1.9450 hc        1 C03      0.037700
     56 H50       -10.9140  -17.6690   -2.2660 ha        1 C03      0.154000
     57 H52        -6.5600  -17.6750   -2.5550 ha        1 C03      0.151000
     58 H53        -6.5040  -15.1610   -2.4600 ha        1 C03      0.161000
     59 H581      -10.4620  -19.6790   -3.2640 h1        1 C03      0.044033
     60 H582      -10.3230  -19.7290   -1.4350 h1        1 C03      0.044033
     61 H583       -9.4470  -20.9830   -2.4560 h1        1 C03      0.044033
@<TRIPOS>BOND
     1    1    2 ar  
     2    1    6 ar  
     3    1   41 1   
     4    2    3 ar  
     5    2   42 1   
     6    3    4 ar  
     7    3    7 1   
     8    4    5 ar  
     9    4    9 1   
    10    5    6 ar  
    11    5   43 1   
    12    6   13 1   
    13    7    8 2   
    14    7   10 1   
    15    8    9 1   
    16    8   11 1   
    17    9   12 1   
    18   10   31 2   
    19   10   34 1   
    20   11   44 1   
    21   11   45 1   
    22   11   46 1   
    23   12   18 1   
    24   12   47 1   
    25   12   48 1   
    26   13   14 1   
    27   14   15 1   
    28   14   16 1   
    29   14   17 1   
    30   18   19 ar  
    31   18   23 ar  
    32   19   20 ar  
    33   19   49 1   
    34   20   21 ar  
    35   20   25 1   
    36   21   22 ar  
    37   21   50 1   
    38   22   23 ar  
    39   22   51 1   
    40   23   24 1   
    41   25   26 1   
    42   26   27 1   
    43   26   28 1   
    44   26   52 1   
    45   27   53 1   
    46   27   54 1   
    47   27   55 1   
    48   28   29 1   
    49   28   30 1   
    50   31   32 1   
    51   32   33 1   
    52   33   34 ar  
    53   33   35 ar  
    54   34   38 ar  
    55   35   36 ar  
    56   35   56 1   
    57   36   37 ar  
    58   36   39 1   
    59   37   38 ar  
    60   37   57 1   
    61   38   58 1   
    62   39   40 1   
    63   40   59 1   
    64   40   60 1   
    65   40   61 1   
@<TRIPOS>SUBSTRUCTURE
     1 C03         1 TEMP              0 ****  ****    0 ROOT
