@<TRIPOS>MOLECULE
C03
   61    56     1     0     0
SMALL
bcc


@<TRIPOS>ATOM
      1 C1         -2.7680   -0.6810   -3.1320 c1        1 C03     -0.151000
      2 C2         -1.3500   -0.6040   -3.1370 c1        1 C03     -0.096000
      3 C3         -0.6600   -0.5490   -1.9490 c1        1 C03     -0.036000
      4 C4         -1.4040   -0.5710   -0.6550 c2        1 C03      0.003000
      5 C5         -2.7800   -0.6460   -0.6550 c1        1 C03     -0.106000
      6 C6         -3.4860   -0.7020   -1.8810 c1        1 C03      0.025000
      7 C10         0.7230   -0.5540   -1.5520 c1        1 C03     -0.158000
      8 C11         0.9030   -0.5750   -0.2560 c1        1 C03      0.082000
      9 N12        -0.2530   -0.5870    0.4630 n3        1 C03     -0.140000
     10 C13         1.7920    0.0800   -2.4700 c2        1 C03      0.030000
     11 C14         2.1590    0.0160    0.3400 c2        1 C03     -0.186000
     12 C18        -0.4010   -1.0440    1.8300 c3        1 C03      0.024000
     13 O19        -4.7800   -1.2250   -1.6430 os        1 C03     -0.252000
     14 C20        -5.7820   -0.6630   -2.4560 c3        1 C03      0.530000
     15 F21        -5.2500    0.3110   -3.2130 f         1 C03     -0.150333
     16 F22        -6.7460   -0.1500   -1.6850 f         1 C03     -0.150333
     17 F23        -6.2990   -1.6110   -3.2470 f         1 C03     -0.150333
     18 C24        -0.7540    0.1610    2.7460 c2        1 C03     -0.079000
     19 C27        -0.6650    0.0330    4.1290 c2        1 C03     -0.172000
     20 C28        -0.9930    1.1060    4.9490 c1        1 C03      0.131000
     21 C29        -1.4090    2.3040    4.3890 c1        1 C03     -0.144000
     22 C30        -1.4980    2.4320    3.0050 c1        1 C03     -0.144000
     23 C31        -1.1700    1.3600    2.1860 c1        1 C03     -0.111000
     24 CL1        -1.3210    1.5060    0.4610 cl        1 C03     -0.039000
     25 O36        -0.8150    1.0040    6.3540 os        1 C03     -0.165000
     26 C37        -1.5270    1.9810    7.0960 c3        1 C03     -0.072000
     27 C38        -0.5630    2.9740    7.6700 c3        1 C03     -0.229000
     28 C42        -2.2870    1.3070    8.2220 c2        1 C03      0.353000
     29 O44        -1.9110    0.1880    8.6520 o         1 C03     -0.545000
     30 O45        -3.2970    1.8720    8.7300 o         1 C03     -0.545000
     31 N46         1.6550    1.2650   -2.8690 n1        1 C03     -0.025000
     32 O47         2.2550    1.5220   -4.0460 o         1 C03     -0.070000
     33 C48         2.9130    0.1470   -4.4460 c2        1 C03      0.036000
     34 C49         2.5610   -0.7470   -3.3540 c2        1 C03     -0.164000
     35 C50         3.7870   -0.2810   -5.4380 c1        1 C03     -0.208000
     36 C51         4.3310   -1.5770   -5.3860 c1        1 C03      0.109000
     37 C52         3.9870   -2.4550   -4.3140 c1        1 C03     -0.187000
     38 C53         3.1000   -2.0260   -3.3050 c1        1 C03     -0.030000
     39 O57         5.4230   -2.2250   -6.0220 os        1 C03     -0.210000
     40 C58         5.2990   -2.3090   -7.4340 c3        1 C03     -0.078000
     41 H1         -3.2600   -0.7200   -3.9790 ha        1 C03      0.146000
     42 H2         -0.8660   -0.5800   -3.9840 ha        1 C03      0.144000
     43 H5         -3.2680   -0.6600    0.1920 ha        1 C03      0.158000
     44 H141        2.1350    0.9900    0.2520 ha        1 C03      0.112333
     45 H142        2.2160   -0.2260    1.2880 ha        1 C03      0.112333
     46 H143        2.9420   -0.3360   -0.1350 ha        1 C03      0.112333
     47 H181        0.4380   -1.4480    2.1310 h1        1 C03      0.108500
     48 H182       -1.1200   -1.7110    1.8760 h1        1 C03      0.108500
     49 H27        -0.3970   -0.8130    4.5220 ha        1 C03      0.153000
     50 H29        -1.6040    3.0710    4.9640 ha        1 C03      0.145500
     51 H30        -1.7900    3.2750    2.6110 ha        1 C03      0.145500
     52 H37        -2.1580    2.4430    6.5080 h1        1 C03      0.079000
     53 H381       -1.0560    3.6600    8.1650 hc        1 C03      0.074667
     54 H382        0.0530    2.5190    8.2720 hc        1 C03      0.074667
     55 H383       -0.0590    3.3950    6.9460 hc        1 C03      0.074667
     56 H50         4.0230    0.3200   -6.1730 ha        1 C03      0.157000
     57 H52         4.3670   -3.3550   -4.2800 ha        1 C03      0.151000
     58 H53         2.8660   -2.6270   -2.5730 ha        1 C03      0.155000
     59 H581        6.1220   -2.6930   -7.8130 h1        1 C03      0.085333
     60 H582        4.5360   -2.8810   -7.6630 h1        1 C03      0.085333
     61 H583        5.1570   -1.4090   -7.8050 h1        1 C03      0.085333
@<TRIPOS>BOND
     1    1    6 1   
     2    1   41 1   
     3    2    3 1   
     4    2   42 1   
     5    3    4 1   
     6    4    5 1   
     7    4    9 1   
     8    5   43 1   
     9    6   13 1   
    10    7    8 1   
    11    7   10 1   
    12    8    9 1   
    13    9   12 1   
    14   10   31 1   
    15   10   34 1   
    16   11   44 1   
    17   11   45 1   
    18   11   46 1   
    19   12   18 1   
    20   12   47 1   
    21   12   48 1   
    22   13   14 1   
    23   14   15 1   
    24   14   16 1   
    25   14   17 1   
    26   18   19 1   
    27   18   23 1   
    28   19   20 1   
    29   19   49 1   
    30   20   25 1   
    31   21   22 1   
    32   21   50 1   
    33   22   51 1   
    34   23   24 1   
    35   25   26 1   
    36   26   27 1   
    37   26   28 1   
    38   26   52 1   
    39   27   53 1   
    40   27   54 1   
    41   27   55 1   
    42   28   29 1   
    43   28   30 1   
    44   32   33 1   
    45   33   34 1   
    46   33   35 1   
    47   34   38 1   
    48   35   56 1   
    49   36   37 1   
    50   36   39 1   
    51   37   57 1   
    52   38   58 1   
    53   39   40 1   
    54   40   59 1   
    55   40   60 1   
    56   40   61 1   
@<TRIPOS>SUBSTRUCTURE
     1 C03         1 TEMP              0 ****  ****    0 ROOT
