@<TRIPOS>MOLECULE
C03
   61    65     1     0     0
SMALL
bcc


@<TRIPOS>ATOM
      1 C1          1.4720    0.2790   -0.6400 ca        1 C03     -0.153000
      2 C2          2.7390   -0.1260   -0.2620 ca        1 C03     -0.100000
      3 C3          3.1000   -0.0770    1.0860 ca        1 C03     -0.081800
      4 C4          2.1610    0.4240    2.0620 ca        1 C03     -0.026200
      5 C5          0.8770    0.8560    1.6860 ca        1 C03     -0.156000
      6 C6          0.5580    0.7460    0.3360 ca        1 C03      0.126100
      7 C10         4.3030   -0.4230    1.8110 cc        1 C03     -0.227800
      8 C11         4.0710   -0.1340    3.1700 cd        1 C03      0.023700
      9 N12         2.7720    0.3670    3.3270 na        1 C03     -0.051400
     10 C13         5.4990   -0.9610    1.2330 cc        1 C03      0.501200
     11 C14         5.0030   -0.3360    4.2960 c3        1 C03     -0.054900
     12 C18         2.1290    0.6700    4.5800 c3        1 C03      0.082600
     13 O19        -0.7140    0.9910   -0.1700 os        1 C03     -0.402900
     14 C20        -1.4870    2.0550    0.3440 c3        1 C03      0.836700
     15 F21        -2.0510    1.7060    1.5180 f         1 C03     -0.201967
     16 F22        -2.4760    2.1920   -0.5850 f         1 C03     -0.201967
     17 F23        -0.7910    3.2090    0.3980 f         1 C03     -0.201967
     18 C24         2.3710    2.0530    5.1190 ca        1 C03     -0.076300
     19 C27         1.7740    3.1190    4.4450 ca        1 C03     -0.176000
     20 C28         1.8560    4.4210    4.9610 ca        1 C03      0.178100
     21 C29         2.5840    4.6620    6.1460 ca        1 C03     -0.168000
     22 C30         3.1930    3.6020    6.8020 ca        1 C03     -0.105000
     23 C31         3.0840    2.3000    6.2980 ca        1 C03     -0.026600
     24 Cl1         3.8250    1.0410    7.1920 cl        1 C03     -0.144400
     25 O36         1.2810    5.5240    4.3980 os        1 C03     -0.322900
     26 C37         0.4540    5.3220    3.2260 c3        1 C03      0.010100
     27 C38         0.0160    6.7150    2.8280 c3        1 C03     -0.081100
     28 C42        -0.7830    4.4180    3.5010 c         1 C03      0.905600
     29 O44        -0.8110    3.3100    2.8840 o         1 C03     -0.828300
     30 O45        -1.6820    4.8320    4.2720 o         1 C03     -0.828300
     31 N46         6.7620   -0.5930    1.5200 nd        1 C03     -0.424200
     32 O47         7.6380   -1.3020    0.8050 os        1 C03     -0.025600
     33 C48         6.9420   -2.1980   -0.0230 ca        1 C03      0.079100
     34 C49         5.5450   -2.0250    0.2110 ca        1 C03     -0.246900
     35 C50         7.4670   -3.1190   -0.9190 ca        1 C03     -0.212000
     36 C51         6.5190   -3.8980   -1.5960 ca        1 C03      0.151100
     37 C52         5.1270   -3.7590   -1.3800 ca        1 C03     -0.189000
     38 C53         4.6370   -2.8230   -0.4770 ca        1 C03     -0.024000
     39 O57         6.8520   -4.8670   -2.5240 os        1 C03     -0.326900
     40 C58         8.2400   -5.0320   -2.7890 c3        1 C03      0.112700
     41 H1          1.1520    0.2430   -1.6910 ha        1 C03      0.141000
     42 H2          3.4630   -0.4760   -1.0120 ha        1 C03      0.134000
     43 H5          0.1640    1.3110    2.4010 ha        1 C03      0.213000
     44 H141        5.8680   -0.9660    3.9730 hc        1 C03      0.062367
     45 H142        4.4990   -0.8440    5.1570 hc        1 C03      0.062367
     46 H143        5.3930    0.6520    4.6530 hc        1 C03      0.062367
     47 H181        2.4590   -0.1020    5.3340 h1        1 C03      0.078200
     48 H182        1.0130    0.5580    4.4230 h1        1 C03      0.078200
     49 H27         1.1890    2.9220    3.5250 ha        1 C03      0.204000
     50 H29         2.6450    5.6840    6.5430 ha        1 C03      0.143000
     51 H30         3.7550    3.7860    7.7290 ha        1 C03      0.131000
     52 H37         1.0940    4.8570    2.4280 h1        1 C03      0.037700
     53 H381        0.8910    7.4040    2.7500 hc        1 C03      0.037700
     54 H382       -0.5000    6.6580    1.8410 hc        1 C03      0.037700
     55 H383       -0.6980    7.1130    3.5900 hc        1 C03      0.037700
     56 H50         8.5470   -3.2160   -1.0720 ha        1 C03      0.154000
     57 H52         4.4410   -4.4070   -1.9430 ha        1 C03      0.151000
     58 H53         3.5540   -2.7130   -0.3070 ha        1 C03      0.161000
     59 H581        8.2630   -5.8420   -3.5610 h1        1 C03      0.044033
     60 H582        8.6790   -4.0880   -3.1950 h1        1 C03      0.044033
     61 H583        8.7820   -5.3510   -1.8660 h1        1 C03      0.044033
@<TRIPOS>BOND
     1    1    2 ar  
     2    1    6 ar  
     3    1   41 1   
     4    2    3 ar  
     5    2   42 1   
     6    3    4 ar  
     7    3    7 1   
     8    4    5 ar  
     9    4    9 1   
    10    5    6 ar  
    11    5   43 1   
    12    6   13 1   
    13    7    8 2   
    14    7   10 1   
    15    8    9 1   
    16    8   11 1   
    17    9   12 1   
    18   10   31 2   
    19   10   34 1   
    20   11   44 1   
    21   11   45 1   
    22   11   46 1   
    23   12   18 1   
    24   12   47 1   
    25   12   48 1   
    26   13   14 1   
    27   14   15 1   
    28   14   16 1   
    29   14   17 1   
    30   18   19 ar  
    31   18   23 ar  
    32   19   20 ar  
    33   19   49 1   
    34   20   21 ar  
    35   20   25 1   
    36   21   22 ar  
    37   21   50 1   
    38   22   23 ar  
    39   22   51 1   
    40   23   24 1   
    41   25   26 1   
    42   26   27 1   
    43   26   28 1   
    44   26   52 1   
    45   27   53 1   
    46   27   54 1   
    47   27   55 1   
    48   28   29 1   
    49   28   30 1   
    50   31   32 1   
    51   32   33 1   
    52   33   34 ar  
    53   33   35 ar  
    54   34   38 ar  
    55   35   36 ar  
    56   35   56 1   
    57   36   37 ar  
    58   36   39 1   
    59   37   38 ar  
    60   37   57 1   
    61   38   58 1   
    62   39   40 1   
    63   40   59 1   
    64   40   60 1   
    65   40   61 1   
@<TRIPOS>SUBSTRUCTURE
     1 C03         1 TEMP              0 ****  ****    0 ROOT
