@<TRIPOS>MOLECULE
C04
   44    45     1     0     0
SMALL
bcc


@<TRIPOS>ATOM
      1 C1         -0.0290    1.6170    0.7820 c3        1 C04     -0.125000
      2 N1          3.7690   -0.7010    3.0570 n         1 C04      0.161000
      3 O1          6.0420   -1.2290    3.1070 o         1 C04     -0.273000
      4 S1          2.7520    6.3800    3.8970 ss        1 C04      0.467000
      5 C2          1.2320    1.1630    1.3620 c2        1 C04     -0.133000
      6 N2          5.5510    1.8420    4.4660 n         1 C04     -0.142000
      7 O2          5.5480    2.1630    6.7810 o         1 C04     -0.220000
      8 S2          1.6730   -2.3690    3.0260 s4        1 C04      1.420000
      9 C3          1.6180    0.0350    2.0320 c2        1 C04      0.062000
     10 N3          6.6810    4.9060    5.6840 n2        1 C04      0.029000
     11 O3          7.7500    4.3440    6.2110 os        1 C04     -0.088000
     12 C4          3.0600    0.1900    2.3520 c2        1 C04     -0.265000
     13 N4          3.5090    3.9110    4.1420 n2        1 C04     -0.178000
     14 O4          9.9300    6.6340    7.9480 o         1 C04     -0.459000
     15 C5          3.2150   -1.8660    3.4310 c2        1 C04     -0.699000
     16 N5          1.3820    4.2260    2.9410 nh        1 C04     -0.271000
     17 O5          8.0560    5.7510    8.6140 oh        1 C04     -0.347000
     18 C6          5.3120    0.5750    4.5070 c1        1 C04     -0.067000
     19 O6          4.5120    2.1100    1.7120 o         1 C04     -0.335000
     20 C7          5.1890   -0.4110    3.4540 c2        1 C04      0.290000
     21 O7          2.3320    2.0650    1.1930 os        1 C04     -0.198000
     22 C9          5.6560    4.1460    5.3860 c2        1 C04     -0.160000
     23 C10         8.8380    5.1790    6.3890 c2        1 C04     -0.520000
     24 C11         8.9940    5.8840    7.5970 c2        1 C04      0.358000
     25 C12         4.4550    4.7230    4.7660 c2        1 C04     -0.007000
     26 C13         4.1800    6.0860    4.7080 c2        1 C04     -0.434000
     27 C14         2.5340    4.6700    3.6140 c2        1 C04     -0.177000
     28 C15         0.9220   -1.1120    2.4750 c2        1 C04     -0.885000
     29 C16         3.4530    1.4900    1.7800 c2        1 C04      0.365000
     30 H1         -0.8460    0.9090    1.0650 hc        1 C04      0.082000
     31 H1A         0.0450    1.6610   -0.3350 hc        1 C04      0.082000
     32 H2         -0.2860    2.6420    1.1530 hc        1 C04      0.082000
     33 HN2         6.5250    3.4060    1.7600 ha        1 C04      0.002500
     34 H5          3.8540   -2.5350    4.0290 h5        1 C04      0.192000
     35 HN5         1.4870    4.3670    1.9500 hn        1 C04      0.181000
     36 HN5A        1.1980    3.2500    3.1050 hn        1 C04      0.181000
     37 H6          6.8570    2.8150    1.7820 ha        1 C04      0.002500
     38 H10         7.4010    5.0960    8.3500 ho        1 C04      0.200000
     39 H10A        9.4770    5.3210    5.5240 h4        1 C04      0.140000
     40 H13         4.8170    6.8660    5.1250 h4        1 C04      0.202000
     41 H15         1.1090   -2.6820    4.1520 hs        1 C04     -0.305000
     42 H15A       -0.1730   -1.0560    2.4460 h4        1 C04      0.171000
     43 H22         5.6530    2.3590    3.5980 hn        1 C04      0.254000
     44 C8          5.5820    2.6740    5.6680 c2        1 C04      0.367000
@<TRIPOS>BOND
     1    1    5 1   
     2    1   30 1   
     3    1   31 1   
     4    1   32 1   
     5    2   12 1   
     6    2   15 1   
     7    2   20 1   
     8    3   20 1   
     9    4   26 1   
    10    4   27 1   
    11    5    9 1   
    12    5   21 1   
    13    6   18 1   
    14    6   43 1   
    15    6   44 1   
    16    7   44 1   
    17    8   15 1   
    18    8   28 1   
    19    8   41 1   
    20    9   12 1   
    21    9   28 1   
    22   10   11 1   
    23   10   22 1   
    24   11   23 1   
    25   12   29 1   
    26   13   25 1   
    27   13   27 1   
    28   14   24 1   
    29   15   34 1   
    30   16   27 1   
    31   16   35 1   
    32   16   36 1   
    33   17   24 1   
    34   17   38 1   
    35   18   20 1   
    36   19   29 1   
    37   21   29 1   
    38   22   25 1   
    39   22   44 1   
    40   23   24 1   
    41   23   39 1   
    42   25   26 1   
    43   26   40 1   
    44   28   42 1   
    45   33   37 1   
@<TRIPOS>SUBSTRUCTURE
     1 C04         1 TEMP              0 ****  ****    0 ROOT
