@<TRIPOS>MOLECULE
C04
   45    45     1     0     0
SMALL
bcc


@<TRIPOS>ATOM
      1 C1          3.2280    2.4590    0.3940 c3        1 C04     -0.107100
      2 N1          0.9940   -1.1050    2.5330 n1        1 C04     -1.112500
      3 O1          6.1320   -1.9250    3.6990 o         1 C04     -0.316500
      4 S1          1.6890    4.3460    6.0610 ss        1 C04     -0.113300
      5 C2          2.5200    2.1490    1.6900 c3        1 C04      0.171300
      6 N2          5.7800    1.3790    4.9810 n4        1 C04     -0.474600
      7 O2          7.6170    2.8220    4.7710 o         1 C04     -0.578100
      8 S2         -0.8850    2.5410    1.4500 sh        1 C04     -0.327900
      9 C3          1.4030    1.1300    1.5610 c2        1 C04     -0.089400
     10 N3          6.0420    5.1670    5.3780 n2        1 C04     -0.401200
     11 O3          7.2310    5.2660    4.9580 os        1 C04      0.112400
     12 C4          1.6960    0.0390    2.3360 ce        1 C04      0.477500
     13 N4          3.5990    2.6020    6.2870 nc        1 C04     -0.769000
     14 O4          9.9730    7.4070    4.4110 o         1 C04     -0.352000
     15 C5          0.4000   -2.1160    2.7200 c1        1 C04      0.534800
     16 N5          1.4080    1.8040    7.0130 nh        1 C04     -0.889500
     17 O5          9.8550    5.2300    4.3580 oh        1 C04     -0.600100
     18 C6          6.7020    0.3550    4.5700 c2        1 C04     -0.373100
     19 O6          3.7210   -0.3190    3.7920 o         1 C04     -0.614500
     20 C7          6.3460   -0.8360    4.1060 c1        1 C04      0.613600
     21 O7          3.4830    1.5350    2.6100 os        1 C04     -0.422900
     22 C9          5.5420    3.8660    5.3460 ce        1 C04      0.043300
     23 C10         7.8270    6.4890    4.8990 c2        1 C04     -0.331900
     24 C11         9.2250    6.4310    4.5610 c2        1 C04      0.451100
     25 C12         4.1290    3.7480    5.6870 cc        1 C04      0.400000
     26 C13         3.2050    4.7740    5.5030 cd        1 C04     -0.261400
     27 C14         2.2860    2.7790    6.5350 cd        1 C04      0.608300
     28 C15         0.2290    1.3730    0.7250 c3        1 C04      0.031900
     29 C16         3.0120    0.3000    3.0040 c         1 C04      0.736800
     30 H1          4.1360    3.0760    0.6050 hc        1 C04      0.065700
     31 H1A         2.5440    3.0360   -0.2740 hc        1 C04      0.065700
     32 H2          3.5470    1.5240   -0.1240 hc        1 C04      0.065700
     33 HN2         4.9730    1.4120    4.3430 hn        1 C04      0.456800
     34 H5         -1.3670    1.8130    2.4430 hs        1 C04      0.208800
     35 HN5         1.8540    0.9600    7.3150 hn        1 C04      0.396800
     36 HN5A        0.7870    2.1630    7.7090 hn        1 C04      0.396800
     37 H6          7.7780    0.6250    4.6250 hx        1 C04      0.251000
     38 H10         9.2380    4.4950    4.4900 ho        1 C04      0.436000
     39 H10A        7.2910    7.4080    5.1240 h4        1 C04      0.187000
     40 H13         3.4280    5.7510    5.0750 h4        1 C04      0.199000
     41 H15         0.5380    1.8480   -0.2470 h1        1 C04      0.102200
     42 H15A       -0.2990    0.4160    0.4830 h1        1 C04      0.102200
     43 H22         5.4380    1.1510    5.9240 hn        1 C04      0.456800
     44 H53         2.1600    3.0820    2.2060 h1        1 C04      0.119700
     45 C8          6.4030    2.7770    5.0340 c         1 C04      0.441800
@<TRIPOS>BOND
     1    1    5 1   
     2    1   30 1   
     3    1   31 1   
     4    1   32 1   
     5    2   12 1   
     6    2   15 3   
     7    3   20 2   
     8    4   26 1   
     9    4   27 1   
    10    5    9 1   
    11    5   21 1   
    12    5   44 1   
    13    6   18 1   
    14    6   33 1   
    15    6   43 1   
    16    6   45 1   
    17    7   45 2   
    18    8   28 1   
    19    8   34 1   
    20    9   12 2   
    21    9   28 1   
    22   10   11 1   
    23   10   22 2   
    24   11   23 1   
    25   12   29 1   
    26   13   25 1   
    27   13   27 2   
    28   14   24 1   
    29   16   27 1   
    30   16   35 1   
    31   16   36 1   
    32   17   24 1   
    33   17   38 1   
    34   18   20 2   
    35   18   37 1   
    36   19   29 2   
    37   21   29 1   
    38   22   25 1   
    39   22   45 1   
    40   23   24 2   
    41   23   39 1   
    42   25   26 2   
    43   26   40 1   
    44   28   41 1   
    45   28   42 1   
@<TRIPOS>SUBSTRUCTURE
     1 C04         1 TEMP              0 ****  ****    0 ROOT
