@<TRIPOS>MOLECULE
C04
   44    46     1     0     0
SMALL
bcc


@<TRIPOS>ATOM
      1 C1         -0.3720    0.4090    0.3220 c3        1 C04     -0.093400
      2 N1          3.9470   -0.1460    2.7770 n         1 C04      0.136400
      3 O1          6.2120    0.1550    3.2400 o         1 C04     -0.667300
      4 S1          3.8030    7.3170    3.5380 ss        1 C04     -0.163300
      5 C2          0.9270    0.5300    0.9770 cc        1 C04      0.154000
      6 N2          5.6680    2.5640    4.7970 ny        1 C04     -0.433600
      7 O2          4.5820    2.5440    6.8910 o         1 C04     -0.453100
      8 S2          2.8720   -2.5760    2.3800 sx        1 C04      0.593400
      9 C3          1.7650   -0.3570    1.5940 cd        1 C04     -0.021100
     10 N3          6.1160    5.3090    6.9550 n2        1 C04     -0.327200
     11 O3          6.6780    4.5640    7.8770 os        1 C04     -0.196300
     12 C4          2.9470    0.4090    2.0790 cd        1 C04     -0.331700
     13 N4          3.6610    4.8270    4.2750 nc        1 C04     -0.692000
     14 O4         10.0150    3.8510    6.6500 o         1 C04     -0.847300
     15 C5          3.9650   -1.4760    2.9780 ce        1 C04     -0.158200
     16 N5          2.1550    5.4200    2.4380 nv        1 C04     -0.870500
     17 O5          7.9810    3.4020    5.8320 o         1 C04     -0.847300
     18 C6          4.6790    1.7600    4.1300 c2        1 C04     -0.438000
     19 O6          1.4770    1.8470    0.9920 os        1 C04     -0.464800
     20 C7          5.0740    0.6450    3.4020 c2        1 C04      0.651300
     21 O7          3.3140    2.8640    1.6920 o         1 C04     -0.349000
     22 C9          5.3340    4.7090    6.0910 ce        1 C04      0.284300
     23 C10         8.1370    4.6060    7.9150 c3        1 C04      0.016400
     24 C11         8.7610    3.8970    6.7020 c         1 C04      0.916600
     25 C12         4.5920    5.4800    5.0840 cc        1 C04      0.317000
     26 C13         4.7780    6.8260    4.8050 cd        1 C04     -0.209400
     27 C14         3.1580    5.6850    3.3740 cd        1 C04      0.648300
     28 C15         1.6600   -1.7440    1.8460 cf        1 C04     -0.888200
     29 C16         2.7090    1.7940    1.6440 cc        1 C04      0.560700
     30 H1         -1.0950    1.1530    0.7430 hc        1 C04      0.035700
     31 H1A        -0.7750   -0.6220    0.4790 hc        1 C04      0.035700
     32 H2         -0.2790    0.5990   -0.7770 hc        1 C04      0.035700
     33 HN2         6.4920    1.9960    5.0770 hn        1 C04      0.468300
     34 H5          4.8220   -1.8530    3.5620 h5        1 C04      0.067800
     35 HN5         2.4470    5.6830    1.5160 hn        1 C04      0.403800
     36 HN5A        1.8610    4.4550    2.4400 hn        1 C04      0.403800
     37 H6          3.6550    2.1450    4.1660 hx        1 C04      0.189000
     38 H10         8.3440    4.0380    8.8570 h1        1 C04      0.057700
     39 H10A        8.4950    5.6600    8.0000 h1        1 C04      0.057700
     40 H13         5.4770    7.4830    5.3210 h4        1 C04      0.195000
     41 H15         2.4530   -3.2300    3.4220 hs        1 C04      0.081000
     42 H15A        0.6770   -2.1960    1.6720 h4        1 C04      0.164000
     43 H22         6.0250    3.2960    4.1680 hn        1 C04      0.468300
     44 C8          5.1240    3.2200    6.0280 c         1 C04      0.509800
@<TRIPOS>BOND
     1    1    5 1   
     2    1   30 1   
     3    1   31 1   
     4    1   32 1   
     5    2   12 1   
     6    2   15 2   
     7    2   20 1   
     8    3   20 1   
     9    4   26 1   
    10    4   27 1   
    11    5    9 2   
    12    5   19 1   
    13    6   18 1   
    14    6   33 1   
    15    6   43 1   
    16    6   44 1   
    17    7   44 2   
    18    8   15 1   
    19    8   28 2   
    20    8   41 1   
    21    9   12 1   
    22    9   28 1   
    23   10   11 1   
    24   10   22 2   
    25   11   23 1   
    26   12   29 2   
    27   13   25 1   
    28   13   27 2   
    29   14   24 1   
    30   15   34 1   
    31   16   27 1   
    32   16   35 1   
    33   16   36 1   
    34   17   24 1   
    35   18   20 2   
    36   18   37 1   
    37   19   29 1   
    38   21   29 1   
    39   22   25 1   
    40   22   44 1   
    41   23   24 1   
    42   23   38 1   
    43   23   39 1   
    44   25   26 2   
    45   26   40 1   
    46   28   42 1   
@<TRIPOS>SUBSTRUCTURE
     1 C04         1 TEMP              0 ****  ****    0 ROOT
