@<TRIPOS>MOLECULE
C04
   43    45     1     0     0
SMALL
bcc


@<TRIPOS>ATOM
      1 C1         -6.6820   -0.9840    0.4600 c2        1 C04     -0.327000
      2 N1         -2.6920    1.5960   -0.6470 n         1 C04     -0.358000
      3 O1         -1.3040    3.2870    0.4260 o         1 C04     -0.527500
      4 S1          1.7060   -3.9610    1.2090 ss        1 C04     -0.137300
      5 C2         -5.8940    0.0940    0.5350 ce        1 C04     -0.030000
      6 N2          0.4140    0.6300   -0.4470 n         1 C04     -0.530900
      7 O2          1.9790    1.0930   -2.0660 o         1 C04     -0.606100
      8 S2         -2.2140   -1.0910   -0.8160 ss        1 C04     -0.368200
      9 C3         -4.5610    0.2020   -0.0270 ce        1 C04     -0.249200
     10 N3          3.9020   -0.2090   -0.0700 n2        1 C04     -0.290200
     11 O3          4.3620    0.9800   -0.2920 os        1 C04     -0.154300
     12 C4         -3.9340    1.4230   -0.0580 cf        1 C04      0.050400
     13 N4          1.1230   -2.3790   -0.7680 nc        1 C04     -0.655000
     14 O4          7.5990    0.4560    1.3260 o         1 C04     -0.830300
     15 C5         -1.9840    0.5680   -1.4090 cy        1 C04      0.119800
     16 N5         -0.1290   -4.5030   -0.7340 nh        1 C04     -0.872500
     17 O5          5.5650    0.4160    2.2550 o         1 C04     -0.830300
     18 C6         -0.6270    1.3190   -1.1070 cy        1 C04      0.031700
     19 O6         -4.7980    2.7940    1.7240 o         1 C04     -0.796300
     20 C7         -1.5190    2.2950   -0.2470 c         1 C04      0.706500
     21 O7         -5.0860    3.4930   -0.3900 o         1 C04     -0.796300
     22 C9          2.6370   -0.4450   -0.3400 ce        1 C04      0.199300
     23 C10         5.7960    1.1460   -0.0500 c3        1 C04      0.020400
     24 C11         6.3450    0.6190    1.2890 c         1 C04      0.905600
     25 C12         2.1090   -1.7730    0.0080 cc        1 C04      0.337000
     26 C13         2.5200   -2.5060    1.1170 cd        1 C04     -0.210400
     27 C14         0.7980   -3.5670   -0.2330 cd        1 C04      0.562300
     28 C15        -3.9740   -1.0580   -0.5390 c3        1 C04      0.081900
     29 C16        -4.6590    2.6960    0.4810 c         1 C04      0.928800
     30 H1         -6.3990   -1.9090   -0.0540 ha        1 C04      0.086000
     31 H1A        -7.6780   -0.9980    0.9160 ha        1 C04      0.086000
     32 H2         -6.2470    1.0020    1.0680 ha        1 C04      0.158000
     33 HN2         0.1680    0.0580    0.3290 hn        1 C04      0.330500
     34 H5         -2.2560    0.6010   -2.4920 h2        1 C04      0.084700
     35 HN5        -1.0100   -4.3890   -0.2630 hn        1 C04      0.373300
     36 HN5A       -0.2730   -4.3830   -1.7220 hn        1 C04      0.373300
     37 H6         -0.2310    1.8400   -2.0220 h1        1 C04      0.116700
     38 H10         6.3410    0.6830   -0.9090 h1        1 C04      0.043700
     39 H10A        5.8780    2.2630   -0.0820 h1        1 C04      0.043700
     40 H13         3.2780   -2.1720    1.8290 h4        1 C04      0.218000
     41 H15        -4.4790   -1.3450   -1.4970 h1        1 C04      0.055200
     42 H15A       -4.1400   -1.8830    0.2030 h1        1 C04      0.055200
     43 C8          1.6700    0.4820   -1.0250 c         1 C04      0.600800
@<TRIPOS>BOND
     1    1    5 2   
     2    1   30 1   
     3    1   31 1   
     4    2   12 1   
     5    2   15 1   
     6    2   20 1   
     7    3   20 2   
     8    4   26 1   
     9    4   27 1   
    10    5    9 1   
    11    5   32 1   
    12    6   18 1   
    13    6   33 1   
    14    6   43 1   
    15    7   43 2   
    16    8   15 1   
    17    8   28 1   
    18    9   12 2   
    19    9   28 1   
    20   10   11 1   
    21   10   22 2   
    22   11   23 1   
    23   12   29 1   
    24   13   25 1   
    25   13   27 2   
    26   14   24 1   
    27   15   18 1   
    28   15   34 1   
    29   16   27 1   
    30   16   35 1   
    31   16   36 1   
    32   17   24 1   
    33   18   20 1   
    34   18   37 1   
    35   19   29 1   
    36   21   29 1   
    37   22   25 1   
    38   22   43 1   
    39   23   24 1   
    40   23   38 1   
    41   23   39 1   
    42   25   26 2   
    43   26   40 1   
    44   28   41 1   
    45   28   42 1   
@<TRIPOS>SUBSTRUCTURE
     1 C04         1 TEMP              0 ****  ****    0 ROOT
