@<TRIPOS>MOLECULE
C07
   42    45     1     0     0
SMALL
bcc


@<TRIPOS>ATOM
      1 O1         -0.0440   -0.2700    0.0690 o         1 C07     -0.605500
      2 C7          1.1940   -0.1490    0.0840 c         1 C07      0.707700
      3 C8          1.9820   -0.0440    1.3240 cc        1 C07     -0.195400
      4 C13         1.1390    0.1160    2.5400 c3        1 C07     -0.027200
      5 C12         1.9320    0.1340    3.8280 c3        1 C07     -0.078400
      6 C11         3.2320    0.8810    3.6380 c3        1 C07     -0.079400
      7 C10         4.0850    0.2010    2.5840 c3        1 C07     -0.049200
      8 C9          3.3440   -0.0450    1.3100 cd        1 C07      0.043600
      9 C14         4.0460   -0.2070    0.0580 ca        1 C07     -0.399400
     10 C17         3.2970   -0.0790   -1.1690 ca        1 C07      0.604200
     11 N3          3.9240    0.0290   -2.3940 nb        1 C07     -0.762000
     12 C16         5.2640   -0.0710   -2.3810 ca        1 C07      0.708900
     13 N2          6.0710   -0.3480   -1.3310 nb        1 C07     -0.799000
     14 C15         5.4620   -0.4580   -0.1030 ca        1 C07      0.726200
     15 N1          6.2720   -0.8000    0.9650 nv        1 C07     -0.946500
     16 N           1.8990   -0.0670   -1.1400 n         1 C07     -0.350500
     17 C2          1.1650   -0.0090   -2.3720 ca        1 C07      0.080600
     18 C3          1.1400   -1.1430   -3.2030 ca        1 C07     -0.126000
     19 C4          0.4230   -1.0920   -4.4060 ca        1 C07      0.120100
     20 O           0.4400   -2.2370   -5.1710 oh        1 C07     -0.498100
     21 C5         -0.2660    0.0650   -4.7890 ca        1 C07     -0.200000
     22 C6         -0.2310    1.1780   -3.9560 ca        1 C07     -0.092000
     23 C1          0.4750    1.1680   -2.7500 ca        1 C07     -0.079300
     24 C           0.4750    2.3730   -1.8890 c3        1 C07     -0.054800
     25 H1          0.5580    1.0740    2.4380 hc        1 C07      0.065700
     26 H2          0.3830   -0.7160    2.5670 hc        1 C07      0.065700
     27 H3          1.3240    0.6190    4.6340 hc        1 C07      0.045700
     28 H4          2.1480   -0.9160    4.1580 hc        1 C07      0.045700
     29 H5          3.0190    1.9380    3.3300 hc        1 C07      0.048700
     30 H6          3.8010    0.9180    4.6030 hc        1 C07      0.048700
     31 H7          4.4290   -0.7840    3.0060 hc        1 C07      0.059200
     32 H8          4.9800    0.8490    2.3880 hc        1 C07      0.059200
     33 H9          5.7720    0.0530   -3.3630 h5        1 C07      0.058100
     34 H10         7.2160   -1.0470    0.7700 hn        1 C07      0.430300
     35 H11         5.8430   -1.2700    1.7240 hn        1 C07      0.430300
     36 H12         1.6750   -2.0660   -2.9370 ha        1 C07      0.158000
     37 H13        -0.0960   -2.0730   -5.9610 ho        1 C07      0.418000
     38 H14        -0.8260    0.0930   -5.7340 ha        1 C07      0.135000
     39 H15        -0.7730    2.0900   -4.2530 ha        1 C07      0.136000
     40 H16         0.0420    2.1270   -0.8850 hc        1 C07      0.048700
     41 H17        -0.1350    3.1930   -2.3420 hc        1 C07      0.048700
     42 H18         1.5170    2.7520   -1.7430 hc        1 C07      0.048700
@<TRIPOS>BOND
     1    1    2 2   
     2    2    3 1   
     3    2   16 1   
     4    3    4 1   
     5    3    8 2   
     6    4    5 1   
     7    4   25 1   
     8    4   26 1   
     9    5    6 1   
    10    5   27 1   
    11    5   28 1   
    12    6    7 1   
    13    6   29 1   
    14    6   30 1   
    15    7    8 1   
    16    7   31 1   
    17    7   32 1   
    18    8    9 1   
    19    9   10 ar  
    20    9   14 ar  
    21   10   11 ar  
    22   10   16 1   
    23   11   12 ar  
    24   12   13 ar  
    25   12   33 1   
    26   13   14 ar  
    27   14   15 1   
    28   15   34 1   
    29   15   35 1   
    30   16   17 1   
    31   17   18 ar  
    32   17   23 ar  
    33   18   19 ar  
    34   18   36 1   
    35   19   20 1   
    36   19   21 ar  
    37   20   37 1   
    38   21   22 ar  
    39   21   38 1   
    40   22   23 ar  
    41   22   39 1   
    42   23   24 1   
    43   24   40 1   
    44   24   41 1   
    45   24   42 1   
@<TRIPOS>SUBSTRUCTURE
     1 C07         1 TEMP              0 ****  ****    0 ROOT
