@<TRIPOS>MOLECULE
C07
   42    45     1     0     0
SMALL
bcc


@<TRIPOS>ATOM
      1 O1          0.4960    2.5050   -0.1800 o         1 C07     -0.603500
      2 C7         -0.1680    1.4560   -0.1200 c         1 C07      0.706700
      3 C8         -1.6410    1.4290   -0.0990 cc        1 C07     -0.195400
      4 C13        -2.2470    2.7770    0.0760 c3        1 C07     -0.027200
      5 C12        -3.7590    2.7720    0.0170 c3        1 C07     -0.078400
      6 C11        -4.3110    1.5380    0.6930 c3        1 C07     -0.079400
      7 C10        -3.8220    0.2860   -0.0100 c3        1 C07     -0.049200
      8 C9         -2.3370    0.2610   -0.1780 cd        1 C07      0.042600
      9 C14        -1.6260   -0.9850   -0.3460 ca        1 C07     -0.400400
     10 C17        -0.1980   -0.9930   -0.1330 ca        1 C07      0.604200
     11 N3          0.5140   -2.1710   -0.0330 nb        1 C07     -0.764000
     12 C16        -0.1900   -3.3030   -0.2180 ca        1 C07      0.707900
     13 N2         -1.4880   -3.4300   -0.5740 nb        1 C07     -0.800000
     14 C15        -2.2110   -2.2650   -0.6810 ca        1 C07      0.727200
     15 N1         -3.5210   -2.3840   -1.1060 nh        1 C07     -0.948500
     16 N           0.5030    0.2120   -0.0290 n         1 C07     -0.350500
     17 C2          1.9270    0.1920    0.1460 ca        1 C07      0.085600
     18 C3          2.7420   -0.1970   -0.9330 ca        1 C07     -0.181000
     19 C4          4.1310   -0.2180   -0.7700 ca        1 C07      0.121100
     20 O           4.9860   -0.5910   -1.7840 oh        1 C07     -0.498100
     21 C5          4.7250    0.1450    0.4480 ca        1 C07     -0.144000
     22 C6          3.9070    0.5280    1.5020 ca        1 C07     -0.098000
     23 C1          2.5110    0.5580    1.3800 ca        1 C07     -0.080300
     24 C           1.6850    0.9830    2.5330 c3        1 C07     -0.054800
     25 H1         -1.9070    3.1870    1.0670 hc        1 C07      0.066200
     26 H2         -1.8350    3.4630   -0.7130 hc        1 C07      0.066200
     27 H3         -4.1540    3.6940    0.5180 hc        1 C07      0.046200
     28 H4         -4.1000    2.8000   -1.0510 hc        1 C07      0.046200
     29 H5         -3.9910    1.5200    1.7680 hc        1 C07      0.048700
     30 H6         -5.4320    1.5560    0.6730 hc        1 C07      0.048700
     31 H7         -4.1550   -0.6030    0.5880 hc        1 C07      0.058700
     32 H8         -4.3080    0.2510   -1.0240 hc        1 C07      0.058700
     33 H9          0.3760   -4.2530   -0.0980 h5        1 C07      0.058100
     34 H10        -3.8360   -3.2800   -1.4020 hn        1 C07      0.431800
     35 H11        -3.9260   -1.6010   -1.5580 hn        1 C07      0.431800
     36 H12         2.2990   -0.4930   -1.8950 ha        1 C07      0.141000
     37 H13         4.4510   -0.8210   -2.5570 ho        1 C07      0.419000
     38 H14         5.8190    0.1220    0.5500 ha        1 C07      0.151000
     39 H15         4.3650    0.8160    2.4610 ha        1 C07      0.138000
     40 H16         1.0770    1.8830    2.2580 hc        1 C07      0.048700
     41 H17         0.9880    0.1640    2.8410 hc        1 C07      0.048700
     42 H18         2.3230    1.2470    3.4120 hc        1 C07      0.048700
@<TRIPOS>BOND
     1    1    2 2   
     2    2    3 1   
     3    2   16 1   
     4    3    4 1   
     5    3    8 2   
     6    4    5 1   
     7    4   25 1   
     8    4   26 1   
     9    5    6 1   
    10    5   27 1   
    11    5   28 1   
    12    6    7 1   
    13    6   29 1   
    14    6   30 1   
    15    7    8 1   
    16    7   31 1   
    17    7   32 1   
    18    8    9 1   
    19    9   10 ar  
    20    9   14 ar  
    21   10   11 ar  
    22   10   16 1   
    23   11   12 ar  
    24   12   13 ar  
    25   12   33 1   
    26   13   14 ar  
    27   14   15 1   
    28   15   34 1   
    29   15   35 1   
    30   16   17 1   
    31   17   18 ar  
    32   17   23 ar  
    33   18   19 ar  
    34   18   36 1   
    35   19   20 1   
    36   19   21 ar  
    37   20   37 1   
    38   21   22 ar  
    39   21   38 1   
    40   22   23 ar  
    41   22   39 1   
    42   23   24 1   
    43   24   40 1   
    44   24   41 1   
    45   24   42 1   
@<TRIPOS>SUBSTRUCTURE
     1 C07         1 TEMP              0 ****  ****    0 ROOT
