@<TRIPOS>MOLECULE
C07
   42    36     1     0     0
SMALL
bcc


@<TRIPOS>ATOM
      1 O1         -2.5230    0.2990    0.5660 o         1 C07     -0.330000
      2 C7         -1.3200    0.1380    0.5570 c1        1 C07      0.346000
      3 C8         -0.5880    0.0460    1.8120 c2        1 C07     -0.172000
      4 C13        -1.1120    0.5790    3.0630 c3        1 C07     -0.110000
      5 C12        -0.3500   -0.0110    4.3430 c3        1 C07     -0.157000
      6 C11         0.8350    0.0520    4.3140 c3        1 C07     -0.158000
      7 C10         1.5460   -0.6710    3.0580 c3        1 C07     -0.132000
      8 C9          0.9530   -0.2530    1.7850 c1        1 C07      0.036000
      9 C14         1.6550   -0.4030    0.4630 c1        1 C07     -0.257000
     10 C17         0.9430   -0.1970   -0.7390 c1        1 C07      0.196000
     11 N3          1.5810   -0.2880   -1.9210 n1        1 C07     -0.236000
     12 C16         2.9260   -0.5830   -1.9580 c1        1 C07      0.046000
     13 N2          3.6290   -0.7870   -0.7720 n1        1 C07     -0.273000
     14 C15         2.9920   -0.6960    0.4220 c1        1 C07      0.205000
     15 N1          4.2790   -0.6970    1.0240 n2        1 C07     -0.344000
     16 N          -0.6170   -0.0700   -0.7160 n2        1 C07     -0.211000
     17 C2         -1.3380   -0.0480   -1.9290 c2        1 C07      0.088000
     18 C3         -1.8400   -1.2260   -2.4580 c2        1 C07     -0.126000
     19 C4         -2.5980   -1.1980   -3.6170 c1        1 C07      0.075000
     20 O          -3.1200   -2.3920   -4.1450 oh        1 C07     -0.252000
     21 C5         -2.8550    0.0080   -4.2470 c1        1 C07     -0.146000
     22 C6         -2.3530    1.1870   -3.7180 c1        1 C07     -0.146000
     23 C1         -1.5950    1.1590   -2.5600 c1        1 C07     -0.072000
     24 C          -1.0280    2.4440   -1.9940 c2        1 C07     -0.180000
     25 H1         -2.0690    0.4610    3.2250 hc        1 C07      0.105000
     26 H2         -1.0560    1.5560    3.0050 hc        1 C07      0.105000
     27 H3         -0.6030   -0.9540    4.4420 hc        1 C07      0.085000
     28 H4         -0.6620    0.4750    5.1350 hc        1 C07      0.085000
     29 H5          1.0910    0.9980    4.3060 hc        1 C07      0.088000
     30 H6          1.1830   -0.3540    5.1360 hc        1 C07      0.088000
     31 H7          1.6620   -1.6300    3.2060 hc        1 C07      0.098500
     32 H8          2.4850   -0.3910    3.0200 hc        1 C07      0.098500
     33 H9          3.3860   -0.6490   -2.8130 ha        1 C07      0.195000
     34 H10         4.4280   -1.1840    1.7850 hn        1 C07      0.225500
     35 H11         4.9650   -0.2300    0.6370 hn        1 C07      0.225500
     36 H12        -1.6340   -2.0800   -2.0290 ha        1 C07      0.158000
     37 H13        -2.6360   -2.6420   -4.8490 ho        1 C07      0.217000
     38 H14        -3.3880    0.0280   -5.0610 ha        1 C07      0.135500
     39 H15        -2.5340    2.0360   -4.1620 ha        1 C07      0.135500
     40 H16        -1.5520    3.2060   -2.3250 ha        1 C07      0.088000
     41 H17        -1.0720    2.4180   -1.0170 ha        1 C07      0.088000
     42 H18        -0.0950    2.5420   -2.2770 ha        1 C07      0.088000
@<TRIPOS>BOND
     1    1    2 1   
     2    2    3 1   
     3    3    4 1   
     4    3    8 1   
     5    4    5 1   
     6    4   25 1   
     7    4   26 1   
     8    5    6 1   
     9    5   27 1   
    10    5   28 1   
    11    6    7 1   
    12    6   29 1   
    13    6   30 1   
    14    7    8 1   
    15    7   31 1   
    16    7   32 1   
    17    9   10 1   
    18   10   16 1   
    19   11   12 1   
    20   12   33 1   
    21   13   14 1   
    22   15   34 1   
    23   15   35 1   
    24   16   17 1   
    25   17   18 1   
    26   17   23 1   
    27   18   19 1   
    28   18   36 1   
    29   19   20 1   
    30   20   37 1   
    31   21   22 1   
    32   21   38 1   
    33   22   39 1   
    34   24   40 1   
    35   24   41 1   
    36   24   42 1   
@<TRIPOS>SUBSTRUCTURE
     1 C07         1 TEMP              0 ****  ****    0 ROOT
