@<TRIPOS>MOLECULE
C07
   42    45     1     0     0
SMALL
bcc


@<TRIPOS>ATOM
      1 O1         -0.0390   -0.2900    0.0710 o         1 C07     -0.605500
      2 C7          1.1970   -0.1600    0.0840 c         1 C07      0.707700
      3 C8          1.9870   -0.0550    1.3230 cc        1 C07     -0.195400
      4 C13         1.1460    0.0930    2.5420 c3        1 C07     -0.027200
      5 C12         1.9410    0.1120    3.8280 c3        1 C07     -0.078400
      6 C11         3.2340    0.8700    3.6390 c3        1 C07     -0.079400
      7 C10         4.0910    0.2010    2.5800 c3        1 C07     -0.049200
      8 C9          3.3500   -0.0450    1.3070 cd        1 C07      0.043600
      9 C14         4.0500   -0.1960    0.0530 ca        1 C07     -0.399400
     10 C17         3.2980   -0.0690   -1.1720 ca        1 C07      0.604200
     11 N3          3.9220    0.0500   -2.3980 nb        1 C07     -0.762000
     12 C16         5.2630   -0.0410   -2.3880 ca        1 C07      0.708900
     13 N2          6.0730   -0.3160   -1.3400 nb        1 C07     -0.799000
     14 C15         5.4680   -0.4360   -0.1130 ca        1 C07      0.726200
     15 N1          6.2830   -0.7750    0.9530 nh        1 C07     -0.946500
     16 N           1.9000   -0.0670   -1.1410 n         1 C07     -0.350500
     17 C2          1.1640   -0.0100   -2.3710 ca        1 C07      0.080600
     18 C3          1.1450   -1.1390   -3.2070 ca        1 C07     -0.126000
     19 C4          0.4250   -1.0890   -4.4080 ca        1 C07      0.120100
     20 O           0.4500   -2.2310   -5.1790 oh        1 C07     -0.498100
     21 C5         -0.2730    0.0650   -4.7850 ca        1 C07     -0.200000
     22 C6         -0.2450    1.1740   -3.9470 ca        1 C07     -0.092000
     23 C1          0.4640    1.1640   -2.7420 ca        1 C07     -0.079300
     24 C           0.4570    2.3660   -1.8760 c3        1 C07     -0.054800
     25 H1          0.5570    1.0480    2.4450 hc        1 C07      0.065700
     26 H2          0.3960   -0.7450    2.5660 hc        1 C07      0.065700
     27 H3          1.3300    0.5890    4.6380 hc        1 C07      0.045700
     28 H4          2.1660   -0.9380    4.1530 hc        1 C07      0.045700
     29 H5          3.8050    0.9070    4.6030 hc        1 C07      0.048700
     30 H6          3.0130    1.9270    3.3360 hc        1 C07      0.048700
     31 H7          4.9810    0.8570    2.3860 hc        1 C07      0.059200
     32 H8          4.4440   -0.7830    2.9970 hc        1 C07      0.059200
     33 H9          5.7680    0.0910   -3.3700 h5        1 C07      0.058100
     34 H10         5.8590   -1.2520    1.7110 hn        1 C07      0.430300
     35 H11         7.2280   -1.0140    0.7550 hn        1 C07      0.430300
     36 H12         1.6880   -2.0600   -2.9460 ha        1 C07      0.158000
     37 H13        -0.0890   -2.0670   -5.9660 ho        1 C07      0.418000
     38 H14        -0.8350    0.0920   -5.7290 ha        1 C07      0.135000
     39 H15        -0.7930    2.0840   -4.2390 ha        1 C07      0.136000
     40 H16         0.0280    2.1120   -0.8730 hc        1 C07      0.048700
     41 H17         1.4960    2.7520   -1.7310 hc        1 C07      0.048700
     42 H18        -0.1600    3.1830   -2.3250 hc        1 C07      0.048700
@<TRIPOS>BOND
     1    1    2 2   
     2    2    3 1   
     3    2   16 1   
     4    3    4 1   
     5    3    8 2   
     6    4    5 1   
     7    4   25 1   
     8    4   26 1   
     9    5    6 1   
    10    5   27 1   
    11    5   28 1   
    12    6    7 1   
    13    6   29 1   
    14    6   30 1   
    15    7    8 1   
    16    7   31 1   
    17    7   32 1   
    18    8    9 1   
    19    9   10 ar  
    20    9   14 ar  
    21   10   11 ar  
    22   10   16 1   
    23   11   12 ar  
    24   12   13 ar  
    25   12   33 1   
    26   13   14 ar  
    27   14   15 1   
    28   15   34 1   
    29   15   35 1   
    30   16   17 1   
    31   17   18 ar  
    32   17   23 ar  
    33   18   19 ar  
    34   18   36 1   
    35   19   20 1   
    36   19   21 ar  
    37   20   37 1   
    38   21   22 ar  
    39   21   38 1   
    40   22   23 ar  
    41   22   39 1   
    42   23   24 1   
    43   24   40 1   
    44   24   41 1   
    45   24   42 1   
@<TRIPOS>SUBSTRUCTURE
     1 C07         1 TEMP              0 ****  ****    0 ROOT
