@<TRIPOS>MOLECULE
C07
   43    46     1     0     0
SMALL
bcc


@<TRIPOS>ATOM
      1 O1         -0.0160   -0.3770    0.0660 o         1 C07     -0.521500
      2 C7          1.2060   -0.1940    0.0750 c         1 C07      0.688700
      3 C8          1.9950   -0.0560    1.3250 cc        1 C07     -0.081400
      4 C13         1.1510    0.0640    2.5420 c3        1 C07     -0.054200
      5 C12         1.9510    0.0770    3.8260 c3        1 C07     -0.082400
      6 C11         3.2090    0.8940    3.6540 c3        1 C07     -0.080400
      7 C10         4.0950    0.2970    2.5740 c3        1 C07     -0.046200
      8 C9          3.3530   -0.0010    1.3120 cd        1 C07     -0.063400
      9 C14         4.0570   -0.1570    0.0560 ca        1 C07     -0.296400
     10 C17         3.2940   -0.0640   -1.1900 ca        1 C07      0.610200
     11 N3          3.9340    0.0070   -2.4110 nb        1 C07     -0.673000
     12 C16         5.2710   -0.1180   -2.4120 ca        1 C07      0.712900
     13 N2          6.0710   -0.3550   -1.3350 nb        1 C07     -0.730000
     14 C15         5.4410   -0.3850   -0.1350 ca        1 C07      0.524200
     15 N1          6.3240   -0.7220    1.0060 n4        1 C07     -0.829300
     16 N           1.9100   -0.0700   -1.1550 n         1 C07     -0.326500
     17 C2          1.1610   -0.0090   -2.3840 ca        1 C07      0.036600
     18 C3          1.1060   -1.1530   -3.1960 ca        1 C07     -0.132000
     19 C4          0.3730   -1.1020   -4.3910 ca        1 C07      0.135100
     20 O           0.3670   -2.2530   -5.1410 oh        1 C07     -0.489100
     21 C5         -0.2990    0.0670   -4.7750 ca        1 C07     -0.180000
     22 C6         -0.2320    1.1880   -3.9560 ca        1 C07     -0.081000
     23 C1          0.4910    1.1780   -2.7570 ca        1 C07     -0.077300
     24 C           0.5220    2.3920   -1.9090 c3        1 C07     -0.056800
     25 H1          0.4110   -0.7850    2.5560 hc        1 C07      0.093700
     26 H2          0.5460    1.0110    2.4540 hc        1 C07      0.093700
     27 H3          2.2150   -0.9720    4.1250 hc        1 C07      0.065200
     28 H4          1.3240    0.5100    4.6490 hc        1 C07      0.065200
     29 H5          3.7810    0.9290    4.6180 hc        1 C07      0.066200
     30 H6          2.9420    1.9490    3.3820 hc        1 C07      0.066200
     31 H7          4.5380   -0.6510    2.9870 hc        1 C07      0.034200
     32 H8          4.9120    1.0400    2.3680 hc        1 C07      0.034200
     33 H9          5.7850   -0.0460   -3.4000 h5        1 C07      0.101100
     34 H10         5.8410   -1.4020    1.6040 hn        1 C07      0.475133
     35 H11         6.5270    0.1290    1.5440 hn        1 C07      0.475133
     36 H12         1.6170   -2.0890   -2.9250 ha        1 C07      0.157000
     37 H13        -0.2020   -2.1080   -5.9130 ho        1 C07      0.433000
     38 H14        -0.8740    0.0960   -5.7130 ha        1 C07      0.152000
     39 H15        -0.7630    2.1070   -4.2540 ha        1 C07      0.152000
     40 H16         1.5690    2.7690   -1.7960 hc        1 C07      0.050700
     41 H17        -0.0940    3.2120   -2.3570 hc        1 C07      0.050700
     42 H18         0.1120    2.1650   -0.8920 hc        1 C07      0.050700
     43 H131        7.2110   -1.1260    0.6680 hn        1 C07      0.475133
@<TRIPOS>BOND
     1    1    2 2   
     2    2    3 1   
     3    2   16 1   
     4    3    4 1   
     5    3    8 2   
     6    4    5 1   
     7    4   25 1   
     8    4   26 1   
     9    5    6 1   
    10    5   27 1   
    11    5   28 1   
    12    6    7 1   
    13    6   29 1   
    14    6   30 1   
    15    7    8 1   
    16    7   31 1   
    17    7   32 1   
    18    8    9 1   
    19    9   10 ar  
    20    9   14 ar  
    21   10   11 ar  
    22   10   16 1   
    23   11   12 ar  
    24   12   13 ar  
    25   12   33 1   
    26   13   14 ar  
    27   14   15 1   
    28   15   34 1   
    29   15   35 1   
    30   15   43 1   
    31   16   17 1   
    32   17   18 ar  
    33   17   23 ar  
    34   18   19 ar  
    35   18   36 1   
    36   19   20 1   
    37   19   21 ar  
    38   20   37 1   
    39   21   22 ar  
    40   21   38 1   
    41   22   23 ar  
    42   22   39 1   
    43   23   24 1   
    44   24   40 1   
    45   24   41 1   
    46   24   42 1   
@<TRIPOS>SUBSTRUCTURE
     1 C07         1 TEMP              0 ****  ****    0 ROOT
