@<TRIPOS>MOLECULE
C09
   32    34     1     0     0
SMALL
bcc


@<TRIPOS>ATOM
      1 N           1.7590    3.4230   -0.0110 nh        1 C09     -0.941500
      2 C           1.7050    2.0380    0.0420 ca        1 C09      0.733200
      3 C4          0.4060    1.3900   -0.0100 ca        1 C09     -0.098900
      4 N2         -0.8880    1.9170   -0.0230 nc        1 C09     -0.550100
      5 C5         -1.7080    0.8370   -0.0840 cd        1 C09      0.374800
      6 C6         -3.2040    0.9190   -0.1390 c3        1 C09      0.123100
      7 O          -3.7410   -0.3940    0.0130 os        1 C09     -0.441600
      8 C7         -5.1710   -0.3880    0.0030 c3        1 C09      0.135400
      9 C8         -5.6110   -1.8230    0.1670 c3        1 C09     -0.099100
     10 N3         -0.9880   -0.3780   -0.1140 na        1 C09     -0.225300
     11 C3          0.3580   -0.0440   -0.0600 ca        1 C09     -0.030200
     12 C2          1.5500   -0.8210   -0.0440 ca        1 C09     -0.163300
     13 C9          1.5730   -2.2300   -0.0940 ca        1 C09     -0.099000
     14 C10         2.7730   -2.9060   -0.0690 ca        1 C09     -0.149000
     15 C11         3.9830   -2.1870    0.0070 ca        1 C09     -0.114000
     16 C12         3.9910   -0.8120    0.0550 ca        1 C09     -0.184300
     17 C1          2.7670   -0.0710    0.0300 ca        1 C09      0.460600
     18 N1          2.8340    1.3080    0.0840 nb        1 C09     -0.770000
     19 H1          0.9290    3.9050    0.2390 hn        1 C09      0.427300
     20 H2          2.6190    3.8650    0.2140 hn        1 C09      0.427300
     21 H4         -3.5770    1.5820    0.6890 h1        1 C09      0.059700
     22 H5         -3.5170    1.3420   -1.1330 h1        1 C09      0.059700
     23 H6         -5.5450    0.2510    0.8460 h1        1 C09      0.032200
     24 H7         -5.5330    0.0400   -0.9700 h1        1 C09      0.032200
     25 H8         -5.2260   -2.2430    1.1270 hc        1 C09      0.048367
     26 H9         -6.7260   -1.8670    0.1690 hc        1 C09      0.048367
     27 H10        -5.2220   -2.4500   -0.6710 hc        1 C09      0.048367
     28 H12         0.6230   -2.7810   -0.1530 ha        1 C09      0.122000
     29 H13         2.7970   -4.0040   -0.1070 ha        1 C09      0.132000
     30 H14         4.9330   -2.7420    0.0260 ha        1 C09      0.132000
     31 H15         4.9440   -0.2620    0.1120 ha        1 C09      0.149000
     32 H3         -1.3870   -1.2800   -0.1270 hn        1 C09      0.321700
@<TRIPOS>BOND
     1    1    2 1   
     2    1   19 1   
     3    1   20 1   
     4    2    3 ar  
     5    2   18 ar  
     6    3    4 1   
     7    3   11 ar  
     8    4    5 2   
     9    5    6 1   
    10    5   10 1   
    11    6    7 1   
    12    6   21 1   
    13    6   22 1   
    14    7    8 1   
    15    8    9 1   
    16    8   23 1   
    17    8   24 1   
    18    9   25 1   
    19    9   26 1   
    20    9   27 1   
    21   10   11 1   
    22   10   32 1   
    23   11   12 ar  
    24   12   13 ar  
    25   12   17 ar  
    26   13   14 ar  
    27   13   28 1   
    28   14   15 ar  
    29   14   29 1   
    30   15   16 ar  
    31   15   30 1   
    32   16   17 ar  
    33   16   31 1   
    34   17   18 ar  
@<TRIPOS>SUBSTRUCTURE
     1 C09         1 TEMP              0 ****  ****    0 ROOT
