@<TRIPOS>MOLECULE
C09
   33    35     1     0     0
SMALL
bcc


@<TRIPOS>ATOM
      1 N          -0.0960    0.0010    0.0040 n4        1 C09     -0.814300
      2 C           1.3820   -0.0010   -0.0280 ca        1 C09      0.516200
      3 C4          2.0480   -0.0010    1.2320 ca        1 C09     -0.078900
      4 N2          1.5720   -0.0000    2.5440 nc        1 C09     -0.592100
      5 C5          2.6930   -0.0010    3.3170 cd        1 C09      0.454800
      6 C6          2.6830   -0.0000    4.8210 c3        1 C09      0.112100
      7 O           4.0310   -0.0020    5.2750 os        1 C09     -0.449600
      8 C7          4.1170   -0.0010    6.7080 c3        1 C09      0.136400
      9 C8          5.5880   -0.0030    7.0470 c3        1 C09     -0.102100
     10 N3          3.8750   -0.0030    2.5440 na        1 C09     -0.211300
     11 C3          3.4920   -0.0030    1.2120 ca        1 C09     -0.020200
     12 C2          4.1990   -0.0040   -0.0200 ca        1 C09     -0.083300
     13 C9          5.6060   -0.0060   -0.1190 ca        1 C09     -0.123000
     14 C10         6.2150   -0.0070   -1.3550 ca        1 C09     -0.075000
     15 C11         5.4360   -0.0070   -2.5330 ca        1 C09     -0.106000
     16 C12         4.0620   -0.0050   -2.4760 ca        1 C09     -0.144300
     17 C1          3.3930   -0.0040   -1.2110 ca        1 C09      0.395600
     18 N1          2.0100   -0.0030   -1.1980 nb        1 C09     -0.630000
     19 H1         -0.4040    0.8380    0.5130 hn        1 C09      0.473800
     20 H2         -0.4060   -0.8360    0.5140 hn        1 C09      0.473800
     21 H4          2.1500   -0.9200    5.1870 h1        1 C09      0.076700
     22 H5          2.1520    0.9220    5.1860 h1        1 C09      0.076700
     23 H6          3.6050    0.9160    7.1050 h1        1 C09      0.041700
     24 H7          3.6030   -0.9160    7.1060 h1        1 C09      0.041700
     25 H8          6.0860   -0.9090    6.6290 hc        1 C09      0.056033
     26 H9          6.0890    0.9020    6.6280 hc        1 C09      0.056033
     27 H10         5.7040   -0.0020    8.1580 hc        1 C09      0.056033
     28 H12         6.2120   -0.0060    0.8010 ha        1 C09      0.149000
     29 H13         7.3140   -0.0090   -1.4360 ha        1 C09      0.163000
     30 H14         5.9460   -0.0080   -3.5120 ha        1 C09      0.164000
     31 H15         3.4630   -0.0050   -3.4020 ha        1 C09      0.168000
     32 H3          4.7960   -0.0040    2.9120 hn        1 C09      0.346700
     33 HN3        -0.4950    0.0000   -0.9420 hn        1 C09      0.473800
@<TRIPOS>BOND
     1    1    2 1   
     2    1   19 1   
     3    1   20 1   
     4    1   33 1   
     5    2    3 ar  
     6    2   18 ar  
     7    3    4 1   
     8    3   11 ar  
     9    4    5 2   
    10    5    6 1   
    11    5   10 1   
    12    6    7 1   
    13    6   21 1   
    14    6   22 1   
    15    7    8 1   
    16    8    9 1   
    17    8   23 1   
    18    8   24 1   
    19    9   25 1   
    20    9   26 1   
    21    9   27 1   
    22   10   11 1   
    23   10   32 1   
    24   11   12 ar  
    25   12   13 ar  
    26   12   17 ar  
    27   13   14 ar  
    28   13   28 1   
    29   14   15 ar  
    30   14   29 1   
    31   15   16 ar  
    32   15   30 1   
    33   16   17 ar  
    34   16   31 1   
    35   17   18 ar  
@<TRIPOS>SUBSTRUCTURE
     1 C09         1 TEMP              0 ****  ****    0 ROOT
