@<TRIPOS>MOLECULE
C09
   32    26     1     0     0
SMALL
bcc


@<TRIPOS>ATOM
      1 N          -3.5380    0.4560   -1.5640 n3        1 C09     -0.339000
      2 C          -2.1890    0.7030   -1.5280 c1        1 C09      0.212000
      3 C4         -1.1790    0.6070   -0.5630 c1        1 C09     -0.173000
      4 N2         -1.2100    0.6510    0.8010 n1        1 C09     -0.123000
      5 C5          0.0750    0.5360    1.2580 c1        1 C09     -0.027000
      6 C6          0.2360    0.5550    2.8260 c2        1 C09      0.048000
      7 O           0.3110   -0.7610    3.3020 os        1 C09     -0.298000
      8 C7          0.3910   -0.8550    4.6790 c3        1 C09     -0.015000
      9 C8          0.4810   -2.3800    5.1020 c3        1 C09     -0.217000
     10 N3          0.8940    0.4210    0.1820 n2        1 C09     -0.182000
     11 C3          0.1170    0.4660   -0.9500 c1        1 C09      0.015000
     12 C2          0.4390    0.4160   -2.3190 c1        1 C09     -0.098000
     13 C9          1.8110    0.3720   -2.7310 c1        1 C09     -0.120250
     14 C10         2.1310    0.4240   -4.0720 c1        1 C09     -0.120250
     15 C11         1.1220    0.5200   -5.0260 c1        1 C09     -0.120250
     16 C12        -0.2380    0.5640   -4.6210 c1        1 C09     -0.120250
     17 C1         -0.5650    0.5110   -3.2700 c1        1 C09      0.067000
     18 N1         -1.8680    0.6540   -2.8800 n2        1 C09     -0.244000
     19 H1         -4.0270    0.4150   -0.7700 hn        1 C09      0.222500
     20 H2         -3.9530    0.3620   -2.3500 hn        1 C09      0.222500
     21 H4          1.1060    1.0650    3.0790 h4        1 C09      0.099000
     22 H5         -0.5190    0.9940    3.2200 h4        1 C09      0.099000
     23 H6         -0.3890   -0.4610    5.0670 h1        1 C09      0.071500
     24 H7          1.2470   -0.3450    5.0190 h1        1 C09      0.071500
     25 H8          0.5760   -2.4440    6.0780 hc        1 C09      0.087667
     26 H9         -0.3580   -2.8570    4.8180 hc        1 C09      0.087667
     27 H10         1.2710   -2.8030    4.6600 hc        1 C09      0.087667
     28 H12         2.5240    0.3050   -2.0580 ha        1 C09      0.133750
     29 H13         3.0860    0.3910   -4.3580 ha        1 C09      0.133750
     30 H14         1.3420    0.5560   -5.9480 ha        1 C09      0.133750
     31 H15        -0.9420    0.6320   -5.2890 ha        1 C09      0.133750
     32 H3          1.8170    0.3300    0.2060 DU        1 C09      0.272000
@<TRIPOS>BOND
     1    1    2 1   
     2    1   19 1   
     3    1   20 1   
     4    2   18 1   
     5    3   11 1   
     6    4    5 1   
     7    5   10 1   
     8    6    7 1   
     9    6   21 1   
    10    6   22 1   
    11    7    8 1   
    12    8    9 1   
    13    8   23 1   
    14    8   24 1   
    15    9   25 1   
    16    9   26 1   
    17    9   27 1   
    18   10   11 1   
    19   12   17 1   
    20   13   14 1   
    21   13   28 1   
    22   14   29 1   
    23   15   16 1   
    24   15   30 1   
    25   16   31 1   
    26   17   18 1   
@<TRIPOS>SUBSTRUCTURE
     1 C09         1 TEMP              0 ****  ****    0 ROOT
