@<TRIPOS>MOLECULE
C09
   32    34     1     0     0
SMALL
bcc


@<TRIPOS>ATOM
      1 N          -0.0670    0.0520    0.0080 nh        1 C09     -0.941500
      2 C           1.3180   -0.0110   -0.0160 ca        1 C09      0.733200
      3 C4          2.0380    0.0220    1.2460 ca        1 C09     -0.098900
      4 N2          1.5840    0.0230    2.5670 nc        1 C09     -0.550100
      5 C5          2.7080    0.0680    3.3260 cd        1 C09      0.374800
      6 C6          2.7090    0.1040    4.8250 c3        1 C09      0.123100
      7 O           4.0520   -0.0370    5.2860 os        1 C09     -0.442600
      8 C7          4.1250   -0.0370    6.7140 c3        1 C09      0.135400
      9 C8          5.5850   -0.1870    7.0720 c3        1 C09     -0.099100
     10 N3          3.8810    0.0980    2.5390 na        1 C09     -0.225300
     11 C3          3.4720    0.0620    1.2140 ca        1 C09     -0.030200
     12 C2          4.1820    0.0560   -0.0190 ca        1 C09     -0.163300
     13 C9          5.5870    0.0970   -0.1200 ca        1 C09     -0.100000
     14 C10         6.1960    0.0820   -1.3560 ca        1 C09     -0.149000
     15 C11         5.4100    0.0250   -2.5250 ca        1 C09     -0.114000
     16 C12         4.0360   -0.0150   -2.4580 ca        1 C09     -0.184300
     17 C1          3.3650    0.0010   -1.1940 ca        1 C09      0.460600
     18 N1          1.9840   -0.0440   -1.1840 nb        1 C09     -0.770000
     19 H1         -0.5050   -0.2060    0.8610 hn        1 C09      0.427300
     20 H2         -0.5580   -0.1600   -0.8290 hn        1 C09      0.427300
     21 H4          2.0790   -0.7370    5.2230 h1        1 C09      0.059700
     22 H5          2.2910    1.0890    5.1740 h1        1 C09      0.059700
     23 H6          3.7070    0.9280    7.1070 h1        1 C09      0.032200
     24 H7          3.5180   -0.8910    7.1170 h1        1 C09      0.032200
     25 H8          5.9930   -1.1400    6.6570 hc        1 C09      0.048367
     26 H9          6.1790    0.6610    6.6550 hc        1 C09      0.048367
     27 H10         5.6910   -0.1970    8.1830 hc        1 C09      0.048367
     28 H12         6.1910    0.1410    0.7980 ha        1 C09      0.122000
     29 H13         7.2910    0.1140   -1.4410 ha        1 C09      0.132000
     30 H14         5.9120    0.0140   -3.5050 ha        1 C09      0.132000
     31 H15         3.4340   -0.0570   -3.3790 ha        1 C09      0.149000
     32 H3          4.8040    0.1040    2.8880 hn        1 C09      0.321700
@<TRIPOS>BOND
     1    1    2 1   
     2    1   19 1   
     3    1   20 1   
     4    2    3 ar  
     5    2   18 ar  
     6    3    4 1   
     7    3   11 ar  
     8    4    5 2   
     9    5    6 1   
    10    5   10 1   
    11    6    7 1   
    12    6   21 1   
    13    6   22 1   
    14    7    8 1   
    15    8    9 1   
    16    8   23 1   
    17    8   24 1   
    18    9   25 1   
    19    9   26 1   
    20    9   27 1   
    21   10   11 1   
    22   10   32 1   
    23   11   12 ar  
    24   12   13 ar  
    25   12   17 ar  
    26   13   14 ar  
    27   13   28 1   
    28   14   15 ar  
    29   14   29 1   
    30   15   16 ar  
    31   15   30 1   
    32   16   17 ar  
    33   16   31 1   
    34   17   18 ar  
@<TRIPOS>SUBSTRUCTURE
     1 C09         1 TEMP              0 ****  ****    0 ROOT
