@<TRIPOS>MOLECULE
C09
   32    34     1     0     0
SMALL
bcc


@<TRIPOS>ATOM
      1 N          -0.0700    0.0380    0.0150 nv        1 C09     -0.941500
      2 C           1.3160   -0.0200   -0.0100 ca        1 C09      0.733200
      3 C4          2.0370    0.0220    1.2500 ca        1 C09     -0.098900
      4 N2          1.5850    0.0260    2.5710 nc        1 C09     -0.550100
      5 C5          2.7100    0.0780    3.3290 cd        1 C09      0.374800
      6 C6          2.7140    0.1220    4.8270 c3        1 C09      0.123100
      7 O           4.0550   -0.0320    5.2880 os        1 C09     -0.441600
      8 C7          4.1310   -0.0310    6.7150 c3        1 C09      0.135400
      9 C8          5.5890   -0.1960    7.0720 c3        1 C09     -0.099100
     10 N3          3.8820    0.1110    2.5410 na        1 C09     -0.225300
     11 C3          3.4710    0.0670    1.2160 ca        1 C09     -0.030200
     12 C2          4.1790    0.0580   -0.0180 ca        1 C09     -0.163300
     13 C9          5.5840    0.1040   -0.1210 ca        1 C09     -0.099000
     14 C10         6.1910    0.0860   -1.3580 ca        1 C09     -0.149000
     15 C11         5.4040    0.0220   -2.5260 ca        1 C09     -0.114000
     16 C12         4.0300   -0.0230   -2.4560 ca        1 C09     -0.184300
     17 C1          3.3610   -0.0050   -1.1910 ca        1 C09      0.460600
     18 N1          1.9800   -0.0540   -1.1800 nb        1 C09     -0.770000
     19 H1         -0.5610   -0.1790   -0.8200 hn        1 C09      0.427300
     20 H2         -0.5050   -0.2170    0.8690 hn        1 C09      0.427300
     21 H4          2.0740   -0.7090    5.2310 h1        1 C09      0.059700
     22 H5          2.3080    1.1130    5.1720 h1        1 C09      0.059700
     23 H6          3.5150   -0.8780    7.1200 h1        1 C09      0.032200
     24 H7          3.7230    0.9390    7.1080 h1        1 C09      0.032200
     25 H8          5.6970   -0.2050    8.1830 hc        1 C09      0.048367
     26 H9          6.1910    0.6460    6.6540 hc        1 C09      0.048367
     27 H10         5.9870   -1.1530    6.6570 hc        1 C09      0.048367
     28 H12         6.1900    0.1550    0.7960 ha        1 C09      0.122000
     29 H13         7.2860    0.1220   -1.4450 ha        1 C09      0.132000
     30 H14         5.9040    0.0080   -3.5060 ha        1 C09      0.132000
     31 H15         3.4270   -0.0720   -3.3770 ha        1 C09      0.149000
     32 H3          4.8060    0.1190    2.8880 hn        1 C09      0.321700
@<TRIPOS>BOND
     1    1    2 1   
     2    1   19 1   
     3    1   20 1   
     4    2    3 ar  
     5    2   18 ar  
     6    3    4 1   
     7    3   11 ar  
     8    4    5 2   
     9    5    6 1   
    10    5   10 1   
    11    6    7 1   
    12    6   21 1   
    13    6   22 1   
    14    7    8 1   
    15    8    9 1   
    16    8   23 1   
    17    8   24 1   
    18    9   25 1   
    19    9   26 1   
    20    9   27 1   
    21   10   11 1   
    22   10   32 1   
    23   11   12 ar  
    24   12   13 ar  
    25   12   17 ar  
    26   13   14 ar  
    27   13   28 1   
    28   14   15 ar  
    29   14   29 1   
    30   15   16 ar  
    31   15   30 1   
    32   16   17 ar  
    33   16   31 1   
    34   17   18 ar  
@<TRIPOS>SUBSTRUCTURE
     1 C09         1 TEMP              0 ****  ****    0 ROOT
