@<TRIPOS>MOLECULE
C0A
   41    41     1     0     0
SMALL
bcc


@<TRIPOS>ATOM
      1 C01         0.0000    0.0000    0.0000 c3        1 C0A      0.011100
      2 N02         1.4650    0.0000    0.0000 ny        1 C0A      0.335200
      3 C03         2.1400    0.0000    1.1660 c         1 C0A     -0.065900
      4 O04         1.5340   -0.0010    2.2170 o         1 C0A     -0.689100
      5 C05         3.6460   -0.0010    1.1660 c3        1 C0A      0.054500
      6 C06         4.1570   -1.2490    0.4440 c3        1 C0A      0.029900
      7 C07         5.6580   -1.1890    0.3350 ca        1 C0A     -0.144300
      8 C08         6.2480   -0.5890   -0.7620 ca        1 C0A     -0.081000
      9 C09         7.6260   -0.5330   -0.8610 ca        1 C0A     -0.026000
     10 C10         8.4140   -1.0760    0.1350 ca        1 C0A     -0.090300
     11 C11         9.9160   -1.0140    0.0270 c3        1 C0A      0.395700
     12 F12        10.4390   -2.3120    0.0540 f         1 C0A     -0.209800
     13 F13        10.4320   -0.2800    1.1000 f         1 C0A     -0.209800
     14 P14        10.3790   -0.2050   -1.5400 p5        1 C0A      0.620700
     15 O15         9.9010    1.3320   -1.5120 o         1 C0A     -0.396833
     16 O16         9.6670   -0.9660   -2.7670 o         1 C0A     -0.396833
     17 O17        11.8480   -0.2630   -1.7090 o         1 C0A     -0.396833
     18 C18         7.8240   -1.6770    1.2330 ca        1 C0A      0.073100
     19 Br1         8.9020   -2.4190    2.5980 br        1 C0A     -0.077100
     20 C20         6.4460   -1.7270    1.3350 ca        1 C0A     -0.128000
     21 N21         4.1350   -0.0010    2.5470 ny        1 C0A     -0.232900
     22 S22         4.5290    1.4280    3.2870 s6        1 C0A      0.784900
     23 C23         2.9580    2.3270    3.4010 c3        1 C0A      0.027700
     24 O24         5.4040    2.0680    2.3680 o         1 C0A     -0.548300
     25 O25         4.9780    1.0420    4.5780 o         1 C0A     -0.548300
     26 H1         -0.3610   -0.8720    0.5330 hx        1 C0A      0.060033
     27 H2         -0.3610    0.8970    0.4880 hx        1 C0A      0.060033
     28 H3         -0.3610   -0.0250   -1.0210 hx        1 C0A      0.060033
     29 H4          1.7560    0.8140   -0.5040 hn        1 C0A      0.164300
     30 H5          4.0070    0.8840    0.6550 hx        1 C0A      0.066700
     31 H6          3.7240   -1.2950   -0.5480 hc        1 C0A      0.029200
     32 H7          3.8710   -2.1310    1.0030 hc        1 C0A      0.029200
     33 H8          5.6320   -0.1990   -1.5630 ha        1 C0A      0.102000
     34 H9          8.0880   -0.0630   -1.7210 ha        1 C0A      0.169000
     35 H12         5.9830   -2.1970    2.1950 ha        1 C0A      0.105000
     36 H13         4.9500   -0.5810    2.5720 hn        1 C0A      0.334800
     37 H14         3.0970    3.2230    3.9940 h1        1 C0A      0.076700
     38 H15         2.2130    1.6950    3.8700 h1        1 C0A      0.076700
     39 H16         2.6250    2.6000    2.4070 h1        1 C0A      0.076700
     40 H022        1.7560   -0.8140   -0.5050 hn        1 C0A      0.164300
     41 H212        3.4330   -0.4390    3.1100 hn        1 C0A      0.334800
@<TRIPOS>BOND
     1    1    2 1   
     2    1   26 1   
     3    1   27 1   
     4    1   28 1   
     5    2    3 1   
     6    2   29 1   
     7    2   40 1   
     8    3    4 2   
     9    3    5 1   
    10    5    6 1   
    11    5   21 1   
    12    5   30 1   
    13    6    7 1   
    14    6   31 1   
    15    6   32 1   
    16    7    8 ar  
    17    7   20 ar  
    18    8    9 ar  
    19    8   33 1   
    20    9   10 ar  
    21    9   34 1   
    22   10   11 1   
    23   10   18 ar  
    24   11   12 1   
    25   11   13 1   
    26   11   14 1   
    27   14   15 1   
    28   14   16 1   
    29   14   17 1   
    30   18   19 1   
    31   18   20 ar  
    32   20   35 1   
    33   21   22 1   
    34   21   36 1   
    35   21   41 1   
    36   22   23 1   
    37   22   24 2   
    38   22   25 2   
    39   23   37 1   
    40   23   38 1   
    41   23   39 1   
@<TRIPOS>SUBSTRUCTURE
     1 C0A         1 TEMP              0 ****  ****    0 ROOT
