@<TRIPOS>MOLECULE
C0E
   25    25     1     0     0
SMALL
bcc


@<TRIPOS>ATOM
      1 OA2         1.6950   -1.0520   -2.4690 o         1 C0E     -0.802800
      2 CA1         2.3700   -1.0100   -1.3990 c         1 C0E      0.898800
      3 OA1         2.4670   -1.9430   -0.5650 o         1 C0E     -0.802800
      4 CA2         3.1040    0.3170   -1.1820 ce        1 C0E      0.040900
      5 OA3         2.9360    1.2310   -2.1860 oh        1 C0E     -0.520100
      6 CA3         3.9050    0.6970   -0.1350 cf        1 C0E     -0.022500
      7 FA3         4.4770    1.9380   -0.1360 f         1 C0E     -0.197500
      8 CA4         4.1550   -0.1710    0.9990 cf        1 C0E     -0.031000
      9 CA5         5.0410   -0.0090    1.9920 ce        1 C0E     -0.324200
     10 CA6         6.0030    1.0800    2.2050 c         1 C0E      0.608900
     11 OA4         5.8320    1.9690    3.0520 o         1 C0E     -0.555100
     12 CB1         7.2790    1.0070    1.4430 ca        1 C0E     -0.167600
     13 CB6         8.4310    1.5940    1.9810 ca        1 C0E     -0.057500
     14 CB2         7.3460    0.3620    0.2030 ca        1 C0E     -0.057500
     15 CB3         8.5500    0.2880   -0.4910 ca        1 C0E     -0.187000
     16 CB4         9.7060    0.8650    0.0640 ca        1 C0E      0.127900
     17 FB4        10.8860    0.7900   -0.6000 f         1 C0E     -0.153900
     18 CB5         9.6460    1.5240    1.3070 ca        1 C0E     -0.187000
     19 HOA3        2.3450    0.8230   -2.8540 ho        1 C0E      0.453000
     20 HA4         3.5150   -1.0830    0.9990 ha        1 C0E      0.194000
     21 HA5         5.0840   -0.7600    2.8010 ha        1 C0E      0.136000
     22 HB6         8.3630    2.1210    2.9460 ha        1 C0E      0.161000
     23 HB2         6.4280   -0.0730   -0.2320 ha        1 C0E      0.161000
     24 HB3         8.6040   -0.2130   -1.4680 ha        1 C0E      0.142500
     25 HB5        10.5520    1.9790    1.7270 ha        1 C0E      0.142500
@<TRIPOS>BOND
     1    1    2 1   
     2    2    3 1   
     3    2    4 1   
     4    4    5 1   
     5    4    6 2   
     6    5   19 1   
     7    6    7 1   
     8    6    8 1   
     9    8    9 2   
    10    8   20 1   
    11    9   10 1   
    12    9   21 1   
    13   10   11 2   
    14   10   12 1   
    15   12   13 ar  
    16   12   14 ar  
    17   13   18 ar  
    18   13   22 1   
    19   14   15 ar  
    20   14   23 1   
    21   15   16 ar  
    22   15   24 1   
    23   16   17 1   
    24   16   18 ar  
    25   18   25 1   
@<TRIPOS>SUBSTRUCTURE
     1 C0E         1 TEMP              0 ****  ****    0 ROOT
