@<TRIPOS>MOLECULE
C0E
   25    25     1     0     0
SMALL
bcc


@<TRIPOS>ATOM
      1 OA2        -5.7400   -0.5670   -0.3830 o         1 C0E     -0.794300
      2 CA1        -4.4800   -0.6750   -0.3460 c         1 C0E      0.896800
      3 OA1        -3.8170   -1.6810   -0.6890 o         1 C0E     -0.794300
      4 CA2        -3.7740    0.5860    0.1730 ce        1 C0E      0.061900
      5 OA3        -4.6120    1.6160    0.4890 oh        1 C0E     -0.517100
      6 CA3        -2.4300    0.8080    0.3540 cf        1 C0E     -0.032500
      7 FA3        -2.0030    2.0200    0.8250 f         1 C0E     -0.203500
      8 CA4        -1.4230   -0.1880    0.0670 cf        1 C0E      0.035000
      9 CA5        -0.0980    0.0450    0.2080 ce        1 C0E     -0.359200
     10 CA6         0.9210   -0.9510   -0.0770 c         1 C0E      0.585900
     11 OA4         0.6960   -2.1510   -0.3050 o         1 C0E     -0.561100
     12 CB1         2.3290   -0.4580   -0.0670 ca        1 C0E     -0.154600
     13 CB6         3.3450   -1.3030    0.3950 ca        1 C0E     -0.070500
     14 CB2         2.6520    0.8240   -0.5240 ca        1 C0E     -0.070500
     15 CB3         3.9710    1.2680   -0.5150 ca        1 C0E     -0.182500
     16 CB4         4.9840    0.4170   -0.0370 ca        1 C0E      0.120900
     17 FB4         6.2720    0.8440   -0.0180 f         1 C0E     -0.153900
     18 CB5         4.6690   -0.8760    0.4200 ca        1 C0E     -0.182500
     19 HOA3       -5.5290    1.3120    0.3140 ho        1 C0E      0.456000
     20 HA4        -1.8060   -1.1690   -0.2920 ha        1 C0E      0.204000
     21 HA5         0.2600    1.0230    0.5680 ha        1 C0E      0.128000
     22 HB6         3.0830   -2.3190    0.7320 ha        1 C0E      0.153500
     23 HB2         1.8570    1.4880   -0.9010 ha        1 C0E      0.153500
     24 HB3         4.2290    2.2730   -0.8760 ha        1 C0E      0.140500
     25 HB5         5.4680   -1.5350    0.7870 ha        1 C0E      0.140500
@<TRIPOS>BOND
     1    1    2 1   
     2    2    3 1   
     3    2    4 1   
     4    4    5 1   
     5    4    6 2   
     6    5   19 1   
     7    6    7 1   
     8    6    8 1   
     9    8    9 2   
    10    8   20 1   
    11    9   10 1   
    12    9   21 1   
    13   10   11 2   
    14   10   12 1   
    15   12   13 ar  
    16   12   14 ar  
    17   13   18 ar  
    18   13   22 1   
    19   14   15 ar  
    20   14   23 1   
    21   15   16 ar  
    22   15   24 1   
    23   16   17 1   
    24   16   18 ar  
    25   18   25 1   
@<TRIPOS>SUBSTRUCTURE
     1 C0E         1 TEMP              0 ****  ****    0 ROOT
