@<TRIPOS>MOLECULE
C0E
   25    19     1     0     0
SMALL
bcc


@<TRIPOS>ATOM
      1 OA2        -2.7860   -2.4040   -2.7290 o         1 C0E     -0.529000
      2 CA1        -3.2470   -1.2490   -2.9210 c1        1 C0E      0.346000
      3 OA1        -4.4290   -1.1030   -3.3300 o         1 C0E     -0.529000
      4 CA2        -2.3780   -0.0360   -2.6720 c1        1 C0E      0.021000
      5 OA3        -1.7660    0.6250   -3.7530 o         1 C0E     -0.295000
      6 CA3        -2.1900    0.4120   -1.4160 c1        1 C0E     -0.084000
      7 FA3        -2.7730   -0.2170   -0.3870 f         1 C0E     -0.103000
      8 CA4        -1.3210    1.6250   -1.1670 c2        1 C0E     -0.033000
      9 CA5        -0.4720    1.6420   -0.1210 c1        1 C0E     -0.298000
     10 CA6        -0.3870    0.4480    0.8030 c1        1 C0E      0.332000
     11 OA4        -1.3860   -0.1950    1.0580 o         1 C0E     -0.307000
     12 CB1         0.9400    0.0580    1.4150 c2        1 C0E     -0.147000
     13 CB6         1.0240   -0.2130    2.7710 c2        1 C0E     -0.071000
     14 CB2         2.0640   -0.0600    0.6130 c1        1 C0E     -0.047000
     15 CB3         3.2730   -0.4500    1.1680 c1        1 C0E     -0.177000
     16 CB4         3.3580   -0.7210    2.5250 c1        1 C0E      0.093000
     17 FB4         4.5270   -1.0900    3.0620 f         1 C0E     -0.119000
     18 CB5         2.2330   -0.6020    3.3260 c1        1 C0E     -0.191000
     19 HOA3       -1.5920    0.0390   -4.3990 ho        1 C0E      0.260000
     20 HA4        -1.3760    2.3950   -1.7640 ha        1 C0E      0.138000
     21 HA5         0.0890    2.4240    0.0390 ha        1 C0E      0.130000
     22 HB6         0.2330   -0.1290    3.3360 ha        1 C0E      0.145000
     23 HB2         2.0050    0.1310   -0.3420 ha        1 C0E      0.176000
     24 HB3         4.0640   -0.5360    0.6030 ha        1 C0E      0.150000
     25 HB5         2.2930   -0.7930    4.2820 ha        1 C0E      0.138000
@<TRIPOS>BOND
     1    1    2 1   
     2    2    3 1   
     3    4    6 1   
     4    5   19 1   
     5    6    8 1   
     6    8    9 1   
     7    8   20 1   
     8    9   21 1   
     9   10   11 1   
    10   10   12 1   
    11   12   13 1   
    12   12   14 1   
    13   13   18 1   
    14   13   22 1   
    15   14   23 1   
    16   15   16 1   
    17   15   24 1   
    18   16   17 1   
    19   18   25 1   
@<TRIPOS>SUBSTRUCTURE
     1 C0E         1 TEMP              0 ****  ****    0 ROOT
