@<TRIPOS>MOLECULE
C0K
   32    31     1     0     0
SMALL
bcc


@<TRIPOS>ATOM
      1 C1       -274.9700  232.0020  -26.4870 ca        1 C0K     -0.077000
      2 C2       -276.0200  231.2380  -26.0490 ca        1 C0K     -0.258000
      3 C3       -275.8540  229.8660  -25.6450 ca        1 C0K      0.118000
      4 C4       -274.5270  229.3370  -25.7410 ca        1 C0K     -0.316000
      5 C5       -273.4670  230.1180  -26.1840 ca        1 C0K      0.125000
      6 C6       -273.6660  231.4680  -26.5650 ca        1 C0K     -0.170000
      7 C7       -276.9270  229.1380  -25.1960 c2        1 C0K     -0.470000
      8 P8       1934.8890-1592.4850  180.8230 p3        1 C0K      2.361000
      9 O9       1933.9210-1593.4930  181.2910 o         1 C0K     -1.120000
     10 O10      1935.3100-1591.3950  181.7210 o         1 C0K     -1.120000
     11 O11      1935.4360-1592.5670  179.4570 o         1 C0K     -1.120000
     12 C12      -276.8630  227.7520  -24.7180 c3        1 C0K     -0.036000
     13 C13      -276.9430  226.7570  -25.8730 c3        1 C0K     -0.191000
     14 C14      -276.8710  225.3300  -25.3940 c2        1 C0K      0.263000
     15 O15      -277.8630  224.5820  -25.3400 o         1 C0K     -0.366000
     16 N16      -275.6170  224.8570  -24.8590 n         1 C0K     -0.176000
     17 C17      -275.4620  223.4110  -24.7880 c3        1 C0K     -0.110000
     18 O18      -274.5400  225.4050  -25.4380 oh        1 C0K     -0.255000
     19 F19      -272.2180  229.5830  -26.2580 f         1 C0K     -0.146000
     20 F20      -272.6270  232.2340  -26.9980 f         1 C0K     -0.149000
     21 H1       -275.1220  233.0490  -26.7880 ha        1 C0K      0.099000
     22 H2       -277.0290  231.6680  -25.9940 ha        1 C0K      0.101000
     23 H4       -274.3440  228.2920  -25.4670 ha        1 C0K      0.102000
     24 H7       -277.9190  229.6040  -25.1760 ha        1 C0K      0.093000
     25 H12      -275.9140  227.5680  -24.1440 hc        1 C0K      0.050500
     26 H12A     -277.7170  227.5470  -24.0160 hc        1 C0K      0.050500
     27 H13      -277.9130  226.8940  -26.4150 hc        1 C0K      0.113000
     28 H13A     -276.1050  226.9620  -26.5910 hc        1 C0K      0.113000
     29 H17      -275.3620  222.9370  -25.7990 h1        1 C0K      0.084000
     30 H17A     -274.5400  223.1880  -24.1920 h1        1 C0K      0.084000
     31 H17B     -276.3660  222.9990  -24.2720 h1        1 C0K      0.084000
     32 HO18     -274.3820  226.2410  -24.9520 ho        1 C0K      0.235000
@<TRIPOS>BOND
     1    1    2 1   
     2    1    6 1   
     3    1   21 1   
     4    2    3 1   
     5    2   22 1   
     6    3    4 1   
     7    3    7 1   
     8    4    5 1   
     9    4   23 1   
    10    5    6 1   
    11    5   19 1   
    12    6   20 1   
    13    7   12 1   
    14    7   24 1   
    15    8    9 1   
    16    8   10 1   
    17    8   11 1   
    18   12   13 1   
    19   12   25 1   
    20   12   26 1   
    21   13   14 1   
    22   13   27 1   
    23   13   28 1   
    24   14   15 1   
    25   14   16 1   
    26   16   17 1   
    27   16   18 1   
    28   17   29 1   
    29   17   30 1   
    30   17   31 1   
    31   18   32 1   
@<TRIPOS>SUBSTRUCTURE
     1 C0K         1 TEMP              0 ****  ****    0 ROOT
