@<TRIPOS>MOLECULE
C0K
   32    31     1     0     0
SMALL
bcc


@<TRIPOS>ATOM
      1 C1         -1.6660   -0.4390    1.0810 ca        1 C0K     -0.074000
      2 C2         -0.3380   -0.1140    1.0020 ca        1 C0K     -0.270000
      3 C3          0.6850   -0.9030    1.6450 ca        1 C0K      0.096000
      4 C4          0.2290   -2.0540    2.3750 ca        1 C0K     -0.303000
      5 C5         -1.1160   -2.3730    2.4470 ca        1 C0K      0.121000
      6 C6         -2.0970   -1.5720    1.8020 ca        1 C0K     -0.206000
      7 C7          2.0040   -0.5540    1.5500 c2        1 C0K     -0.427000
      8 P8         11.2540    1.2840    1.4370 p3        1 C0K      2.385000
      9 O9         12.3940    0.8060    2.2370 o         1 C0K     -1.125000
     10 O10         9.9040    0.7400    1.6890 o         1 C0K     -1.125000
     11 O11        11.4620    2.2990    0.3910 o         1 C0K     -1.125000
     12 C12         3.1040   -1.3080    2.1770 c3        1 C0K     -0.057000
     13 C13         4.4510   -0.6710    1.8850 c3        1 C0K     -0.161000
     14 C14         5.5960   -1.4200    2.5230 c2        1 C0K      0.275000
     15 O15         5.4560   -2.4880    3.1490 o         1 C0K     -0.376000
     16 N16         6.9280   -0.9400    2.2900 n         1 C0K     -0.158000
     17 C17         7.9300   -1.3520    3.2670 c3        1 C0K     -0.145000
     18 O18         6.9570    0.3770    2.0410 oh        1 C0K     -0.284000
     19 F19        -1.5190   -3.4710    3.1470 f         1 C0K     -0.155000
     20 F20        -3.4210   -1.8900    1.8760 f         1 C0K     -0.160000
     21 H1         -2.4280    0.1790    0.5830 ha        1 C0K      0.087000
     22 H2         -0.0190    0.7710    0.4380 ha        1 C0K      0.095000
     23 H4          0.9700   -2.6850    2.8800 ha        1 C0K      0.119000
     24 H7          2.2840    0.3380    0.9770 ha        1 C0K      0.090000
     25 H12         2.9630   -1.3650    3.2920 hc        1 C0K      0.058500
     26 H12A        3.1180   -2.3720    1.8120 hc        1 C0K      0.058500
     27 H13         4.6250   -0.6300    0.7780 hc        1 C0K      0.106000
     28 H13A        4.4690    0.3860    2.2620 hc        1 C0K      0.106000
     29 H17         7.6840   -1.0100    4.3060 h1        1 C0K      0.092667
     30 H17A        7.9730   -2.4700    3.2530 h1        1 C0K      0.092667
     31 H17B        8.9180   -0.9130    2.9570 h1        1 C0K      0.092667
     32 HO18        7.8270    0.5420    1.6050 ho        1 C0K      0.278000
@<TRIPOS>BOND
     1    1    2 1   
     2    1    6 1   
     3    1   21 1   
     4    2    3 1   
     5    2   22 1   
     6    3    4 1   
     7    3    7 1   
     8    4    5 1   
     9    4   23 1   
    10    5    6 1   
    11    5   19 1   
    12    6   20 1   
    13    7   12 1   
    14    7   24 1   
    15    8    9 1   
    16    8   10 1   
    17    8   11 1   
    18   12   13 1   
    19   12   25 1   
    20   12   26 1   
    21   13   14 1   
    22   13   27 1   
    23   13   28 1   
    24   14   15 1   
    25   14   16 1   
    26   16   17 1   
    27   16   18 1   
    28   17   29 1   
    29   17   30 1   
    30   17   31 1   
    31   18   32 1   
@<TRIPOS>SUBSTRUCTURE
     1 C0K         1 TEMP              0 ****  ****    0 ROOT
