@<TRIPOS>MOLECULE
C0K
   33    33     1     0     0
SMALL
bcc


@<TRIPOS>ATOM
      1 C1          0.0000    0.0000    0.0000 ca        1 C0K     -0.121000
      2 C2          1.3830    0.0000    0.0000 ca        1 C0K     -0.102000
      3 C3          2.0750    0.0000    1.1960 ca        1 C0K      0.043700
      4 C4          1.3870    0.0000    2.3950 ca        1 C0K     -0.111000
      5 C5          0.0030    0.0010    2.3990 ca        1 C0K      0.069900
      6 C6         -0.6910    0.0060    1.2000 ca        1 C0K      0.014900
      7 C7          3.5830   -0.0010    1.1920 c3        1 C0K     -0.035600
      8 P8          4.1930    1.6590    1.6360 p5        1 C0K      0.506700
      9 O9          3.5970    2.7420    0.6040 o         1 C0K     -0.591833
     10 O10         3.7180    2.0240    3.1300 o         1 C0K     -0.591833
     11 O11         5.6710    1.6750    1.5690 o         1 C0K     -0.591833
     12 C12         4.0940   -1.0210    2.2120 c3        1 C0K      0.030600
     13 C13         5.6160   -1.1290    2.1060 c3        1 C0K     -0.116400
     14 C14         6.1070   -2.2260    3.0150 c         1 C0K      0.330100
     15 O15         5.3170   -2.8590    3.6820 o         1 C0K     -0.575100
     16 N16         7.4240   -2.5030    3.0870 nx        1 C0K      0.198300
     17 C17         7.9010   -3.5700    3.9710 c3        1 C0K      0.018100
     18 O18         8.3460   -1.7640    2.3070 oh        1 C0K     -0.486300
     19 F19        -0.6700    0.0020    3.5700 f         1 C0K     -0.137900
     20 F20        -2.0430    0.0070    1.2000 f         1 C0K     -0.142900
     21 H1         -0.5420    0.0000   -0.9380 ha        1 C0K      0.100000
     22 H2          1.9240   -0.0000   -0.9390 ha        1 C0K      0.108000
     23 H4          1.9320    0.0000    3.3320 ha        1 C0K      0.151000
     24 H7          3.9420   -0.2660    0.2050 hc        1 C0K      0.032700
     25 H12         3.6480   -1.9880    2.0110 hc        1 C0K      0.013200
     26 H12A        3.8230   -0.7000    3.2110 hc        1 C0K      0.013200
     27 H13         6.0660   -0.1880    2.3990 hc        1 C0K      0.083200
     28 H13A        5.8910   -1.3580    1.0830 hc        1 C0K      0.083200
     29 H17         8.9720   -3.4770    4.1040 hx        1 C0K      0.044033
     30 H17A        7.6740   -4.5330    3.5300 hx        1 C0K      0.044033
     31 H17B        7.4090   -3.4890    4.9320 hx        1 C0K      0.044033
     32 HO18        8.7850   -2.3430    1.7060 ho        1 C0K      0.407000
     33 H161        7.5220   -1.8440    3.8330 hn        1 C0K      0.267800
@<TRIPOS>BOND
     1    1    2 ar  
     2    1    6 ar  
     3    1   21 1   
     4    2    3 ar  
     5    2   22 1   
     6    3    4 ar  
     7    3    7 1   
     8    4    5 ar  
     9    4   23 1   
    10    5    6 ar  
    11    5   19 1   
    12    6   20 1   
    13    7    8 1   
    14    7   12 1   
    15    7   24 1   
    16    8    9 1   
    17    8   10 1   
    18    8   11 1   
    19   12   13 1   
    20   12   25 1   
    21   12   26 1   
    22   13   14 1   
    23   13   27 1   
    24   13   28 1   
    25   14   15 2   
    26   14   16 1   
    27   16   17 1   
    28   16   18 1   
    29   16   33 1   
    30   17   29 1   
    31   17   30 1   
    32   17   31 1   
    33   18   32 1   
@<TRIPOS>SUBSTRUCTURE
     1 C0K         1 TEMP              0 ****  ****    0 ROOT
