@<TRIPOS>MOLECULE
C0K
   32    29     1     0     0
SMALL
bcc


@<TRIPOS>ATOM
      1 C1         -3.6520    1.6550   -0.7380 c1        1 C0K     -0.076000
      2 C2         -2.2570    1.6260   -0.7570 c1        1 C0K     -0.264000
      3 C3         -1.5510    1.1840    0.3650 c1        1 C0K      0.116000
      4 C4         -2.2340    0.7780    1.4910 c2        1 C0K     -0.314000
      5 C5         -3.6320    0.8070    1.5110 c1        1 C0K      0.123000
      6 C6         -4.3350    1.2480    0.3910 c2        1 C0K     -0.175000
      7 C7         -0.0620    1.2090    0.3670 c2        1 C0K     -0.471000
      8 P8          0.5310    2.3970    1.6560 p5        1 C0K      1.402500
      9 O9         -0.5410    3.4620    1.9040 o         1 C0K     -0.800500
     10 O10         0.8060    1.6460    2.9500 o         1 C0K     -0.800500
     11 O11         1.8090    3.0680    1.1750 o         1 C0K     -0.800500
     12 C12         0.4670   -0.1780    0.6720 c3        1 C0K     -0.040000
     13 C13         1.7530   -0.4270   -0.1500 c3        1 C0K     -0.186000
     14 C14         1.6280   -1.7510   -0.9010 c2        1 C0K      0.261000
     15 O15         0.5780   -2.0450   -1.4360 o         1 C0K     -0.341000
     16 N16         2.7560   -2.5530   -1.0950 n         1 C0K     -0.191000
     17 C17         3.0730   -3.0320   -2.4080 c3        1 C0K     -0.113000
     18 O18         3.5510   -2.9330    0.0100 oh        1 C0K     -0.250000
     19 F19        -4.2820    0.4860    2.6090 f         1 C0K     -0.147000
     20 F20        -5.6780    1.2340    0.3940 f         1 C0K     -0.150000
     21 H1         -4.1500    1.9670   -1.5310 ha        1 C0K      0.097000
     22 H2         -1.7760    1.9120   -1.5510 ha        1 C0K      0.099000
     23 H4         -1.7460    0.4170    2.2480 ha        1 C0K      0.114000
     24 H7          0.2650    1.4980   -0.5250 ha        1 C0K      0.090000
     25 H12        -0.2140   -0.8500    0.4290 hc        1 C0K      0.060000
     26 H12A        0.6700   -0.2500    1.6320 hc        1 C0K      0.060000
     27 H13         2.5300   -0.4630    0.4580 hc        1 C0K      0.112000
     28 H13A        1.8750    0.3000   -0.7910 hc        1 C0K      0.112000
     29 H17         2.7600   -2.3720   -3.0870 h1        1 C0K      0.085333
     30 H17A        2.6280   -3.8890   -2.5590 h1        1 C0K      0.085333
     31 H17B        4.0280   -3.1470   -2.4880 h1        1 C0K      0.085333
     32 HO18        4.4010   -3.0070   -0.2470 ho        1 C0K      0.217000
@<TRIPOS>BOND
     1    1    6 1   
     2    1   21 1   
     3    2    3 1   
     4    2   22 1   
     5    3    4 1   
     6    4    5 1   
     7    4   23 1   
     8    5    6 1   
     9    6   20 1   
    10    7    8 1   
    11    7   12 1   
    12    7   24 1   
    13    8    9 1   
    14    8   10 1   
    15    8   11 1   
    16   12   13 1   
    17   12   25 1   
    18   12   26 1   
    19   13   14 1   
    20   13   27 1   
    21   13   28 1   
    22   14   15 1   
    23   14   16 1   
    24   16   17 1   
    25   16   18 1   
    26   17   29 1   
    27   17   30 1   
    28   17   31 1   
    29   18   32 1   
@<TRIPOS>SUBSTRUCTURE
     1 C0K         1 TEMP              0 ****  ****    0 ROOT
