@<TRIPOS>MOLECULE
C0M
   62    66     1     0     0
SMALL
bcc


@<TRIPOS>ATOM
      1 C1          0.0040   -0.1210    0.0360 c3        1 C0M     -0.050100
      2 C2          1.4730   -0.2280    0.1190 cc        1 C0M     -0.024300
      3 O26        -1.5730    1.0210    3.1200 o         1 C0M     -0.603100
      4 C25        -0.4740    0.4830    3.3640 c         1 C0M      0.652100
      5 C27         0.3090    0.8330    4.6150 c3        1 C0M     -0.149400
      6 C28        -0.5350    1.7400    5.5150 c3        1 C0M      0.176800
      7 N29         0.2000    2.1940    6.6880 n3        1 C0M     -0.738600
      8 C34         0.2480    1.1850    7.7380 c3        1 C0M      0.172800
      9 C33         1.0190    1.6370    8.9760 c3        1 C0M     -0.077900
     10 C32         0.4880    2.9550    9.4960 c3        1 C0M     -0.078400
     11 C31         0.4810    3.9900    8.3930 c3        1 C0M     -0.077900
     12 C30        -0.2760    3.4860    7.1660 c3        1 C0M      0.172800
     13 N5          0.0080   -0.5240    2.5200 n         1 C0M     -0.451800
     14 C6         -0.6680   -0.7640    1.2580 c3        1 C0M      0.079000
     15 C4          1.3980   -0.9340    2.5340 c3        1 C0M      0.173300
     16 C3          2.1310   -0.5820    1.2850 cd        1 C0M     -0.230400
     17 S9          3.7870   -0.5950    1.1070 ss        1 C0M      0.165200
     18 C8          3.7260   -0.1380   -0.5220 cd        1 C0M      0.070500
     19 C7          2.3930    0.0330   -0.9430 cc        1 C0M     -0.126000
     20 C10         2.0140    0.4100   -2.2440 cg        1 C0M      0.261800
     21 N11         1.7000    0.7210   -3.3210 n1        1 C0M     -0.380800
     22 N12         4.8260    0.0410   -1.3420 n         1 C0M     -0.438100
     23 C13         6.1470   -0.1050   -0.9220 c         1 C0M      0.675700
     24 O14         6.4100   -0.4270    0.2500 o         1 C0M     -0.571100
     25 C15         7.1880    0.1060   -1.9680 ca        1 C0M     -0.137600
     26 C20         7.9020   -0.9870   -2.4120 ca        1 C0M     -0.070000
     27 C19         8.8930   -0.8310   -3.4090 ca        1 C0M     -0.139000
     28 C18         9.1520    0.4080   -3.9380 ca        1 C0M     -0.089000
     29 C16         7.4480    1.4090   -2.4800 ca        1 C0M     -0.010000
     30 C21         6.7710    2.5710   -2.0160 ca        1 C0M     -0.132000
     31 C22         7.0540    3.8060   -2.5460 ca        1 C0M     -0.109000
     32 C23         8.0290    3.9450   -3.5630 ca        1 C0M     -0.125000
     33 C24         8.7100    2.8440   -4.0200 ca        1 C0M     -0.111000
     34 C17         8.4410    1.5530   -3.4860 ca        1 C0M     -0.043000
     35 H11        -0.2840    0.9640   -0.0290 hc        1 C0M      0.071200
     36 H12        -0.3760   -0.6270   -0.8910 hc        1 C0M      0.071200
     37 H271        1.2520    1.3630    4.3190 hc        1 C0M      0.072200
     38 H272        0.5880   -0.1050    5.1630 hc        1 C0M      0.072200
     39 H281       -0.8490    2.6350    4.9040 h1        1 C0M      0.051700
     40 H282       -1.4790    1.1850    5.7920 h1        1 C0M      0.051700
     41 H341        0.7540    0.2750    7.3080 h1        1 C0M      0.029450
     42 H342       -0.7910    0.8740    8.0600 h1        1 C0M      0.029450
     43 H331        2.1070    1.7410    8.7270 hc        1 C0M      0.046450
     44 H332        0.9220    0.8440    9.7620 hc        1 C0M      0.046450
     45 H321       -0.5540    2.8130    9.8870 hc        1 C0M      0.040200
     46 H322        1.1220    3.3110   10.3490 hc        1 C0M      0.040200
     47 H311       -0.0130    4.9310    8.7490 hc        1 C0M      0.046450
     48 H312        1.5350    4.2440    8.1080 hc        1 C0M      0.046450
     49 H301       -1.3780    3.4530    7.4150 h1        1 C0M      0.029450
     50 H302       -0.1380    4.2280    6.3290 h1        1 C0M      0.029450
     51 H61        -1.7280   -0.3910    1.3290 h1        1 C0M      0.070200
     52 H62        -0.6920   -1.8820    1.1090 h1        1 C0M      0.070200
     53 H41         1.4070   -2.0610    2.6470 h1        1 C0M      0.060200
     54 H42         1.9350   -0.4970    3.4220 h1        1 C0M      0.060200
     55 HN12        4.6480    0.3160   -2.2840 hn        1 C0M      0.343500
     56 H20         7.7100   -1.9880   -1.9950 ha        1 C0M      0.148000
     57 H19         9.4490   -1.7180   -3.7490 ha        1 C0M      0.143000
     58 H18         9.9180    0.5390   -4.7190 ha        1 C0M      0.140000
     59 H21         6.0270    2.4730   -1.2110 ha        1 C0M      0.140000
     60 H22         6.5270    4.7020   -2.1850 ha        1 C0M      0.140000
     61 H23         8.2340    4.9440   -3.9750 ha        1 C0M      0.139000
     62 H24         9.4760    2.9390   -4.8040 ha        1 C0M      0.137000
@<TRIPOS>BOND
     1    1    2 1   
     2    1   14 1   
     3    1   35 1   
     4    1   36 1   
     5    2   16 2   
     6    2   19 1   
     7    3    4 2   
     8    4    5 1   
     9    4   13 1   
    10    5    6 1   
    11    5   37 1   
    12    5   38 1   
    13    6    7 1   
    14    6   39 1   
    15    6   40 1   
    16    7    8 1   
    17    7   12 1   
    18    8    9 1   
    19    8   41 1   
    20    8   42 1   
    21    9   10 1   
    22    9   43 1   
    23    9   44 1   
    24   10   11 1   
    25   10   45 1   
    26   10   46 1   
    27   11   12 1   
    28   11   47 1   
    29   11   48 1   
    30   12   49 1   
    31   12   50 1   
    32   13   14 1   
    33   13   15 1   
    34   14   51 1   
    35   14   52 1   
    36   15   16 1   
    37   15   53 1   
    38   15   54 1   
    39   16   17 1   
    40   17   18 1   
    41   18   19 2   
    42   18   22 1   
    43   19   20 1   
    44   20   21 3   
    45   22   23 1   
    46   22   55 1   
    47   23   24 2   
    48   23   25 1   
    49   25   26 ar  
    50   25   29 ar  
    51   26   27 ar  
    52   26   56 1   
    53   27   28 ar  
    54   27   57 1   
    55   28   34 ar  
    56   28   58 1   
    57   29   30 ar  
    58   29   34 ar  
    59   30   31 ar  
    60   30   59 1   
    61   31   32 ar  
    62   31   60 1   
    63   32   33 ar  
    64   32   61 1   
    65   33   34 ar  
    66   33   62 1   
@<TRIPOS>SUBSTRUCTURE
     1 C0M         1 TEMP              0 ****  ****    0 ROOT
