@<TRIPOS>MOLECULE
C0M
   62    66     1     0     0
SMALL
bcc


@<TRIPOS>ATOM
      1 C1         -0.0610   -0.8410    0.2360 c3        1 C0M     -0.050100
      2 C2          1.4020   -0.6550    0.1910 cc        1 C0M     -0.023300
      3 O26        -1.6120    0.3700    3.3070 o         1 C0M     -0.603100
      4 C25        -0.4130    0.0880    3.5040 c         1 C0M      0.652100
      5 C27         0.3710    0.7410    4.6260 c3        1 C0M     -0.149400
      6 C28        -0.5710    1.5840    5.4910 c3        1 C0M      0.176800
      7 N29         0.1400    2.3170    6.5290 n3        1 C0M     -0.738600
      8 C34         0.4600    1.4830    7.6800 c3        1 C0M      0.172800
      9 C33         1.2120    2.2300    8.7790 c3        1 C0M     -0.077900
     10 C32         0.4690    3.4820    9.1910 c3        1 C0M     -0.078400
     11 C31         0.1810    4.3440    7.9800 c3        1 C0M     -0.077900
     12 C30        -0.5460    3.5500    6.8970 c3        1 C0M      0.172800
     13 N5          0.1990   -0.9100    2.7380 n         1 C0M     -0.451800
     14 C6         -0.5020   -1.4370    1.5810 c3        1 C0M      0.079000
     15 C4          1.6400   -1.0440    2.6660 c3        1 C0M      0.173300
     16 C3          2.1990   -0.7230    1.3220 cd        1 C0M     -0.231400
     17 S9          3.8060   -0.4430    0.9900 ss        1 C0M      0.167200
     18 C8          3.5400   -0.2220   -0.6670 cd        1 C0M      0.071500
     19 C7          2.1730   -0.3650   -0.9770 cc        1 C0M     -0.127000
     20 C10         1.6370   -0.2420   -2.2710 cg        1 C0M      0.262800
     21 N11         1.1960   -0.1430   -3.3440 n1        1 C0M     -0.382800
     22 N12         4.5200    0.0560   -1.6020 ns        1 C0M     -0.438100
     23 C13         5.8730    0.2060   -1.2980 c         1 C0M      0.676700
     24 O14         6.2690    0.0900   -0.1240 o         1 C0M     -0.577100
     25 C15         6.7660    0.4940   -2.4550 ca        1 C0M     -0.132600
     26 C20         6.7650   -0.3540   -3.5430 ca        1 C0M     -0.088000
     27 C19         7.6180   -0.1070   -4.6420 ca        1 C0M     -0.141000
     28 C18         8.4470    0.9880   -4.6420 ca        1 C0M     -0.086000
     29 C16         7.6240    1.6330   -2.4190 ca        1 C0M      0.000000
     30 C21         7.6680    2.5290   -1.3150 ca        1 C0M     -0.119000
     31 C22         8.5020    3.6190   -1.3320 ca        1 C0M     -0.115000
     32 C23         9.3350    3.8700   -2.4490 ca        1 C0M     -0.122000
     33 C24         9.3190    3.0190   -3.5260 ca        1 C0M     -0.117000
     34 C17         8.4660    1.8800   -3.5360 ca        1 C0M     -0.044000
     35 H11        -0.3970   -1.5260   -0.5870 hc        1 C0M      0.071700
     36 H12        -0.5640    0.1520    0.0760 hc        1 C0M      0.071700
     37 H271        1.1660    1.3960    4.1810 hc        1 C0M      0.072200
     38 H272        0.8690   -0.0460    5.2500 hc        1 C0M      0.072200
     39 H281       -1.3630    0.9020    5.9190 h1        1 C0M      0.052200
     40 H282       -1.0980    2.3150    4.8140 h1        1 C0M      0.052200
     41 H341       -0.4720    1.0290    8.1320 h1        1 C0M      0.029450
     42 H342        1.1040    0.6350    7.3130 h1        1 C0M      0.029450
     43 H331        2.2380    2.5020    8.4180 hc        1 C0M      0.046450
     44 H332        1.3290    1.5440    9.6570 hc        1 C0M      0.046450
     45 H321       -0.4950    3.2010    9.6910 hc        1 C0M      0.040200
     46 H322        1.0780    4.0600    9.9330 hc        1 C0M      0.040200
     47 H311       -0.4630    5.2140    8.2700 hc        1 C0M      0.046450
     48 H312        1.1420    4.7500    7.5700 hc        1 C0M      0.046450
     49 H301       -1.6000    3.3440    7.2510 h1        1 C0M      0.029450
     50 H302       -0.6160    4.1870    5.9700 h1        1 C0M      0.029450
     51 H61        -0.3120   -2.5480    1.5630 h1        1 C0M      0.070200
     52 H62        -1.6080   -1.2650    1.7100 h1        1 C0M      0.070200
     53 H41         1.8830   -2.1240    2.9040 h1        1 C0M      0.059700
     54 H42         2.1410   -0.4020    3.4450 h1        1 C0M      0.059700
     55 HN12        4.2210    0.1800   -2.5460 hn        1 C0M      0.340500
     56 H20         6.1130   -1.2410   -3.5680 ha        1 C0M      0.142000
     57 H19         7.6040   -0.8030   -5.4940 ha        1 C0M      0.143000
     58 H18         9.1110    1.1930   -5.4960 ha        1 C0M      0.140000
     59 H21         7.0340    2.3220   -0.4370 ha        1 C0M      0.153000
     60 H22         8.5360    4.3090   -0.4750 ha        1 C0M      0.139000
     61 H23         9.9930    4.7520   -2.4400 ha        1 C0M      0.137000
     62 H24         9.9640    3.2000   -4.3990 ha        1 C0M      0.136000
@<TRIPOS>BOND
     1    1    2 1   
     2    1   14 1   
     3    1   35 1   
     4    1   36 1   
     5    2   16 2   
     6    2   19 1   
     7    3    4 2   
     8    4    5 1   
     9    4   13 1   
    10    5    6 1   
    11    5   37 1   
    12    5   38 1   
    13    6    7 1   
    14    6   39 1   
    15    6   40 1   
    16    7    8 1   
    17    7   12 1   
    18    8    9 1   
    19    8   41 1   
    20    8   42 1   
    21    9   10 1   
    22    9   43 1   
    23    9   44 1   
    24   10   11 1   
    25   10   45 1   
    26   10   46 1   
    27   11   12 1   
    28   11   47 1   
    29   11   48 1   
    30   12   49 1   
    31   12   50 1   
    32   13   14 1   
    33   13   15 1   
    34   14   51 1   
    35   14   52 1   
    36   15   16 1   
    37   15   53 1   
    38   15   54 1   
    39   16   17 1   
    40   17   18 1   
    41   18   19 2   
    42   18   22 1   
    43   19   20 1   
    44   20   21 3   
    45   22   23 1   
    46   22   55 1   
    47   23   24 2   
    48   23   25 1   
    49   25   26 ar  
    50   25   29 ar  
    51   26   27 ar  
    52   26   56 1   
    53   27   28 ar  
    54   27   57 1   
    55   28   34 ar  
    56   28   58 1   
    57   29   30 ar  
    58   29   34 ar  
    59   30   31 ar  
    60   30   59 1   
    61   31   32 ar  
    62   31   60 1   
    63   32   33 ar  
    64   32   61 1   
    65   33   34 ar  
    66   33   62 1   
@<TRIPOS>SUBSTRUCTURE
     1 C0M         1 TEMP              0 ****  ****    0 ROOT
