@<TRIPOS>MOLECULE
C0M
   62    66     1     0     0
SMALL
bcc


@<TRIPOS>ATOM
      1 C1         -3.3440   -0.8610    6.4390 c3        1 C0M     -0.050100
      2 C2         -4.3390    0.0830    6.9840 cc        1 C0M     -0.024300
      3 O26        -2.1930   -0.0170    3.0830 o         1 C0M     -0.603100
      4 C25        -3.3260    0.4630    3.2900 c         1 C0M      0.652100
      5 C27        -3.8110    1.6810    2.5300 c3        1 C0M     -0.149400
      6 C28        -2.8030    2.0420    1.4350 c3        1 C0M      0.176800
      7 N29        -3.1620    3.2670    0.7330 n3        1 C0M     -0.738600
      8 C34        -4.1910    3.0490   -0.2750 c3        1 C0M      0.172800
      9 C33        -4.5890    4.3220   -1.0190 c3        1 C0M     -0.077900
     10 C32        -3.3750    5.0110   -1.6040 c3        1 C0M     -0.078400
     11 C31        -2.3390    5.2540   -0.5270 c3        1 C0M     -0.077900
     12 C30        -1.9930    3.9610    0.2080 c3        1 C0M      0.172800
     13 N5         -4.2010   -0.1820    4.1720 n         1 C0M     -0.451800
     14 C6         -3.6940   -1.2620    4.9980 c3        1 C0M      0.079000
     15 C4         -5.3630    0.4870    4.7210 c3        1 C0M      0.173300
     16 C3         -5.2670    0.7340    6.1880 cd        1 C0M     -0.230400
     17 S9         -6.2450    1.7640    7.0560 ss        1 C0M      0.165200
     18 C8         -5.5000    1.4040    8.5340 cd        1 C0M      0.070500
     19 C7         -4.4650    0.4660    8.3550 cc        1 C0M     -0.126000
     20 C10        -3.6610   -0.0350    9.3940 cg        1 C0M      0.261800
     21 N11        -2.9950   -0.4490   10.2550 n1        1 C0M     -0.380800
     22 N12        -5.8530    1.9450    9.7570 n         1 C0M     -0.438100
     23 C13        -6.8610    2.8920    9.9330 c         1 C0M      0.675700
     24 O14        -7.5260    3.3010    8.9640 o         1 C0M     -0.571100
     25 C15        -7.1030    3.3290   11.3370 ca        1 C0M     -0.137600
     26 C20        -8.2700    2.9340   11.9560 ca        1 C0M     -0.070000
     27 C19        -8.5350    3.3230   13.2890 ca        1 C0M     -0.139000
     28 C18        -7.6320    4.0960   13.9760 ca        1 C0M     -0.089000
     29 C16        -6.1570    4.1520   12.0140 ca        1 C0M     -0.010000
     30 C21        -4.9640    4.6220   11.3980 ca        1 C0M     -0.132000
     31 C22        -4.0790    5.4080   12.0950 ca        1 C0M     -0.109000
     32 C23        -4.3420    5.7680   13.4380 ca        1 C0M     -0.125000
     33 C24        -5.4920    5.3410   14.0540 ca        1 C0M     -0.111000
     34 C17        -6.4290    4.5290   13.3560 ca        1 C0M     -0.043000
     35 H11        -2.3280   -0.3800    6.4630 hc        1 C0M      0.071200
     36 H12        -3.2940   -1.7880    7.0680 hc        1 C0M      0.071200
     37 H271       -3.9180    2.5390    3.2450 hc        1 C0M      0.072200
     38 H272       -4.8150    1.4720    2.0770 hc        1 C0M      0.072200
     39 H281       -1.7960    2.1770    1.9250 h1        1 C0M      0.051700
     40 H282       -2.7120    1.1620    0.7330 h1        1 C0M      0.051700
     41 H341       -5.0980    2.6400    0.2520 h1        1 C0M      0.029450
     42 H342       -3.8650    2.2790   -1.0370 h1        1 C0M      0.029450
     43 H331       -5.1170    5.0200   -0.3190 hc        1 C0M      0.046450
     44 H332       -5.3060    4.0460   -1.8340 hc        1 C0M      0.046450
     45 H321       -2.9330    4.3730   -2.4140 hc        1 C0M      0.040200
     46 H322       -3.6760    5.9850   -2.0680 hc        1 C0M      0.040200
     47 H311       -1.4000    5.6640   -0.9810 hc        1 C0M      0.046450
     48 H312       -2.7260    6.0120    0.2030 hc        1 C0M      0.046450
     49 H301       -1.4010    3.2990   -0.4910 h1        1 C0M      0.029450
     50 H302       -1.3280    4.2120    1.0830 h1        1 C0M      0.029450
     51 H61        -2.7790   -1.7030    4.5110 h1        1 C0M      0.070200
     52 H62        -4.4980   -2.0520    5.0300 h1        1 C0M      0.070200
     53 H41        -6.2520   -0.1890    4.5310 h1        1 C0M      0.060200
     54 H42        -5.5550    1.4600    4.1880 h1        1 C0M      0.060200
     55 HN12       -5.3270    1.6490   10.5510 hn        1 C0M      0.343500
     56 H20        -9.0070    2.3170   11.4180 ha        1 C0M      0.148000
     57 H19        -9.4720    2.9940   13.7630 ha        1 C0M      0.143000
     58 H18        -7.8260    4.3990   15.0170 ha        1 C0M      0.140000
     59 H21        -4.7630    4.3640   10.3470 ha        1 C0M      0.140000
     60 H22        -3.1570    5.7710   11.6150 ha        1 C0M      0.140000
     61 H23        -3.6150    6.3940   13.9770 ha        1 C0M      0.139000
     62 H24        -5.7130    5.6200   15.0950 ha        1 C0M      0.137000
@<TRIPOS>BOND
     1    1    2 1   
     2    1   14 1   
     3    1   35 1   
     4    1   36 1   
     5    2   16 2   
     6    2   19 1   
     7    3    4 2   
     8    4    5 1   
     9    4   13 1   
    10    5    6 1   
    11    5   37 1   
    12    5   38 1   
    13    6    7 1   
    14    6   39 1   
    15    6   40 1   
    16    7    8 1   
    17    7   12 1   
    18    8    9 1   
    19    8   41 1   
    20    8   42 1   
    21    9   10 1   
    22    9   43 1   
    23    9   44 1   
    24   10   11 1   
    25   10   45 1   
    26   10   46 1   
    27   11   12 1   
    28   11   47 1   
    29   11   48 1   
    30   12   49 1   
    31   12   50 1   
    32   13   14 1   
    33   13   15 1   
    34   14   51 1   
    35   14   52 1   
    36   15   16 1   
    37   15   53 1   
    38   15   54 1   
    39   16   17 1   
    40   17   18 1   
    41   18   19 2   
    42   18   22 1   
    43   19   20 1   
    44   20   21 3   
    45   22   23 1   
    46   22   55 1   
    47   23   24 2   
    48   23   25 1   
    49   25   26 ar  
    50   25   29 ar  
    51   26   27 ar  
    52   26   56 1   
    53   27   28 ar  
    54   27   57 1   
    55   28   34 ar  
    56   28   58 1   
    57   29   30 ar  
    58   29   34 ar  
    59   30   31 ar  
    60   30   59 1   
    61   31   32 ar  
    62   31   60 1   
    63   32   33 ar  
    64   32   61 1   
    65   33   34 ar  
    66   33   62 1   
@<TRIPOS>SUBSTRUCTURE
     1 C0M         1 TEMP              0 ****  ****    0 ROOT
