@<TRIPOS>MOLECULE
C0M
   63    67     1     0     0
SMALL
bcc


@<TRIPOS>ATOM
      1 C1          1.2260    0.3550    0.0900 c3        1 C0M     -0.061100
      2 C2          2.6400    0.4510    0.5000 cc        1 C0M     -0.043300
      3 O26        -1.0300    1.0800    2.7640 o         1 C0M     -0.567100
      4 C25        -0.0010    0.5840    3.2530 c         1 C0M      0.651100
      5 C27         0.4110    0.8320    4.6870 c3        1 C0M     -0.149400
      6 C28        -0.7030    1.5850    5.4260 c3        1 C0M      0.177800
      7 N29        -0.2970    1.9560    6.7740 n3        1 C0M     -0.744600
      8 C34        -0.4870    0.8720    7.7290 c3        1 C0M      0.172300
      9 C33        -0.0550    1.2350    9.1490 c3        1 C0M     -0.077900
     10 C32        -0.7280    2.5090    9.6110 c3        1 C0M     -0.080400
     11 C31        -0.4860    3.6240    8.6170 c3        1 C0M     -0.077900
     12 C30        -0.9040    3.2100    7.2080 c3        1 C0M      0.172300
     13 N5          0.7660   -0.3040    2.4700 n         1 C0M     -0.458800
     14 C6          0.4130   -0.4960    1.0780 c3        1 C0M      0.074000
     15 C4          2.1540   -0.5620    2.7630 c3        1 C0M      0.155300
     16 C3          3.0900    0.0520    1.7640 cd        1 C0M     -0.147400
     17 S9          4.7000    0.3060    1.9790 ss        1 C0M      0.262200
     18 C8          4.9240    0.9410    0.4400 cd        1 C0M     -0.159500
     19 C7          3.7080    0.9720   -0.2780 cc        1 C0M      0.028000
     20 C10         3.5720    1.4660   -1.5910 cg        1 C0M      0.201800
     21 N11         3.4450    1.8710   -2.6750 n1        1 C0M     -0.279800
     22 N12         6.1710    1.4190   -0.0870 n4        1 C0M     -0.507200
     23 C13         7.1100    0.2750   -0.5290 c         1 C0M      0.596700
     24 O14         7.6950   -0.2890    0.3790 o         1 C0M     -0.409100
     25 C15         7.1230    0.0460   -1.9730 ca        1 C0M     -0.213600
     26 C20         6.7620   -1.2090   -2.4390 ca        1 C0M     -0.012000
     27 C19         6.7060   -1.4560   -3.8250 ca        1 C0M     -0.152000
     28 C18         7.0110   -0.4560   -4.7200 ca        1 C0M     -0.028000
     29 C16         7.5090    1.0860   -2.8710 ca        1 C0M      0.002000
     30 C21         8.0110    2.3440   -2.4410 ca        1 C0M     -0.198000
     31 C22         8.3470    3.3150   -3.3550 ca        1 C0M     -0.058000
     32 C23         8.2060    3.0760   -4.7430 ca        1 C0M     -0.122000
     33 C24         7.7640    1.8550   -5.1890 ca        1 C0M     -0.077000
     34 C17         7.4210    0.8270   -4.2660 ca        1 C0M     -0.050000
     35 H11         0.7880    1.3900    0.0350 hc        1 C0M      0.086200
     36 H12         1.1420   -0.1010   -0.9320 hc        1 C0M      0.086200
     37 H271        1.3510    1.4440    4.6970 hc        1 C0M      0.072200
     38 H272        0.6190   -0.1440    5.1990 hc        1 C0M      0.072200
     39 H281       -0.9450    2.5130    4.8340 h1        1 C0M      0.055200
     40 H282       -1.6280    0.9380    5.4180 h1        1 C0M      0.055200
     41 H341        0.1290   -0.0020    7.3740 h1        1 C0M      0.030700
     42 H342       -1.5660    0.5350    7.7600 h1        1 C0M      0.030700
     43 H331        1.0580    1.3610    9.1860 hc        1 C0M      0.048700
     44 H332       -0.3270    0.3860    9.8270 hc        1 C0M      0.048700
     45 H321       -1.8310    2.3340    9.7210 hc        1 C0M      0.046200
     46 H322       -0.3330    2.8040   10.6170 hc        1 C0M      0.046200
     47 H311       -1.0750    4.5320    8.9050 hc        1 C0M      0.048700
     48 H312        0.6000    3.9030    8.6230 hc        1 C0M      0.048700
     49 H301       -2.0320    3.1520    7.1720 h1        1 C0M      0.030700
     50 H302       -0.5800    4.0110    6.4860 h1        1 C0M      0.030700
     51 H61        -0.6820   -0.2610    0.9400 h1        1 C0M      0.085200
     52 H62         0.5760   -1.5860    0.8390 h1        1 C0M      0.085200
     53 H41         2.3090   -1.6840    2.7260 h1        1 C0M      0.082200
     54 H42         2.4200   -0.2120    3.8000 h1        1 C0M      0.082200
     55 HN12        5.9810    2.0150   -0.9100 hn        1 C0M      0.463800
     56 H20         6.5070   -2.0190   -1.7350 ha        1 C0M      0.157000
     57 H19         6.4130   -2.4590   -4.1770 ha        1 C0M      0.168000
     58 H18         6.9490   -0.6380   -5.8070 ha        1 C0M      0.164000
     59 H21         8.2000    2.5240   -1.3730 ha        1 C0M      0.112000
     60 H22         8.7440    4.2870   -3.0180 ha        1 C0M      0.155000
     61 H23         8.4700    3.8740   -5.4550 ha        1 C0M      0.163000
     62 H24         7.6730    1.6460   -6.2680 ha        1 C0M      0.159000
     63 H122        6.6410    1.9860    0.6300 hn        1 C0M      0.463800
@<TRIPOS>BOND
     1    1    2 1   
     2    1   14 1   
     3    1   35 1   
     4    1   36 1   
     5    2   16 2   
     6    2   19 1   
     7    3    4 2   
     8    4    5 1   
     9    4   13 1   
    10    5    6 1   
    11    5   37 1   
    12    5   38 1   
    13    6    7 1   
    14    6   39 1   
    15    6   40 1   
    16    7    8 1   
    17    7   12 1   
    18    8    9 1   
    19    8   41 1   
    20    8   42 1   
    21    9   10 1   
    22    9   43 1   
    23    9   44 1   
    24   10   11 1   
    25   10   45 1   
    26   10   46 1   
    27   11   12 1   
    28   11   47 1   
    29   11   48 1   
    30   12   49 1   
    31   12   50 1   
    32   13   14 1   
    33   13   15 1   
    34   14   51 1   
    35   14   52 1   
    36   15   16 1   
    37   15   53 1   
    38   15   54 1   
    39   16   17 1   
    40   17   18 1   
    41   18   19 2   
    42   18   22 1   
    43   19   20 1   
    44   20   21 3   
    45   22   23 1   
    46   22   55 1   
    47   22   63 1   
    48   23   24 2   
    49   23   25 1   
    50   25   26 ar  
    51   25   29 ar  
    52   26   27 ar  
    53   26   56 1   
    54   27   28 ar  
    55   27   57 1   
    56   28   34 ar  
    57   28   58 1   
    58   29   30 ar  
    59   29   34 ar  
    60   30   31 ar  
    61   30   59 1   
    62   31   32 ar  
    63   31   60 1   
    64   32   33 ar  
    65   32   61 1   
    66   33   34 ar  
    67   33   62 1   
@<TRIPOS>SUBSTRUCTURE
     1 C0M         1 TEMP              0 ****  ****    0 ROOT
