@<TRIPOS>MOLECULE
C0M
   62    59     1     0     0
SMALL
bcc


@<TRIPOS>ATOM
      1 C1         -3.1060   -1.5400   -2.0230 c3        1 C0M     -0.136000
      2 C2         -1.5450   -1.3850   -2.0740 c2        1 C0M     -0.016000
      3 O26        -5.0260    0.0350    1.0450 o         1 C0M     -0.364000
      4 C25        -3.8220   -0.1120    1.2240 c1        1 C0M      0.296000
      5 C27        -3.1290    0.5440    2.4810 c3        1 C0M     -0.178000
      6 C28        -4.1610    1.3160    3.2890 c3        1 C0M     -0.060000
      7 N29        -3.5320    2.5580    3.8350 n3        1 C0M     -0.264000
      8 C34        -3.7670    2.6340    5.2910 c3        1 C0M     -0.064000
      9 C33        -3.2830    3.9240    5.8810 c3        1 C0M     -0.156500
     10 C32        -3.8170    5.1320    5.1410 c3        1 C0M     -0.157000
     11 C31        -3.5820    5.0510    3.6810 c3        1 C0M     -0.156500
     12 C30        -4.0600    3.7560    3.0960 c3        1 C0M     -0.064000
     13 N5         -3.0790   -0.9850    0.3790 n2        1 C0M     -0.310000
     14 C6         -3.7090   -1.6770   -0.6540 c3        1 C0M     -0.037000
     15 C4         -1.7130   -1.1680    0.5640 c3        1 C0M      0.050000
     16 C3         -0.8220   -1.3010   -0.7770 c2        1 C0M     -0.494000
     17 S9          0.7140   -1.4570   -1.0740 ss        1 C0M      0.707000
     18 C8          0.8790   -1.6420   -2.6360 c1        1 C0M     -0.191000
     19 C7         -0.4630   -1.6010   -3.2450 c1        1 C0M     -0.123000
     20 C10        -0.7610   -1.8280   -4.6380 c1        1 C0M     -0.067000
     21 N11        -0.9960   -2.0090   -5.7490 n1        1 C0M     -0.057000
     22 N12         2.1400   -1.7380   -3.3550 n2        1 C0M     -0.292000
     23 C13         3.3780   -1.3910   -2.6810 c2        1 C0M      0.350000
     24 O14         3.3540   -1.0160   -1.5010 o         1 C0M     -0.338000
     25 C15         4.6990   -1.5720   -3.3820 c2        1 C0M     -0.112000
     26 C20         4.7690   -0.7760   -4.5490 c2        1 C0M     -0.088000
     27 C19         6.0010   -0.6630   -5.2620 c1        1 C0M     -0.141000
     28 C18         7.1100   -1.3230   -4.8150 c1        1 C0M     -0.086000
     29 C16         5.8360   -2.2490   -2.9240 c1        1 C0M      0.000000
     30 C21         5.7680   -3.0450   -1.7550 c1        1 C0M     -0.118000
     31 C22         6.8950   -3.7110   -1.3070 c1        1 C0M     -0.118000
     32 C23         8.0870   -3.6020   -1.9970 c1        1 C0M     -0.118000
     33 C24         8.1630   -2.8160   -3.1540 c1        1 C0M     -0.118000
     34 C17         7.0330   -2.1400   -3.6150 c1        1 C0M     -0.044000
     35 H11        -3.3390   -2.4030   -2.5410 hc        1 C0M      0.110500
     36 H12        -3.5100   -0.6890   -2.4470 hc        1 C0M      0.110500
     37 H271       -2.4310    1.1550    2.1860 hc        1 C0M      0.111500
     38 H272       -2.7370   -0.1510    3.0370 hc        1 C0M      0.111500
     39 H281       -4.4730    0.7710    4.0110 h1        1 C0M      0.091000
     40 H282       -4.9200    1.5590    2.7050 h1        1 C0M      0.091000
     41 H341       -4.7470    2.5480    5.4650 h1        1 C0M      0.068750
     42 H342       -3.2910    1.8730    5.7390 h1        1 C0M      0.068750
     43 H331       -2.2500    3.9360    5.8420 hc        1 C0M      0.085750
     44 H332       -3.5900    3.9770    6.8940 hc        1 C0M      0.085750
     45 H321       -4.7990    5.2070    5.3070 hc        1 C0M      0.079500
     46 H322       -3.3770    5.9340    5.4860 hc        1 C0M      0.079500
     47 H311       -4.0750    5.8160    3.2300 hc        1 C0M      0.085750
     48 H312       -2.6050    5.1470    3.5040 hc        1 C0M      0.085750
     49 H301       -5.0070    3.7380    3.1240 h1        1 C0M      0.068750
     50 H302       -3.7870    3.7090    2.2190 h1        1 C0M      0.068750
     51 H61        -3.6710   -2.6710   -0.4090 h1        1 C0M      0.109500
     52 H62        -4.6660   -1.3120   -0.7140 h1        1 C0M      0.109500
     53 H41        -1.6040   -2.0250    1.0720 h1        1 C0M      0.099500
     54 H42        -1.3750   -0.3650    1.0620 h1        1 C0M      0.099500
     55 HN12        2.1590   -2.0830   -4.2080 hn        1 C0M      0.254000
     56 H20         3.9500   -0.2890   -4.8770 ha        1 C0M      0.142000
     57 H19         6.0490   -0.1250   -6.0480 ha        1 C0M      0.143000
     58 H18         8.0180   -1.2410   -5.3390 ha        1 C0M      0.140000
     59 H21         4.9240   -3.1230   -1.2630 ha        1 C0M      0.141250
     60 H22         6.8490   -4.2600   -0.4990 ha        1 C0M      0.141250
     61 H23         8.9010   -4.0880   -1.6700 ha        1 C0M      0.141250
     62 H24         8.9500   -2.7480   -3.6050 ha        1 C0M      0.141250
@<TRIPOS>BOND
     1    1    2 1   
     2    1   14 1   
     3    1   35 1   
     4    1   36 1   
     5    2   16 1   
     6    2   19 1   
     7    3    4 1   
     8    4    5 1   
     9    5    6 1   
    10    5   37 1   
    11    5   38 1   
    12    6    7 1   
    13    6   39 1   
    14    6   40 1   
    15    7    8 1   
    16    7   12 1   
    17    8    9 1   
    18    8   41 1   
    19    8   42 1   
    20    9   10 1   
    21    9   43 1   
    22    9   44 1   
    23   10   11 1   
    24   10   45 1   
    25   10   46 1   
    26   11   12 1   
    27   11   47 1   
    28   11   48 1   
    29   12   49 1   
    30   12   50 1   
    31   13   14 1   
    32   13   15 1   
    33   14   51 1   
    34   14   52 1   
    35   15   16 1   
    36   15   53 1   
    37   15   54 1   
    38   16   17 1   
    39   17   18 1   
    40   18   19 1   
    41   20   21 1   
    42   22   23 1   
    43   22   55 1   
    44   23   24 1   
    45   23   25 1   
    46   25   26 1   
    47   25   29 1   
    48   26   27 1   
    49   26   56 1   
    50   27   57 1   
    51   28   34 1   
    52   28   58 1   
    53   29   34 1   
    54   30   31 1   
    55   30   59 1   
    56   31   60 1   
    57   32   33 1   
    58   32   61 1   
    59   33   62 1   
@<TRIPOS>SUBSTRUCTURE
     1 C0M         1 TEMP              0 ****  ****    0 ROOT
